lig_assembled_25.pdb
 OpenBabel07262312123D

 49 53  0  0  1  0  0  0  0  0999 V2000
   -2.9210   13.0440   24.3880 C   0  0  0  0  0  0  0  0  0  0  0  0
   -4.7510   13.3980   22.7660 C   0  0  0  0  0  0  0  0  0  0  0  0
   -5.5410   13.8300   23.6090 O   0  0  0  0  0  0  0  0  0  0  0  0
   -3.5080   13.0020   23.0430 N   0  0  0  0  0  0  0  0  0  0  0  0
   -2.9380   12.6540   22.2850 H   0  0  0  0  0  0  0  0  0  0  0  0
   -5.1730   13.3040   21.4030 O   0  0  0  0  0  0  0  0  0  0  0  0
   -5.0640   11.9480   20.9620 C   0  0  0  0  0  0  0  0  0  0  0  0
   -6.5920   12.3210   19.0580 N   0  0  0  0  0  0  0  0  0  0  0  0
   -5.4000   11.8430   19.5290 C   0  0  0  0  0  0  0  0  0  0  0  0
   -4.6910   11.2920   18.4840 C   0  0  0  0  0  0  0  0  0  0  0  0
   -5.5120   11.4480   17.4040 N   0  0  0  0  0  0  0  0  0  0  0  0
   -6.6530   12.0800   17.7570 N   0  0  0  0  0  0  0  0  0  0  0  0
   -5.3580   10.9740   16.0380 C   0  0  0  0  0  0  0  0  0  0  0  0
   -4.4300    9.7700   15.9410 C   0  0  0  0  0  0  0  0  0  0  0  0
   -3.3830   10.0410   15.0320 C   0  0  0  0  0  0  0  0  0  0  0  0
   -3.5430   11.3860   14.5170 C   0  0  0  0  0  0  0  0  0  0  0  0
   -2.7950   12.0820   13.5820 C   0  0  0  0  0  0  0  0  0  0  0  0
   -3.1970   13.3760   13.2390 C   0  0  0  0  0  0  0  0  0  0  0  0
   -4.3300   13.9590   13.8310 C   0  0  0  0  0  0  0  0  0  0  0  0
   -5.0860   13.2600   14.7750 C   0  0  0  0  0  0  0  0  0  0  0  0
   -2.4230    9.0810   14.7620 C   0  0  0  0  0  0  0  0  0  0  0  0
   -2.5190    7.8440   15.4080 C   0  0  0  0  0  0  0  0  0  0  0  0
   -3.5640    7.5780   16.3070 C   0  0  0  0  0  0  0  0  0  0  0  0
   -4.5350    8.5430   16.5800 C   0  0  0  0  0  0  0  0  0  0  0  0
   -4.6820   11.9760   15.1110 C   0  0  0  0  0  0  0  0  0  0  0  0
   -3.2190   11.7750   25.1780 C   0  0  1  0  0  0  0  0  0  0  0  0
   -2.0860   10.8910   25.1360 O   0  0  0  0  0  0  0  0  0  0  0  0
   -2.0820   10.3370   25.9200 H   0  0  0  0  0  0  0  0  0  0  0  0
   -3.5750   12.1440   26.6290 C   0  0  2  0  0  0  0  0  0  0  0  0
   -3.3650   10.9680   27.5930 C   0  0  2  0  0  0  0  0  0  0  0  0
   -4.0010    9.7950   27.0130 O   0  0  0  0  0  0  0  0  0  0  0  0
   -3.8110    8.5420   27.7500 C   0  0  2  0  0  0  0  0  0  0  0  0
   -4.2610    8.7070   29.2220 C   0  0  0  0  0  0  0  0  0  0  0  0
   -3.6350    9.9590   29.8720 C   0  0  1  0  0  0  0  0  0  0  0  0
   -3.8900   11.2040   29.0210 C   0  0  1  0  0  0  0  0  0  0  0  0
   -3.2150   12.3740   29.6060 N   0  0  0  0  0  0  0  0  0  0  0  0
   -2.2050   12.3830   29.6080 H   0  0  0  0  0  0  0  0  0  0  0  0
   -3.8510   13.4230   30.1340 C   0  0  0  0  0  0  0  0  0  0  0  0
   -5.3900   13.3660   30.1390 C   0  0  0  0  0  0  0  0  0  0  0  0
   -3.2600   14.3960   30.6030 O   0  0  0  0  0  0  0  0  0  0  0  0
   -2.3340    8.1010   27.7080 C   0  0  0  0  0  0  0  0  0  0  0  0
   -1.8320    7.5210   28.6710 O   0  0  0  0  0  0  0  0  0  0  0  0
   -1.6430    8.3240   26.7130 O   0  0  0  0  0  0  0  0  0  0  0  0
   -4.1920   10.1560   31.1730 O   0  0  0  0  0  0  0  0  0  0  0  0
   -5.1500   10.1260   31.1190 H   0  0  0  0  0  0  0  0  0  0  0  0
   -4.6420    7.5270   27.1290 O   0  0  0  0  0  0  0  0  0  0  0  0
   -4.9990    7.7890   25.7480 C   0  0  0  0  0  0  0  0  0  0  0  0
   -4.9370   12.6100   26.7030 O   0  0  0  0  0  0  0  0  0  0  0  0
   -5.4970   12.0500   26.1600 H   0  0  0  0  0  0  0  0  0  0  0  0
  2  4  1  0  0  0  0
  2  3  2  0  0  0  0
  4  1  1  0  0  0  0
  5  4  1  0  0  0  0
  6  2  1  0  0  0  0
  7  6  1  0  0  0  0
  8  9  1  0  0  0  0
  9  7  1  0  0  0  0
 10  9  2  0  0  0  0
 11 12  1  0  0  0  0
 11 10  1  0  0  0  0
 12  8  2  0  0  0  0
 13 11  1  0  0  0  0
 14 13  1  0  0  0  0
 14 24  2  0  0  0  0
 15 14  1  0  0  0  0
 16 15  1  0  0  0  0
 16 25  2  0  0  0  0
 17 16  1  0  0  0  0
 18 17  2  0  0  0  0
 18 19  1  0  0  0  0
 19 20  2  0  0  0  0
 20 25  1  0  0  0  0
 21 15  2  0  0  0  0
 21 22  1  0  0  0  0
 22 23  2  0  0  0  0
 23 24  1  0  0  0  0
 25 13  1  0  0  0  0
 26  1  1  6  0  0  0
 26 29  1  0  0  0  0
 27 26  1  0  0  0  0
 27 28  1  0  0  0  0
 29 48  1  6  0  0  0
 30 29  1  6  0  0  0
 30 35  1  0  0  0  0
 31 30  1  0  0  0  0
 31 32  1  0  0  0  0
 32 46  1  6  0  0  0
 32 33  1  0  0  0  0
 33 34  1  0  0  0  0
 34 44  1  1  0  0  0
 35 36  1  1  0  0  0
 35 34  1  0  0  0  0
 36 37  1  0  0  0  0
 36 38  1  0  0  0  0
 38 39  1  0  0  0  0
 38 40  2  0  0  0  0
 41 32  1  0  0  0  0
 41 42  1  0  0  0  0
 43 41  2  0  0  0  0
 45 44  1  0  0  0  0
 47 46  1  0  0  0  0
 49 48  1  0  0  0  0
M  END
>  <REMARK>
 VINA RESULT:    -5.939      0.000      0.000
 INTER + INTRA:         -12.753
 INTER:                 -10.689
 INTRA:                  -2.064
 UNBOUND:                -2.475
  Name = lig_assembled_25.pdb
  16 active torsions:
  status: ('A' for Active; 'I' for Inactive)
    1  A    between atoms: _2  and  _9
    2  A    between atoms: _4  and  _25
    3  A    between atoms: _6  and  _7
    4  A    between atoms: _6  and  _25
    5  A    between atoms: _21  and  _41
    6  A    between atoms: _23  and  _29
    7  A    between atoms: _24  and  _28
    8  A    between atoms: _28  and  _29
    9  A    between atoms: _31  and  _32
   10  A    between atoms: _33  and  _34
   11  A    between atoms: _35  and  _37
   12  A    between atoms: _37  and  _38
   13  A    between atoms: _37  and  _39
   14  A    between atoms: _39  and  _40
   15  A    between atoms: _39  and  _41
   16  A    between atoms: _42  and  _44
                            x       y       z     vdW  Elec       q    Type
                         _______ _______ _______ _____ _____    ______ ____

>  <TORSDO>
F 14

$$$$
