REMARK VINA RESULT:    -5.499      0.000      0.000
REMARK INTER + INTRA:         -11.513
REMARK INTER:                  -8.971
REMARK INTRA:                  -2.542
REMARK UNBOUND:                -1.997
REMARK  Name = lig_assembled_57.pdb
REMARK  17 active torsions:
REMARK  status: ('A' for Active; 'I' for Inactive)
REMARK    1  A    between atoms: _2  and  _10
REMARK    2  A    between atoms: _3  and  _13
REMARK    3  A    between atoms: _5  and  _19
REMARK    4  A    between atoms: _7  and  _8
REMARK    5  A    between atoms: _7  and  _19
REMARK    6  A    between atoms: _15  and  _35
REMARK    7  A    between atoms: _17  and  _23
REMARK    8  A    between atoms: _18  and  _22
REMARK    9  A    between atoms: _22  and  _23
REMARK   10  A    between atoms: _25  and  _26
REMARK   11  A    between atoms: _27  and  _28
REMARK   12  A    between atoms: _29  and  _31
REMARK   13  A    between atoms: _31  and  _32
REMARK   14  A    between atoms: _31  and  _33
REMARK   15  A    between atoms: _33  and  _34
REMARK   16  A    between atoms: _33  and  _35
REMARK   17  A    between atoms: _36  and  _38
REMARK                            x       y       z     vdW  Elec       q    Type
REMARK                         _______ _______ _______ _____ _____    ______ ____
ROOT
ATOM      1  C   UNL     1      -3.280  10.360  30.997  0.00  0.00    +0.163 C 
ENDROOT
BRANCH   1   2
ATOM      2  O   UNL     1      -2.241  11.246  31.445  0.00  0.00    -0.388 OA
ATOM      3  H   UNL     1      -1.653  10.776  32.040  0.00  0.00    +0.210 HD
ENDBRANCH   1   2
BRANCH   1   4
ATOM      4  C   UNL     1      -2.676   9.207  30.202  0.00  0.00    +0.141 C 
BRANCH   4   7
ATOM      5  C   UNL     1      -1.935   8.744  27.891  0.00  0.00    +0.401 C 
ATOM      6  O   UNL     1      -1.438   7.651  28.169  0.00  0.00    -0.226 OA
ATOM      7  N   UNL     1      -2.529   9.541  28.780  0.00  0.00    -0.279 N 
ATOM      8  H   UNL     1      -2.898  10.425  28.458  0.00  0.00    +0.152 HD
BRANCH   5   9
ATOM      9  O   UNL     1      -1.879   9.209  26.540  0.00  0.00    -0.444 OA
BRANCH   9  10
ATOM     10  C   UNL     1      -2.362  10.554  26.477  0.00  0.00    +0.292 C 
BRANCH  10  12
ATOM     11  N   UNL     1      -3.025   9.938  24.179  0.00  0.00    -0.131 NA
ATOM     12  C   UNL     1      -2.695  10.906  25.084  0.00  0.00    +0.120 A 
ATOM     13  C   UNL     1      -2.765  12.139  24.471  0.00  0.00    +0.137 A 
ATOM     14  N   UNL     1      -3.229  11.863  23.220  0.00  0.00    -0.248 N 
ATOM     15  N   UNL     1      -3.312  10.529  23.031  0.00  0.00    -0.065 NA
BRANCH  14  16
ATOM     16  C   UNL     1      -3.683  12.745  22.150  0.00  0.00    +0.111 C 
ATOM     17  C   UNL     1      -5.059  12.305  21.629  0.00  0.00    +0.042 C 
ATOM     18  C   UNL     1      -6.153  12.670  22.630  0.00  0.00    +0.086 C 
ATOM     19  N   UNL     1      -6.212  14.108  22.913  0.00  0.00    -0.305 NA
ATOM     20  C   UNL     1      -4.924  14.648  23.350  0.00  0.00    +0.086 C 
ATOM     21  C   UNL     1      -6.801  14.866  21.812  0.00  0.00    +0.104 C 
ATOM     22  C   UNL     1      -3.724  14.247  22.480  0.00  0.00    +0.042 C 
ENDBRANCH  14  16
ENDBRANCH  10  12
ENDBRANCH   9  10
ENDBRANCH   5   9
ENDBRANCH   4   7
ENDBRANCH   1   4
BRANCH   1  23
ATOM     23  C   UNL     1      -4.303  11.107  30.124  0.00  0.00    +0.175 C 
BRANCH  23  24
ATOM     24  C   UNL     1      -4.365  12.604  30.460  0.00  0.00    +0.176 C 
ATOM     25  O   UNL     1      -4.549  12.733  31.896  0.00  0.00    -0.332 OA
ATOM     26  C   UNL     1      -4.526  14.103  32.418  0.00  0.00    +0.277 C 
ATOM     27  C   UNL     1      -5.563  14.982  31.677  0.00  0.00    +0.110 C 
ATOM     28  C   UNL     1      -5.427  14.853  30.145  0.00  0.00    +0.143 C 
ATOM     29  C   UNL     1      -5.460  13.387  29.712  0.00  0.00    +0.133 C 
BRANCH  29  30
ATOM     30  N   UNL     1      -5.243  13.273  28.262  0.00  0.00    -0.308 N 
ATOM     31  H   UNL     1      -4.346  13.560  27.895  0.00  0.00    +0.149 HD
ATOM     32  C   UNL     1      -6.153  12.815  27.398  0.00  0.00    +0.210 C 
ATOM     33  C   UNL     1      -7.519  12.411  27.984  0.00  0.00    +0.109 C 
ATOM     34  O   UNL     1      -5.938  12.717  26.189  0.00  0.00    -0.276 OA
ENDBRANCH  29  30
BRANCH  26  35
ATOM     35  C   UNL     1      -3.121  14.722  32.266  0.00  0.00    +0.414 C 
ATOM     36  O   UNL     1      -2.990  15.941  32.154  0.00  0.00    -0.240 OA
ATOM     37  O   UNL     1      -2.120  14.005  32.254  0.00  0.00    -0.240 OA
ENDBRANCH  26  35
BRANCH  28  38
ATOM     38  O   UNL     1      -6.493  15.557  29.506  0.00  0.00    -0.390 OA
ATOM     39  H   UNL     1      -7.237  15.628  30.109  0.00  0.00    +0.210 HD
ENDBRANCH  28  38
BRANCH  26  40
ATOM     40  O   UNL     1      -4.888  14.054  33.822  0.00  0.00    -0.343 OA
ATOM     41  C   UNL     1      -6.213  13.532  34.095  0.00  0.00    +0.198 C 
ENDBRANCH  26  40
ENDBRANCH  23  24
BRANCH  23  42
ATOM     42  O   UNL     1      -5.607  10.511  30.267  0.00  0.00    -0.387 OA
ATOM     43  H   UNL     1      -6.235  10.977  29.709  0.00  0.00    +0.210 HD
ENDBRANCH  23  42
ENDBRANCH   1  23
TORSDOF 14
