REMARK VINA RESULT:    -5.455      0.000      0.000
REMARK INTER + INTRA:         -12.959
REMARK INTER:                  -8.899
REMARK INTRA:                  -4.060
REMARK UNBOUND:                -2.560
REMARK  Name = lig_assembled_18.pdb
REMARK  19 active torsions:
REMARK  status: ('A' for Active; 'I' for Inactive)
REMARK    1  A    between atoms: _2  and  _10
REMARK    2  A    between atoms: _3  and  _12
REMARK    3  A    between atoms: _5  and  _21
REMARK    4  A    between atoms: _7  and  _8
REMARK    5  A    between atoms: _7  and  _21
REMARK    6  A    between atoms: _10  and  _11
REMARK    7  A    between atoms: _12  and  _13
REMARK    8  A    between atoms: _17  and  _37
REMARK    9  A    between atoms: _19  and  _25
REMARK   10  A    between atoms: _20  and  _24
REMARK   11  A    between atoms: _24  and  _25
REMARK   12  A    between atoms: _27  and  _28
REMARK   13  A    between atoms: _29  and  _30
REMARK   14  A    between atoms: _31  and  _33
REMARK   15  A    between atoms: _33  and  _34
REMARK   16  A    between atoms: _33  and  _35
REMARK   17  A    between atoms: _35  and  _36
REMARK   18  A    between atoms: _35  and  _37
REMARK   19  A    between atoms: _38  and  _40
REMARK                            x       y       z     vdW  Elec       q    Type
REMARK                         _______ _______ _______ _____ _____    ______ ____
ROOT
ATOM      1  C   UNL     1      -7.015   8.479  24.046  0.00  0.00    +0.163 C 
ENDROOT
BRANCH   1   2
ATOM      2  O   UNL     1      -6.434   8.486  25.360  0.00  0.00    -0.388 OA
ATOM      3  H   UNL     1      -6.756   9.246  25.849  0.00  0.00    +0.210 HD
ENDBRANCH   1   2
BRANCH   1   4
ATOM      4  C   UNL     1      -6.792   9.826  23.338  0.00  0.00    +0.175 C 
BRANCH   4   5
ATOM      5  C   UNL     1      -5.436  10.451  23.700  0.00  0.00    +0.176 C 
ATOM      6  O   UNL     1      -5.648  11.371  24.806  0.00  0.00    -0.332 OA
ATOM      7  C   UNL     1      -4.438  11.986  25.359  0.00  0.00    +0.277 C 
ATOM      8  C   UNL     1      -3.629  12.690  24.242  0.00  0.00    +0.110 C 
ATOM      9  C   UNL     1      -3.406  11.761  23.030  0.00  0.00    +0.143 C 
ATOM     10  C   UNL     1      -4.729  11.173  22.538  0.00  0.00    +0.133 C 
BRANCH  10  11
ATOM     11  N   UNL     1      -4.494  10.223  21.439  0.00  0.00    -0.308 N 
ATOM     12  H   UNL     1      -3.939   9.402  21.636  0.00  0.00    +0.149 HD
ATOM     13  C   UNL     1      -4.965  10.375  20.199  0.00  0.00    +0.210 C 
ATOM     14  C   UNL     1      -5.786  11.649  19.924  0.00  0.00    +0.109 C 
ATOM     15  O   UNL     1      -4.765   9.555  19.302  0.00  0.00    -0.276 OA
ENDBRANCH  10  11
BRANCH   7  16
ATOM     16  C   UNL     1      -3.552  10.928  26.049  0.00  0.00    +0.414 C 
ATOM     17  O   UNL     1      -2.329  11.061  26.070  0.00  0.00    -0.240 OA
ATOM     18  O   UNL     1      -4.060   9.942  26.584  0.00  0.00    -0.240 OA
ENDBRANCH   7  16
BRANCH   7  19
ATOM     19  O   UNL     1      -4.847  12.987  26.327  0.00  0.00    -0.343 OA
ATOM     20  C   UNL     1      -5.858  13.915  25.860  0.00  0.00    +0.198 C 
ENDBRANCH   7  19
BRANCH   9  21
ATOM     21  O   UNL     1      -2.792  12.493  21.969  0.00  0.00    -0.390 OA
ATOM     22  H   UNL     1      -2.883  13.434  22.134  0.00  0.00    +0.210 HD
ENDBRANCH   9  21
ENDBRANCH   4   5
BRANCH   4  23
ATOM     23  O   UNL     1      -7.860  10.739  23.659  0.00  0.00    -0.387 OA
ATOM     24  H   UNL     1      -8.060  11.281  22.892  0.00  0.00    +0.210 HD
ENDBRANCH   4  23
ENDBRANCH   1   4
BRANCH   1  25
ATOM     25  C   UNL     1      -6.405   7.358  23.211  0.00  0.00    +0.141 C 
BRANCH  25  28
ATOM     26  C   UNL     1      -3.963   7.014  23.369  0.00  0.00    +0.401 C 
ATOM     27  O   UNL     1      -3.709   7.678  22.362  0.00  0.00    -0.226 OA
ATOM     28  N   UNL     1      -5.196   6.807  23.835  0.00  0.00    -0.279 N 
ATOM     29  H   UNL     1      -5.303   6.239  24.664  0.00  0.00    +0.152 HD
BRANCH  26  30
ATOM     30  O   UNL     1      -2.887   6.415  24.096  0.00  0.00    -0.444 OA
BRANCH  30  31
ATOM     31  C   UNL     1      -3.388   5.842  25.307  0.00  0.00    +0.292 C 
BRANCH  31  33
ATOM     32  N   UNL     1      -1.796   7.399  26.396  0.00  0.00    -0.131 NA
ATOM     33  C   UNL     1      -2.912   6.608  26.474  0.00  0.00    +0.120 A 
ATOM     34  C   UNL     1      -3.428   6.685  27.747  0.00  0.00    +0.137 A 
ATOM     35  N   UNL     1      -2.601   7.558  28.389  0.00  0.00    -0.242 N 
ATOM     36  N   UNL     1      -1.607   7.969  27.579  0.00  0.00    -0.065 NA
BRANCH  35  37
ATOM     37  C   UNL     1      -2.610   7.956  29.776  0.00  0.00    +0.240 C 
BRANCH  37  38
ATOM     38  C   UNL     1      -3.591   9.074  30.045  0.00  0.00    +0.235 C 
ATOM     39  O   UNL     1      -4.635   8.892  30.668  0.00  0.00    -0.274 OA
ATOM     40  N   UNL     1      -3.202  10.318  29.592  0.00  0.00    -0.309 N 
ATOM     41  H   UNL     1      -2.430  10.405  28.946  0.00  0.00    +0.149 HD
BRANCH  40  42
ATOM     42  C   UNL     1      -4.032  11.488  29.790  0.00  0.00    +0.146 C 
BRANCH  42  43
ATOM     43  C   UNL     1      -3.384  12.401  30.782  0.00  0.00    +0.007 A 
ATOM     44  S   UNL     1      -2.555  11.768  32.141  0.00  0.00    -0.100 S 
ATOM     45  C   UNL     1      -2.209  13.332  32.740  0.00  0.00    +0.045 A 
ATOM     46  C   UNL     1      -2.699  14.322  31.917  0.00  0.00    +0.008 A 
ATOM     47  C   UNL     1      -3.371  13.783  30.782  0.00  0.00    +0.013 A 
ENDBRANCH  42  43
ENDBRANCH  40  42
ENDBRANCH  37  38
ENDBRANCH  35  37
ENDBRANCH  31  33
ENDBRANCH  30  31
ENDBRANCH  26  30
ENDBRANCH  25  28
ENDBRANCH   1  25
TORSDOF 17
