REMARK VINA RESULT:    -5.939      0.000      0.000
REMARK INTER + INTRA:         -12.753
REMARK INTER:                 -10.689
REMARK INTRA:                  -2.064
REMARK UNBOUND:                -2.475
REMARK  Name = lig_assembled_25.pdb
REMARK  16 active torsions:
REMARK  status: ('A' for Active; 'I' for Inactive)
REMARK    1  A    between atoms: _2  and  _9
REMARK    2  A    between atoms: _4  and  _25
REMARK    3  A    between atoms: _6  and  _7
REMARK    4  A    between atoms: _6  and  _25
REMARK    5  A    between atoms: _21  and  _41
REMARK    6  A    between atoms: _23  and  _29
REMARK    7  A    between atoms: _24  and  _28
REMARK    8  A    between atoms: _28  and  _29
REMARK    9  A    between atoms: _31  and  _32
REMARK   10  A    between atoms: _33  and  _34
REMARK   11  A    between atoms: _35  and  _37
REMARK   12  A    between atoms: _37  and  _38
REMARK   13  A    between atoms: _37  and  _39
REMARK   14  A    between atoms: _39  and  _40
REMARK   15  A    between atoms: _39  and  _41
REMARK   16  A    between atoms: _42  and  _44
REMARK                            x       y       z     vdW  Elec       q    Type
REMARK                         _______ _______ _______ _____ _____    ______ ____
ROOT
ATOM      1  C   UNL     1      -2.921  13.044  24.388  0.00  0.00    +0.141 C 
ENDROOT
BRANCH   1   4
ATOM      2  C   UNL     1      -4.751  13.398  22.766  0.00  0.00    +0.401 C 
ATOM      3  O   UNL     1      -5.541  13.830  23.609  0.00  0.00    -0.226 OA
ATOM      4  N   UNL     1      -3.508  13.002  23.043  0.00  0.00    -0.279 N 
ATOM      5  H   UNL     1      -2.938  12.654  22.285  0.00  0.00    +0.152 HD
BRANCH   2   6
ATOM      6  O   UNL     1      -5.173  13.304  21.403  0.00  0.00    -0.444 OA
BRANCH   6   7
ATOM      7  C   UNL     1      -5.064  11.948  20.962  0.00  0.00    +0.292 C 
BRANCH   7   9
ATOM      8  N   UNL     1      -6.592  12.321  19.058  0.00  0.00    -0.131 NA
ATOM      9  C   UNL     1      -5.400  11.843  19.529  0.00  0.00    +0.120 A 
ATOM     10  C   UNL     1      -4.691  11.292  18.484  0.00  0.00    +0.138 A 
ATOM     11  N   UNL     1      -5.512  11.448  17.404  0.00  0.00    -0.240 N 
ATOM     12  N   UNL     1      -6.653  12.080  17.757  0.00  0.00    -0.064 NA
BRANCH  11  13
ATOM     13  C   UNL     1      -5.358  10.974  16.038  0.00  0.00    +0.170 C 
ATOM     14  C   UNL     1      -4.430   9.770  15.941  0.00  0.00    -0.011 A 
ATOM     15  C   UNL     1      -3.383  10.041  15.032  0.00  0.00    -0.012 A 
ATOM     16  C   UNL     1      -3.543  11.386  14.517  0.00  0.00    -0.012 A 
ATOM     17  C   UNL     1      -2.795  12.082  13.582  0.00  0.00    +0.009 A 
ATOM     18  C   UNL     1      -3.197  13.376  13.239  0.00  0.00    +0.001 A 
ATOM     19  C   UNL     1      -4.330  13.959  13.831  0.00  0.00    +0.000 A 
ATOM     20  C   UNL     1      -5.086  13.260  14.775  0.00  0.00    +0.006 A 
ATOM     21  C   UNL     1      -2.423   9.081  14.762  0.00  0.00    +0.009 A 
ATOM     22  C   UNL     1      -2.519   7.844  15.408  0.00  0.00    +0.001 A 
ATOM     23  C   UNL     1      -3.564   7.578  16.307  0.00  0.00    +0.000 A 
ATOM     24  C   UNL     1      -4.535   8.543  16.580  0.00  0.00    +0.006 A 
ATOM     25  C   UNL     1      -4.682  11.976  15.111  0.00  0.00    -0.011 A 
ENDBRANCH  11  13
ENDBRANCH   7   9
ENDBRANCH   6   7
ENDBRANCH   2   6
ENDBRANCH   1   4
BRANCH   1  26
ATOM     26  C   UNL     1      -3.219  11.775  25.178  0.00  0.00    +0.163 C 
BRANCH  26  27
ATOM     27  O   UNL     1      -2.086  10.891  25.136  0.00  0.00    -0.388 OA
ATOM     28  H   UNL     1      -2.082  10.337  25.920  0.00  0.00    +0.210 HD
ENDBRANCH  26  27
BRANCH  26  29
ATOM     29  C   UNL     1      -3.575  12.144  26.629  0.00  0.00    +0.175 C 
BRANCH  29  30
ATOM     30  C   UNL     1      -3.365  10.968  27.593  0.00  0.00    +0.176 C 
ATOM     31  O   UNL     1      -4.001   9.795  27.013  0.00  0.00    -0.332 OA
ATOM     32  C   UNL     1      -3.811   8.542  27.750  0.00  0.00    +0.277 C 
ATOM     33  C   UNL     1      -4.261   8.707  29.222  0.00  0.00    +0.110 C 
ATOM     34  C   UNL     1      -3.635   9.959  29.872  0.00  0.00    +0.143 C 
ATOM     35  C   UNL     1      -3.890  11.204  29.021  0.00  0.00    +0.133 C 
BRANCH  35  36
ATOM     36  N   UNL     1      -3.215  12.374  29.606  0.00  0.00    -0.308 N 
ATOM     37  H   UNL     1      -2.205  12.383  29.608  0.00  0.00    +0.149 HD
ATOM     38  C   UNL     1      -3.851  13.423  30.134  0.00  0.00    +0.210 C 
ATOM     39  C   UNL     1      -5.390  13.366  30.139  0.00  0.00    +0.109 C 
ATOM     40  O   UNL     1      -3.260  14.396  30.603  0.00  0.00    -0.276 OA
ENDBRANCH  35  36
BRANCH  32  41
ATOM     41  C   UNL     1      -2.334   8.101  27.708  0.00  0.00    +0.414 C 
ATOM     42  O   UNL     1      -1.832   7.521  28.671  0.00  0.00    -0.240 OA
ATOM     43  O   UNL     1      -1.643   8.324  26.713  0.00  0.00    -0.240 OA
ENDBRANCH  32  41
BRANCH  34  44
ATOM     44  O   UNL     1      -4.192  10.156  31.173  0.00  0.00    -0.390 OA
ATOM     45  H   UNL     1      -5.150  10.126  31.119  0.00  0.00    +0.210 HD
ENDBRANCH  34  44
BRANCH  32  46
ATOM     46  O   UNL     1      -4.642   7.527  27.129  0.00  0.00    -0.343 OA
ATOM     47  C   UNL     1      -4.999   7.789  25.748  0.00  0.00    +0.198 C 
ENDBRANCH  32  46
ENDBRANCH  29  30
BRANCH  29  48
ATOM     48  O   UNL     1      -4.937  12.610  26.703  0.00  0.00    -0.387 OA
ATOM     49  H   UNL     1      -5.497  12.050  26.160  0.00  0.00    +0.210 HD
ENDBRANCH  29  48
ENDBRANCH  26  29
ENDBRANCH   1  26
TORSDOF 14
