REMARK VINA RESULT:    -5.638      0.000      0.000
REMARK INTER + INTRA:         -12.851
REMARK INTER:                  -9.256
REMARK INTRA:                  -3.595
REMARK UNBOUND:                -3.093
REMARK  Name = lig_assembled_80.pdb
REMARK  16 active torsions:
REMARK  status: ('A' for Active; 'I' for Inactive)
REMARK    1  A    between atoms: _2  and  _10
REMARK    2  A    between atoms: _5  and  _24
REMARK    3  A    between atoms: _7  and  _8
REMARK    4  A    between atoms: _7  and  _24
REMARK    5  A    between atoms: _20  and  _40
REMARK    6  A    between atoms: _22  and  _28
REMARK    7  A    between atoms: _23  and  _27
REMARK    8  A    between atoms: _27  and  _28
REMARK    9  A    between atoms: _30  and  _31
REMARK   10  A    between atoms: _32  and  _33
REMARK   11  A    between atoms: _34  and  _36
REMARK   12  A    between atoms: _36  and  _37
REMARK   13  A    between atoms: _36  and  _38
REMARK   14  A    between atoms: _38  and  _39
REMARK   15  A    between atoms: _38  and  _40
REMARK   16  A    between atoms: _41  and  _43
REMARK                            x       y       z     vdW  Elec       q    Type
REMARK                         _______ _______ _______ _____ _____    ______ ____
ROOT
ATOM      1  C   UNL     1      -5.908   7.993  22.610  0.00  0.00    +0.141 C 
ENDROOT
BRANCH   1   4
ATOM      2  C   UNL     1      -4.159   6.372  23.257  0.00  0.00    +0.401 C 
ATOM      3  O   UNL     1      -4.844   5.382  22.988  0.00  0.00    -0.226 OA
ATOM      4  N   UNL     1      -4.579   7.630  23.117  0.00  0.00    -0.279 N 
ATOM      5  H   UNL     1      -3.947   8.375  23.373  0.00  0.00    +0.152 HD
BRANCH   2   6
ATOM      6  O   UNL     1      -2.832   6.183  23.755  0.00  0.00    -0.444 OA
BRANCH   6   7
ATOM      7  C   UNL     1      -2.881   5.436  24.974  0.00  0.00    +0.292 C 
BRANCH   7   9
ATOM      8  N   UNL     1      -1.696   7.035  26.427  0.00  0.00    -0.131 NA
ATOM      9  C   UNL     1      -2.841   6.345  26.137  0.00  0.00    +0.120 A 
ATOM     10  C   UNL     1      -3.815   6.663  27.057  0.00  0.00    +0.138 A 
ATOM     11  N   UNL     1      -3.180   7.515  27.922  0.00  0.00    -0.239 N 
ATOM     12  N   UNL     1      -1.915   7.762  27.515  0.00  0.00    -0.065 NA
BRANCH  11  13
ATOM     13  C   UNL     1      -3.720   8.280  29.052  0.00  0.00    +0.195 C 
ATOM     14  C   UNL     1      -2.570   8.640  29.982  0.00  0.00    +0.041 C 
ATOM     15  C   UNL     1      -3.084   9.172  31.304  0.00  0.00    +0.039 C 
ATOM     16  C   UNL     1      -3.360  10.639  31.188  0.00  0.00    -0.026 A 
ATOM     17  C   UNL     1      -4.346  11.154  30.344  0.00  0.00    +0.037 A 
ATOM     18  C   UNL     1      -4.629  12.530  30.381  0.00  0.00    +0.023 A 
ATOM     19  C   UNL     1      -3.865  13.402  31.154  0.00  0.00    +0.002 A 
ATOM     20  C   UNL     1      -2.835  12.901  31.937  0.00  0.00    +0.000 A 
ATOM     21  N   UNL     1      -5.054  10.427  29.371  0.00  0.00    -0.284 N 
ATOM     22  H   UNL     1      -5.755  10.963  28.868  0.00  0.00    +0.155 HD
ATOM     23  C   UNL     1      -2.601  11.527  31.973  0.00  0.00    +0.005 A 
ATOM     24  C   UNL     1      -4.641   9.397  28.576  0.00  0.00    +0.242 C 
ATOM     25  O   UNL     1      -5.162   9.371  27.455  0.00  0.00    -0.273 OA
ENDBRANCH  11  13
ENDBRANCH   7   9
ENDBRANCH   6   7
ENDBRANCH   2   6
ENDBRANCH   1   4
BRANCH   1  26
ATOM     26  C   UNL     1      -6.639   8.939  23.557  0.00  0.00    +0.163 C 
BRANCH  26  27
ATOM     27  O   UNL     1      -6.113   8.806  24.888  0.00  0.00    -0.388 OA
ATOM     28  H   UNL     1      -6.128   9.660  25.325  0.00  0.00    +0.210 HD
ENDBRANCH  26  27
BRANCH  26  29
ATOM     29  C   UNL     1      -6.496  10.385  23.051  0.00  0.00    +0.175 C 
BRANCH  29  30
ATOM     30  C   UNL     1      -5.131  10.990  23.410  0.00  0.00    +0.176 C 
ATOM     31  O   UNL     1      -5.166  11.368  24.814  0.00  0.00    -0.332 OA
ATOM     32  C   UNL     1      -3.904  11.872  25.366  0.00  0.00    +0.277 C 
ATOM     33  C   UNL     1      -3.377  13.055  24.518  0.00  0.00    +0.110 C 
ATOM     34  C   UNL     1      -3.352  12.712  23.014  0.00  0.00    +0.143 C 
ATOM     35  C   UNL     1      -4.713  12.195  22.547  0.00  0.00    +0.133 C 
BRANCH  35  36
ATOM     36  N   UNL     1      -4.653  11.789  21.133  0.00  0.00    -0.308 N 
ATOM     37  H   UNL     1      -3.910  11.165  20.853  0.00  0.00    +0.149 HD
ATOM     38  C   UNL     1      -5.517  12.192  20.197  0.00  0.00    +0.210 C 
ATOM     39  C   UNL     1      -6.622  13.164  20.651  0.00  0.00    +0.109 C 
ATOM     40  O   UNL     1      -5.450  11.824  19.024  0.00  0.00    -0.276 OA
ENDBRANCH  35  36
BRANCH  32  41
ATOM     41  C   UNL     1      -2.841  10.755  25.409  0.00  0.00    +0.414 C 
ATOM     42  O   UNL     1      -1.747  10.960  25.932  0.00  0.00    -0.240 OA
ATOM     43  O   UNL     1      -3.078   9.649  24.921  0.00  0.00    -0.240 OA
ENDBRANCH  32  41
BRANCH  34  44
ATOM     44  O   UNL     1      -3.006  13.874  22.259  0.00  0.00    -0.390 OA
ATOM     45  H   UNL     1      -2.149  13.745  21.846  0.00  0.00    +0.210 HD
ENDBRANCH  34  44
BRANCH  32  46
ATOM     46  O   UNL     1      -4.163  12.352  26.710  0.00  0.00    -0.343 OA
ATOM     47  C   UNL     1      -5.422  13.051  26.879  0.00  0.00    +0.198 C 
ENDBRANCH  32  46
ENDBRANCH  29  30
BRANCH  29  48
ATOM     48  O   UNL     1      -7.558  11.203  23.580  0.00  0.00    -0.387 OA
ATOM     49  H   UNL     1      -7.285  12.124  23.576  0.00  0.00    +0.210 HD
ENDBRANCH  29  48
ENDBRANCH  26  29
ENDBRANCH   1  26
TORSDOF 14
