REMARK VINA RESULT:    -4.775      0.000      0.000
REMARK INTER + INTRA:         -12.150
REMARK INTER:                  -7.911
REMARK INTRA:                  -4.239
REMARK UNBOUND:                -3.048
REMARK  Name = lig_assembled_50.pdb
REMARK  20 active torsions:
REMARK  status: ('A' for Active; 'I' for Inactive)
REMARK    1  A    between atoms: _2  and  _9
REMARK    2  A    between atoms: _4  and  _17
REMARK    3  A    between atoms: _5  and  _10
REMARK    4  A    between atoms: _5  and  _11
REMARK    5  A    between atoms: _6  and  _7
REMARK    6  A    between atoms: _6  and  _17
REMARK    7  A    between atoms: _9  and  _10
REMARK    8  A    between atoms: _10  and  _12
REMARK    9  A    between atoms: _13  and  _33
REMARK   10  A    between atoms: _15  and  _21
REMARK   11  A    between atoms: _16  and  _20
REMARK   12  A    between atoms: _20  and  _21
REMARK   13  A    between atoms: _23  and  _24
REMARK   14  A    between atoms: _25  and  _26
REMARK   15  A    between atoms: _27  and  _29
REMARK   16  A    between atoms: _29  and  _30
REMARK   17  A    between atoms: _29  and  _31
REMARK   18  A    between atoms: _31  and  _32
REMARK   19  A    between atoms: _31  and  _33
REMARK   20  A    between atoms: _34  and  _36
REMARK                            x       y       z     vdW  Elec       q    Type
REMARK                         _______ _______ _______ _____ _____    ______ ____
ROOT
ATOM      1  C   UNL     1      -3.278  11.826  25.064  0.00  0.00    +0.163 C 
ENDROOT
BRANCH   1   2
ATOM      2  O   UNL     1      -2.106  10.999  24.978  0.00  0.00    -0.388 OA
ATOM      3  H   UNL     1      -1.846  10.718  25.859  0.00  0.00    +0.210 HD
ENDBRANCH   1   2
BRANCH   1   4
ATOM      4  C   UNL     1      -3.638  12.118  26.531  0.00  0.00    +0.175 C 
BRANCH   4   5
ATOM      5  C   UNL     1      -3.371  10.912  27.443  0.00  0.00    +0.176 C 
ATOM      6  O   UNL     1      -3.998   9.747  26.839  0.00  0.00    -0.332 OA
ATOM      7  C   UNL     1      -3.757   8.472  27.521  0.00  0.00    +0.277 C 
ATOM      8  C   UNL     1      -4.164   8.571  29.012  0.00  0.00    +0.110 C 
ATOM      9  C   UNL     1      -3.547   9.813  29.689  0.00  0.00    +0.143 C 
ATOM     10  C   UNL     1      -3.857  11.082  28.895  0.00  0.00    +0.133 C 
BRANCH  10  11
ATOM     11  N   UNL     1      -3.192  12.245  29.502  0.00  0.00    -0.308 N 
ATOM     12  H   UNL     1      -2.182  12.271  29.490  0.00  0.00    +0.149 HD
ATOM     13  C   UNL     1      -3.835  13.269  30.069  0.00  0.00    +0.210 C 
ATOM     14  C   UNL     1      -5.373  13.188  30.095  0.00  0.00    +0.109 C 
ATOM     15  O   UNL     1      -3.252  14.238  30.557  0.00  0.00    -0.276 OA
ENDBRANCH  10  11
BRANCH   7  16
ATOM     16  C   UNL     1      -2.271   8.069  27.418  0.00  0.00    +0.414 C 
ATOM     17  O   UNL     1      -1.635   8.301  26.391  0.00  0.00    -0.240 OA
ATOM     18  O   UNL     1      -1.709   7.511  28.362  0.00  0.00    -0.240 OA
ENDBRANCH   7  16
BRANCH   9  19
ATOM     19  O   UNL     1      -4.068   9.948  31.013  0.00  0.00    -0.390 OA
ATOM     20  H   UNL     1      -4.318  10.862  31.167  0.00  0.00    +0.210 HD
ENDBRANCH   9  19
BRANCH   7  21
ATOM     21  O   UNL     1      -4.582   7.461  26.888  0.00  0.00    -0.343 OA
ATOM     22  C   UNL     1      -5.941   7.874  26.597  0.00  0.00    +0.198 C 
ENDBRANCH   7  21
ENDBRANCH   4   5
BRANCH   4  23
ATOM     23  O   UNL     1      -5.019  12.522  26.632  0.00  0.00    -0.387 OA
ATOM     24  H   UNL     1      -5.345  12.768  25.763  0.00  0.00    +0.210 HD
ENDBRANCH   4  23
ENDBRANCH   1   4
BRANCH   1  25
ATOM     25  C   UNL     1      -3.046  13.139  24.325  0.00  0.00    +0.141 C 
BRANCH  25  28
ATOM     26  C   UNL     1      -5.032  13.509  22.902  0.00  0.00    +0.401 C 
ATOM     27  O   UNL     1      -5.767  13.814  23.844  0.00  0.00    -0.226 OA
ATOM     28  N   UNL     1      -3.748  13.173  23.036  0.00  0.00    -0.279 N 
ATOM     29  H   UNL     1      -3.230  12.929  22.204  0.00  0.00    +0.152 HD
BRANCH  26  30
ATOM     30  O   UNL     1      -5.568  13.504  21.576  0.00  0.00    -0.444 OA
BRANCH  30  31
ATOM     31  C   UNL     1      -6.632  12.551  21.495  0.00  0.00    +0.292 C 
BRANCH  31  33
ATOM     32  N   UNL     1      -5.290  10.705  20.527  0.00  0.00    -0.131 NA
ATOM     33  C   UNL     1      -6.097  11.176  21.534  0.00  0.00    +0.120 A 
ATOM     34  C   UNL     1      -6.259  10.185  22.480  0.00  0.00    +0.137 A 
ATOM     35  N   UNL     1      -5.538   9.144  21.989  0.00  0.00    -0.249 N 
ATOM     36  N   UNL     1      -4.943   9.463  20.825  0.00  0.00    -0.065 NA
BRANCH  35  37
ATOM     37  C   UNL     1      -5.371   7.823  22.552  0.00  0.00    +0.178 C 
BRANCH  37  38
ATOM     38  C   UNL     1      -3.976   7.562  23.131  0.00  0.00    +0.161 C 
BRANCH  38  39
ATOM     39  O   UNL     1      -3.593   8.536  24.106  0.00  0.00    -0.388 OA
ATOM     40  H   UNL     1      -2.734   8.923  23.839  0.00  0.00    +0.210 HD
ENDBRANCH  38  39
BRANCH  38  41
ATOM     41  C   UNL     1      -3.806   6.153  23.713  0.00  0.00    +0.189 C 
BRANCH  41  42
ATOM     42  O   UNL     1      -2.814   6.130  24.739  0.00  0.00    -0.392 OA
ATOM     43  H   UNL     1      -3.084   5.472  25.408  0.00  0.00    +0.210 HD
ENDBRANCH  41  42
ENDBRANCH  38  41
ENDBRANCH  37  38
ENDBRANCH  35  37
ENDBRANCH  31  33
ENDBRANCH  30  31
ENDBRANCH  26  30
ENDBRANCH  25  28
ENDBRANCH   1  25
TORSDOF 18
