REMARK VINA RESULT:    -4.770      0.000      0.000
REMARK INTER + INTRA:         -11.928
REMARK INTER:                  -9.264
REMARK INTRA:                  -2.664
REMARK UNBOUND:                -2.835
REMARK  Name = lig_assembled_13.pdb
REMARK  20 active torsions:
REMARK  status: ('A' for Active; 'I' for Inactive)
REMARK    1  A    between atoms: _2  and  _9
REMARK    2  A    between atoms: _4  and  _18
REMARK    3  A    between atoms: _5  and  _11
REMARK    4  A    between atoms: _6  and  _7
REMARK    5  A    between atoms: _6  and  _18
REMARK    6  A    between atoms: _9  and  _10
REMARK    7  A    between atoms: _10  and  _12
REMARK    8  A    between atoms: _11  and  _12
REMARK    9  A    between atoms: _14  and  _34
REMARK   10  A    between atoms: _16  and  _22
REMARK   11  A    between atoms: _17  and  _21
REMARK   12  A    between atoms: _21  and  _22
REMARK   13  A    between atoms: _24  and  _25
REMARK   14  A    between atoms: _26  and  _27
REMARK   15  A    between atoms: _28  and  _30
REMARK   16  A    between atoms: _30  and  _31
REMARK   17  A    between atoms: _30  and  _32
REMARK   18  A    between atoms: _32  and  _33
REMARK   19  A    between atoms: _32  and  _34
REMARK   20  A    between atoms: _35  and  _37
REMARK                            x       y       z     vdW  Elec       q    Type
REMARK                         _______ _______ _______ _____ _____    ______ ____
ROOT
ATOM      1  C   UNL     1      -1.906   9.739  27.356  0.00  0.00    +0.163 C 
ENDROOT
BRANCH   1   2
ATOM      2  O   UNL     1      -1.627   8.704  26.399  0.00  0.00    -0.388 OA
ATOM      3  H   UNL     1      -0.773   8.311  26.592  0.00  0.00    +0.210 HD
ENDBRANCH   1   2
BRANCH   1   4
ATOM      4  C   UNL     1      -2.809  10.825  26.744  0.00  0.00    +0.175 C 
BRANCH   4   5
ATOM      5  C   UNL     1      -3.838  10.238  25.768  0.00  0.00    +0.176 C 
ATOM      6  O   UNL     1      -3.198  10.108  24.468  0.00  0.00    -0.332 OA
ATOM      7  C   UNL     1      -4.002   9.461  23.427  0.00  0.00    +0.277 C 
ATOM      8  C   UNL     1      -5.364  10.182  23.270  0.00  0.00    +0.110 C 
ATOM      9  C   UNL     1      -6.068  10.371  24.630  0.00  0.00    +0.143 C 
ATOM     10  C   UNL     1      -5.140  11.049  25.638  0.00  0.00    +0.133 C 
BRANCH  10  11
ATOM     11  N   UNL     1      -5.792  11.146  26.954  0.00  0.00    -0.308 N 
ATOM     12  H   UNL     1      -6.002  10.285  27.441  0.00  0.00    +0.149 HD
ATOM     13  C   UNL     1      -6.124  12.295  27.548  0.00  0.00    +0.210 C 
ATOM     14  C   UNL     1      -5.814  13.588  26.769  0.00  0.00    +0.109 C 
ATOM     15  O   UNL     1      -6.655  12.346  28.657  0.00  0.00    -0.276 OA
ENDBRANCH  10  11
BRANCH   7  16
ATOM     16  C   UNL     1      -4.241   7.975  23.764  0.00  0.00    +0.414 C 
ATOM     17  O   UNL     1      -3.587   7.427  24.651  0.00  0.00    -0.240 OA
ATOM     18  O   UNL     1      -5.087   7.324  23.151  0.00  0.00    -0.240 OA
ENDBRANCH   7  16
BRANCH   7  19
ATOM     19  O   UNL     1      -3.281   9.567  22.172  0.00  0.00    -0.343 OA
ATOM     20  C   UNL     1      -3.353  10.867  21.533  0.00  0.00    +0.198 C 
ENDBRANCH   7  19
BRANCH   9  21
ATOM     21  O   UNL     1      -7.240  11.169  24.459  0.00  0.00    -0.390 OA
ATOM     22  H   UNL     1      -7.125  12.009  24.909  0.00  0.00    +0.210 HD
ENDBRANCH   9  21
ENDBRANCH   4   5
BRANCH   4  23
ATOM     23  O   UNL     1      -2.007  11.822  26.081  0.00  0.00    -0.387 OA
ATOM     24  H   UNL     1      -1.408  12.225  26.714  0.00  0.00    +0.210 HD
ENDBRANCH   4  23
ENDBRANCH   1   4
BRANCH   1  25
ATOM     25  C   UNL     1      -2.584   9.145  28.585  0.00  0.00    +0.141 C 
BRANCH  25  28
ATOM     26  C   UNL     1      -4.092  10.414  30.076  0.00  0.00    +0.401 C 
ATOM     27  O   UNL     1      -5.108   9.821  29.708  0.00  0.00    -0.226 OA
ATOM     28  N   UNL     1      -2.871  10.167  29.600  0.00  0.00    -0.279 N 
ATOM     29  H   UNL     1      -2.100  10.713  29.957  0.00  0.00    +0.152 HD
BRANCH  26  30
ATOM     30  O   UNL     1      -4.205  11.436  31.070  0.00  0.00    -0.444 OA
BRANCH  30  31
ATOM     31  C   UNL     1      -3.063  11.396  31.929  0.00  0.00    +0.292 C 
BRANCH  31  33
ATOM     32  N   UNL     1      -1.609  13.349  32.375  0.00  0.00    -0.131 NA
ATOM     33  C   UNL     1      -2.817  12.723  32.521  0.00  0.00    +0.120 A 
ATOM     34  C   UNL     1      -3.651  13.521  33.266  0.00  0.00    +0.137 A 
ATOM     35  N   UNL     1      -2.870  14.588  33.603  0.00  0.00    -0.241 N 
ATOM     36  N   UNL     1      -1.660  14.505  33.027  0.00  0.00    -0.065 NA
BRANCH  35  37
ATOM     37  C   UNL     1      -3.232  15.758  34.371  0.00  0.00    +0.265 C 
BRANCH  37  38
ATOM     38  C   UNL     1      -3.376  16.977  33.507  0.00  0.00    +0.329 C 
ATOM     39  O   UNL     1      -2.592  17.913  33.432  0.00  0.00    -0.249 OA
BRANCH  38  40
ATOM     40  O   UNL     1      -4.590  16.937  32.880  0.00  0.00    -0.464 OA
BRANCH  40  41
ATOM     41  C   UNL     1      -4.575  17.346  31.504  0.00  0.00    +0.229 C 
ATOM     42  C   UNL     1      -4.429  16.099  30.650  0.00  0.00    +0.048 C 
ENDBRANCH  40  41
ENDBRANCH  38  40
ENDBRANCH  37  38
ENDBRANCH  35  37
ENDBRANCH  31  33
ENDBRANCH  30  31
ENDBRANCH  26  30
ENDBRANCH  25  28
ENDBRANCH   1  25
TORSDOF 17
