REMARK VINA RESULT:    -4.862      0.000      0.000
REMARK INTER + INTRA:         -12.068
REMARK INTER:                  -7.428
REMARK INTRA:                  -4.640
REMARK UNBOUND:                -2.799
REMARK  Name = lig_assembled_55.pdb
REMARK  20 active torsions:
REMARK  status: ('A' for Active; 'I' for Inactive)
REMARK    1  A    between atoms: _2  and  _10
REMARK    2  A    between atoms: _3  and  _11
REMARK    3  A    between atoms: _3  and  _38
REMARK    4  A    between atoms: _5  and  _18
REMARK    5  A    between atoms: _6  and  _38
REMARK    6  A    between atoms: _7  and  _8
REMARK    7  A    between atoms: _7  and  _18
REMARK    8  A    between atoms: _10  and  _11
REMARK    9  A    between atoms: _14  and  _34
REMARK   10  A    between atoms: _16  and  _22
REMARK   11  A    between atoms: _17  and  _21
REMARK   12  A    between atoms: _21  and  _22
REMARK   13  A    between atoms: _24  and  _25
REMARK   14  A    between atoms: _26  and  _27
REMARK   15  A    between atoms: _28  and  _30
REMARK   16  A    between atoms: _30  and  _31
REMARK   17  A    between atoms: _30  and  _32
REMARK   18  A    between atoms: _32  and  _33
REMARK   19  A    between atoms: _32  and  _34
REMARK   20  A    between atoms: _35  and  _37
REMARK                            x       y       z     vdW  Elec       q    Type
REMARK                         _______ _______ _______ _____ _____    ______ ____
ROOT
ATOM      1  C   UNL     1      -3.306  11.811  25.015  0.00  0.00    +0.163 C 
ENDROOT
BRANCH   1   2
ATOM      2  O   UNL     1      -2.206  10.895  24.894  0.00  0.00    -0.388 OA
ATOM      3  H   UNL     1      -2.526   9.995  24.998  0.00  0.00    +0.210 HD
ENDBRANCH   1   2
BRANCH   1   4
ATOM      4  C   UNL     1      -3.624  12.097  26.493  0.00  0.00    +0.175 C 
BRANCH   4   5
ATOM      5  C   UNL     1      -3.375  10.871  27.384  0.00  0.00    +0.176 C 
ATOM      6  O   UNL     1      -4.004   9.723  26.753  0.00  0.00    -0.332 OA
ATOM      7  C   UNL     1      -3.779   8.434  27.413  0.00  0.00    +0.277 C 
ATOM      8  C   UNL     1      -4.199   8.508  28.902  0.00  0.00    +0.110 C 
ATOM      9  C   UNL     1      -3.579   9.732  29.608  0.00  0.00    +0.143 C 
ATOM     10  C   UNL     1      -3.872  11.018  28.835  0.00  0.00    +0.133 C 
BRANCH  10  11
ATOM     11  N   UNL     1      -3.203  12.165  29.470  0.00  0.00    -0.308 N 
ATOM     12  H   UNL     1      -2.193  12.177  29.477  0.00  0.00    +0.149 HD
ATOM     13  C   UNL     1      -3.844  13.190  30.037  0.00  0.00    +0.210 C 
ATOM     14  C   UNL     1      -5.383  13.129  30.033  0.00  0.00    +0.109 C 
ATOM     15  O   UNL     1      -3.258  14.144  30.549  0.00  0.00    -0.276 OA
ENDBRANCH  10  11
BRANCH   7  16
ATOM     16  C   UNL     1      -2.296   8.021  27.316  0.00  0.00    +0.414 C 
ATOM     17  O   UNL     1      -1.765   7.394  28.232  0.00  0.00    -0.240 OA
ATOM     18  O   UNL     1      -1.630   8.314  26.322  0.00  0.00    -0.240 OA
ENDBRANCH   7  16
BRANCH   7  19
ATOM     19  O   UNL     1      -4.607   7.441  26.754  0.00  0.00    -0.343 OA
ATOM     20  C   UNL     1      -5.805   7.064  27.478  0.00  0.00    +0.198 C 
ENDBRANCH   7  19
BRANCH   9  21
ATOM     21  O   UNL     1      -4.110   9.846  30.929  0.00  0.00    -0.390 OA
ATOM     22  H   UNL     1      -3.408  10.091  31.537  0.00  0.00    +0.210 HD
ENDBRANCH   9  21
ENDBRANCH   4   5
BRANCH   4  23
ATOM     23  O   UNL     1      -4.988  12.541  26.630  0.00  0.00    -0.387 OA
ATOM     24  H   UNL     1      -5.113  13.352  26.130  0.00  0.00    +0.210 HD
ENDBRANCH   4  23
ENDBRANCH   1   4
BRANCH   1  25
ATOM     25  C   UNL     1      -2.976  13.119  24.303  0.00  0.00    +0.141 C 
BRANCH  25  28
ATOM     26  C   UNL     1      -4.277  13.088  22.203  0.00  0.00    +0.401 C 
ATOM     27  O   UNL     1      -3.563  12.240  21.663  0.00  0.00    -0.226 OA
ATOM     28  N   UNL     1      -4.072  13.561  23.433  0.00  0.00    -0.279 N 
ATOM     29  H   UNL     1      -4.707  14.263  23.786  0.00  0.00    +0.152 HD
BRANCH  26  30
ATOM     30  O   UNL     1      -5.396  13.613  21.485  0.00  0.00    -0.444 OA
BRANCH  30  31
ATOM     31  C   UNL     1      -6.434  13.962  22.405  0.00  0.00    +0.292 C 
BRANCH  31  33
ATOM     32  N   UNL     1      -6.896  12.691  24.475  0.00  0.00    -0.131 NA
ATOM     33  C   UNL     1      -6.925  12.762  23.107  0.00  0.00    +0.120 A 
ATOM     34  C   UNL     1      -7.454  11.592  22.606  0.00  0.00    +0.137 A 
ATOM     35  N   UNL     1      -7.707  10.844  23.716  0.00  0.00    -0.250 N 
ATOM     36  N   UNL     1      -7.373  11.509  24.837  0.00  0.00    -0.065 NA
BRANCH  35  37
ATOM     37  C   UNL     1      -8.284   9.520  23.791  0.00  0.00    +0.162 C 
BRANCH  37  38
ATOM     38  C   UNL     1      -7.298   8.440  24.250  0.00  0.00    +0.129 C 
BRANCH  38  39
ATOM     39  N   UNL     1      -5.887   8.915  24.337  0.00  0.00    -0.193 NA
ATOM     40  H   UNL     1      -5.528   8.805  25.293  0.00  0.00    +0.148 HD
BRANCH  39  41
ATOM     41  S   UNL     1      -4.829   8.323  23.167  0.00  0.00    +0.027 S 
ATOM     42  O   UNL     1      -5.342   8.754  21.885  0.00  0.00    -0.158 OA
ATOM     43  O   UNL     1      -3.485   8.650  23.588  0.00  0.00    -0.158 OA
ATOM     44  C   UNL     1      -5.084   6.569  23.310  0.00  0.00    +0.214 C 
ENDBRANCH  39  41
ENDBRANCH  38  39
ENDBRANCH  37  38
ENDBRANCH  35  37
ENDBRANCH  31  33
ENDBRANCH  30  31
ENDBRANCH  26  30
ENDBRANCH  25  28
ENDBRANCH   1  25
TORSDOF 17
