REMARK VINA RESULT:    -4.879      0.000      0.000
REMARK INTER + INTRA:         -13.526
REMARK INTER:                 -10.242
REMARK INTRA:                  -3.283
REMARK UNBOUND:                -4.083
REMARK  Name = lig_assembled_83.pdb
REMARK  20 active torsions:
REMARK  status: ('A' for Active; 'I' for Inactive)
REMARK    1  A    between atoms: _2  and  _12
REMARK    2  A    between atoms: _3  and  _14
REMARK    3  A    between atoms: _7  and  _24
REMARK    4  A    between atoms: _9  and  _10
REMARK    5  A    between atoms: _9  and  _24
REMARK    6  A    between atoms: _12  and  _13
REMARK    7  A    between atoms: _13  and  _14
REMARK    8  A    between atoms: _13  and  _18
REMARK    9  A    between atoms: _20  and  _40
REMARK   10  A    between atoms: _22  and  _28
REMARK   11  A    between atoms: _23  and  _27
REMARK   12  A    between atoms: _27  and  _28
REMARK   13  A    between atoms: _30  and  _31
REMARK   14  A    between atoms: _32  and  _33
REMARK   15  A    between atoms: _34  and  _36
REMARK   16  A    between atoms: _36  and  _37
REMARK   17  A    between atoms: _36  and  _38
REMARK   18  A    between atoms: _38  and  _39
REMARK   19  A    between atoms: _38  and  _40
REMARK   20  A    between atoms: _41  and  _43
REMARK                            x       y       z     vdW  Elec       q    Type
REMARK                         _______ _______ _______ _____ _____    ______ ____
ROOT
ATOM      1  C   UNL     1      -3.400  13.182  24.020  0.00  0.00    +0.141 C 
ENDROOT
BRANCH   1   4
ATOM      2  C   UNL     1      -4.315  13.184  21.725  0.00  0.00    +0.401 C 
ATOM      3  O   UNL     1      -3.212  13.303  21.185  0.00  0.00    -0.226 OA
ATOM      4  N   UNL     1      -4.496  13.126  23.045  0.00  0.00    -0.279 N 
ATOM      5  H   UNL     1      -5.440  13.037  23.393  0.00  0.00    +0.152 HD
BRANCH   2   6
ATOM      6  O   UNL     1      -5.484  13.106  20.906  0.00  0.00    -0.444 OA
BRANCH   6   7
ATOM      7  C   UNL     1      -6.169  11.878  21.166  0.00  0.00    +0.292 C 
BRANCH   7   9
ATOM      8  N   UNL     1      -4.844   9.950  20.333  0.00  0.00    -0.131 NA
ATOM      9  C   UNL     1      -5.839  10.874  20.138  0.00  0.00    +0.120 A 
ATOM     10  C   UNL     1      -6.399  10.673  18.897  0.00  0.00    +0.137 A 
ATOM     11  N   UNL     1      -5.714   9.607  18.398  0.00  0.00    -0.249 N 
ATOM     12  N   UNL     1      -4.772   9.181  19.254  0.00  0.00    -0.065 NA
BRANCH  11  13
ATOM     13  C   UNL     1      -5.878   8.975  17.106  0.00  0.00    +0.178 C 
BRANCH  13  14
ATOM     14  C   UNL     1      -4.544   8.829  16.369  0.00  0.00    +0.156 C 
BRANCH  14  15
ATOM     15  O   UNL     1      -3.849   7.671  16.844  0.00  0.00    -0.388 OA
ATOM     16  H   UNL     1      -3.228   7.926  17.555  0.00  0.00    +0.210 HD
ENDBRANCH  14  15
BRANCH  14  17
ATOM     17  C   UNL     1      -4.776   8.727  14.853  0.00  0.00    +0.162 C 
BRANCH  17  18
ATOM     18  N   UNL     1      -3.795   9.480  14.087  0.00  0.00    -0.269 N 
ATOM     19  C   UNL     1      -3.867  10.841  13.893  0.00  0.00    +0.113 A 
ATOM     20  C   UNL     1      -2.754  11.168  13.155  0.00  0.00    +0.137 A 
ATOM     21  N   UNL     1      -2.018  10.051  12.864  0.00  0.00    -0.172 NA
ATOM     22  C   UNL     1      -2.661   9.052  13.440  0.00  0.00    +0.450 A 
ATOM     23  N   UNL     1      -2.189   7.687  13.376  0.00  0.00    +0.120 N 
ATOM     24  O   UNL     1      -2.863   6.817  13.951  0.00  0.00    +0.045 OA
ATOM     25  O   UNL     1      -1.150   7.471  12.740  0.00  0.00    -0.573 OA
ENDBRANCH  17  18
ENDBRANCH  14  17
ENDBRANCH  13  14
ENDBRANCH  11  13
ENDBRANCH   7   9
ENDBRANCH   6   7
ENDBRANCH   2   6
ENDBRANCH   1   4
BRANCH   1  26
ATOM     26  C   UNL     1      -2.827  11.800  24.313  0.00  0.00    +0.163 C 
BRANCH  26  27
ATOM     27  O   UNL     1      -2.041  11.838  25.515  0.00  0.00    -0.388 OA
ATOM     28  H   UNL     1      -1.335  12.481  25.416  0.00  0.00    +0.210 HD
ENDBRANCH  26  27
BRANCH  26  29
ATOM     29  C   UNL     1      -3.975  10.784  24.439  0.00  0.00    +0.175 C 
BRANCH  29  30
ATOM     30  C   UNL     1      -3.878   9.959  25.730  0.00  0.00    +0.176 C 
ATOM     31  O   UNL     1      -2.915   8.893  25.509  0.00  0.00    -0.332 OA
ATOM     32  C   UNL     1      -2.611   8.060  26.677  0.00  0.00    +0.277 C 
ATOM     33  C   UNL     1      -3.913   7.473  27.276  0.00  0.00    +0.110 C 
ATOM     34  C   UNL     1      -4.980   8.565  27.499  0.00  0.00    +0.143 C 
ATOM     35  C   UNL     1      -5.215   9.372  26.222  0.00  0.00    +0.133 C 
BRANCH  35  36
ATOM     36  N   UNL     1      -6.169  10.465  26.471  0.00  0.00    -0.308 N 
ATOM     37  H   UNL     1      -5.920  11.160  27.161  0.00  0.00    +0.149 HD
ATOM     38  C   UNL     1      -7.341  10.597  25.846  0.00  0.00    +0.210 C 
ATOM     39  C   UNL     1      -7.702   9.506  24.819  0.00  0.00    +0.109 C 
ATOM     40  O   UNL     1      -8.114  11.530  26.064  0.00  0.00    -0.276 OA
ENDBRANCH  35  36
BRANCH  32  41
ATOM     41  C   UNL     1      -1.871   8.879  27.755  0.00  0.00    +0.414 C 
ATOM     42  O   UNL     1      -1.054   9.739  27.428  0.00  0.00    -0.240 OA
ATOM     43  O   UNL     1      -2.090   8.679  28.950  0.00  0.00    -0.240 OA
ENDBRANCH  32  41
BRANCH  32  44
ATOM     44  O   UNL     1      -1.773   6.960  26.238  0.00  0.00    -0.343 OA
ATOM     45  C   UNL     1      -2.479   5.876  25.582  0.00  0.00    +0.198 C 
ENDBRANCH  32  44
BRANCH  34  46
ATOM     46  O   UNL     1      -6.208   7.962  27.907  0.00  0.00    -0.390 OA
ATOM     47  H   UNL     1      -6.894   8.632  27.955  0.00  0.00    +0.210 HD
ENDBRANCH  34  46
ENDBRANCH  29  30
BRANCH  29  48
ATOM     48  O   UNL     1      -3.993   9.910  23.292  0.00  0.00    -0.387 OA
ATOM     49  H   UNL     1      -3.093   9.683  23.048  0.00  0.00    +0.210 HD
ENDBRANCH  29  48
ENDBRANCH  26  29
ENDBRANCH   1  26
TORSDOF 18
