REMARK VINA RESULT:    -5.443      0.000      0.000
REMARK INTER + INTRA:         -11.708
REMARK INTER:                  -9.080
REMARK INTRA:                  -2.627
REMARK UNBOUND:                -2.287
REMARK  Name = lig_assembled_52.pdb
REMARK  16 active torsions:
REMARK  status: ('A' for Active; 'I' for Inactive)
REMARK    1  A    between atoms: _2  and  _10
REMARK    2  A    between atoms: _5  and  _18
REMARK    3  A    between atoms: _7  and  _8
REMARK    4  A    between atoms: _7  and  _18
REMARK    5  A    between atoms: _14  and  _34
REMARK    6  A    between atoms: _16  and  _22
REMARK    7  A    between atoms: _17  and  _21
REMARK    8  A    between atoms: _21  and  _22
REMARK    9  A    between atoms: _24  and  _25
REMARK   10  A    between atoms: _26  and  _27
REMARK   11  A    between atoms: _28  and  _30
REMARK   12  A    between atoms: _30  and  _31
REMARK   13  A    between atoms: _30  and  _32
REMARK   14  A    between atoms: _32  and  _33
REMARK   15  A    between atoms: _32  and  _34
REMARK   16  A    between atoms: _35  and  _37
REMARK                            x       y       z     vdW  Elec       q    Type
REMARK                         _______ _______ _______ _____ _____    ______ ____
ROOT
ATOM      1  C   UNL     1      -2.322   9.724  26.974  0.00  0.00    +0.163 C 
ENDROOT
BRANCH   1   2
ATOM      2  O   UNL     1      -1.136   9.896  26.180  0.00  0.00    -0.388 OA
ATOM      3  H   UNL     1      -0.613   9.092  26.207  0.00  0.00    +0.210 HD
ENDBRANCH   1   2
BRANCH   1   4
ATOM      4  C   UNL     1      -1.950   9.211  28.362  0.00  0.00    +0.141 C 
BRANCH   4   7
ATOM      5  C   UNL     1      -3.475   9.441  30.292  0.00  0.00    +0.401 C 
ATOM      6  O   UNL     1      -3.811   8.254  30.287  0.00  0.00    -0.226 OA
ATOM      7  N   UNL     1      -2.615   9.975  29.424  0.00  0.00    -0.279 N 
ATOM      8  H   UNL     1      -2.410  10.961  29.502  0.00  0.00    +0.152 HD
BRANCH   5   9
ATOM      9  O   UNL     1      -4.033  10.316  31.275  0.00  0.00    -0.444 OA
BRANCH   9  10
ATOM     10  C   UNL     1      -3.003  10.748  32.169  0.00  0.00    +0.292 C 
BRANCH  10  12
ATOM     11  N   UNL     1      -1.728  12.852  32.431  0.00  0.00    -0.131 NA
ATOM     12  C   UNL     1      -2.910  12.220  32.169  0.00  0.00    +0.121 A 
ATOM     13  C   UNL     1      -3.879  13.166  31.928  0.00  0.00    +0.143 A 
ATOM     14  N   UNL     1      -3.232  14.376  32.035  0.00  0.00    -0.218 N 
ATOM     15  N   UNL     1      -1.933  14.160  32.352  0.00  0.00    -0.060 NA
BRANCH  14  16
ATOM     16  C   UNL     1      -3.751  15.674  31.846  0.00  0.00    +0.085 A 
ATOM     17  C   UNL     1      -4.392  16.050  30.663  0.00  0.00    +0.031 A 
ATOM     18  C   UNL     1      -4.864  17.354  30.529  0.00  0.00    +0.022 A 
ATOM     19  C   UNL     1      -4.681  18.235  31.582  0.00  0.00    +0.111 A 
ATOM     20  N   UNL     1      -4.074  17.900  32.740  0.00  0.00    -0.261 NA
ATOM     21  C   UNL     1      -3.620  16.627  32.850  0.00  0.00    +0.138 A 
ENDBRANCH  14  16
ENDBRANCH  10  12
ENDBRANCH   9  10
ENDBRANCH   5   9
ENDBRANCH   4   7
ENDBRANCH   1   4
BRANCH   1  22
ATOM     22  C   UNL     1      -3.293   8.736  26.305  0.00  0.00    +0.175 C 
BRANCH  22  23
ATOM     23  C   UNL     1      -4.136   9.407  25.210  0.00  0.00    +0.176 C 
ATOM     24  O   UNL     1      -3.259   9.700  24.088  0.00  0.00    -0.332 OA
ATOM     25  C   UNL     1      -3.914  10.251  22.898  0.00  0.00    +0.277 C 
ATOM     26  C   UNL     1      -4.732  11.513  23.267  0.00  0.00    +0.110 C 
ATOM     27  C   UNL     1      -5.657  11.259  24.476  0.00  0.00    +0.143 C 
ATOM     28  C   UNL     1      -4.873  10.684  25.655  0.00  0.00    +0.133 C 
BRANCH  28  29
ATOM     29  N   UNL     1      -5.779  10.365  26.770  0.00  0.00    -0.308 N 
ATOM     30  H   UNL     1      -6.399   9.575  26.663  0.00  0.00    +0.149 HD
ATOM     31  C   UNL     1      -5.835  11.052  27.915  0.00  0.00    +0.210 C 
ATOM     32  C   UNL     1      -4.895  12.266  28.037  0.00  0.00    +0.109 C 
ATOM     33  O   UNL     1      -6.593  10.752  28.837  0.00  0.00    -0.276 OA
ENDBRANCH  28  29
BRANCH  25  34
ATOM     34  C   UNL     1      -4.845   9.204  22.252  0.00  0.00    +0.414 C 
ATOM     35  O   UNL     1      -5.912   9.550  21.748  0.00  0.00    -0.240 OA
ATOM     36  O   UNL     1      -4.528   8.014  22.234  0.00  0.00    -0.240 OA
ENDBRANCH  25  34
BRANCH  27  37
ATOM     37  O   UNL     1      -6.276  12.483  24.874  0.00  0.00    -0.390 OA
ATOM     38  H   UNL     1      -5.600  13.126  25.100  0.00  0.00    +0.210 HD
ENDBRANCH  27  37
BRANCH  25  39
ATOM     39  O   UNL     1      -2.882  10.636  21.954  0.00  0.00    -0.343 OA
ATOM     40  C   UNL     1      -3.143  11.862  21.226  0.00  0.00    +0.198 C 
ENDBRANCH  25  39
ENDBRANCH  22  23
BRANCH  22  41
ATOM     41  O   UNL     1      -4.152   8.137  27.296  0.00  0.00    -0.387 OA
ATOM     42  H   UNL     1      -4.078   7.181  27.248  0.00  0.00    +0.210 HD
ENDBRANCH  22  41
ENDBRANCH   1  22
TORSDOF 14
