REMARK VINA RESULT:    -5.992      0.000      0.000
REMARK INTER + INTRA:         -13.700
REMARK INTER:                 -10.838
REMARK INTRA:                  -2.862
REMARK UNBOUND:                -2.453
REMARK  Name = lig_assembled_75.pdb
REMARK  19 active torsions:
REMARK  status: ('A' for Active; 'I' for Inactive)
REMARK    1  A    between atoms: _2  and  _9
REMARK    2  A    between atoms: _4  and  _23
REMARK    3  A    between atoms: _6  and  _7
REMARK    4  A    between atoms: _6  and  _23
REMARK    5  A    between atoms: _11  and  _12
REMARK    6  A    between atoms: _13  and  _14
REMARK    7  A    between atoms: _14  and  _17
REMARK    8  A    between atoms: _19  and  _39
REMARK    9  A    between atoms: _21  and  _27
REMARK   10  A    between atoms: _22  and  _26
REMARK   11  A    between atoms: _26  and  _27
REMARK   12  A    between atoms: _29  and  _30
REMARK   13  A    between atoms: _31  and  _32
REMARK   14  A    between atoms: _33  and  _35
REMARK   15  A    between atoms: _35  and  _36
REMARK   16  A    between atoms: _35  and  _37
REMARK   17  A    between atoms: _37  and  _38
REMARK   18  A    between atoms: _37  and  _39
REMARK   19  A    between atoms: _40  and  _42
REMARK                            x       y       z     vdW  Elec       q    Type
REMARK                         _______ _______ _______ _____ _____    ______ ____
ROOT
ATOM      1  C   UNL     1      -3.718  13.102  24.405  0.00  0.00    +0.141 C 
ENDROOT
BRANCH   1   4
ATOM      2  C   UNL     1      -5.292  13.530  22.549  0.00  0.00    +0.401 C 
ATOM      3  O   UNL     1      -4.465  14.133  21.862  0.00  0.00    -0.226 OA
ATOM      4  N   UNL     1      -5.031  13.020  23.753  0.00  0.00    -0.279 N 
ATOM      5  H   UNL     1      -5.778  12.551  24.245  0.00  0.00    +0.152 HD
BRANCH   2   6
ATOM      6  O   UNL     1      -6.620  13.359  22.047  0.00  0.00    -0.444 OA
BRANCH   6   7
ATOM      7  C   UNL     1      -6.889  11.966  21.870  0.00  0.00    +0.292 C 
BRANCH   7   9
ATOM      8  N   UNL     1      -5.398  10.268  20.864  0.00  0.00    -0.131 NA
ATOM      9  C   UNL     1      -6.103  11.430  20.743  0.00  0.00    +0.121 A 
ATOM     10  C   UNL     1      -5.930  11.932  19.474  0.00  0.00    +0.143 A 
ATOM     11  N   UNL     1      -5.100  11.033  18.845  0.00  0.00    -0.220 N 
ATOM     12  N   UNL     1      -4.790  10.033  19.709  0.00  0.00    -0.060 NA
BRANCH  11  13
ATOM     13  C   UNL     1      -4.576  11.074  17.528  0.00  0.00    +0.068 A 
ATOM     14  C   UNL     1      -4.158   9.880  16.916  0.00  0.00    +0.035 A 
ATOM     15  C   UNL     1      -3.573   9.893  15.641  0.00  0.00    -0.023 A 
ATOM     16  C   UNL     1      -3.472  11.112  14.960  0.00  0.00    +0.008 A 
ATOM     17  C   UNL     1      -3.907  12.299  15.554  0.00  0.00    +0.003 A 
ATOM     18  C   UNL     1      -4.449  12.285  16.838  0.00  0.00    +0.028 A 
BRANCH  15  19
ATOM     19  C   UNL     1      -3.081   8.671  14.985  0.00  0.00    +0.015 C 
ATOM     20  C   UNL     1      -2.008   8.638  14.179  0.00  0.00    +0.092 C 
BRANCH  20  21
ATOM     21  C   UNL     1      -1.625   7.373  13.524  0.00  0.00    +0.330 C 
ATOM     22  O   UNL     1      -1.119   7.288  12.420  0.00  0.00    -0.246 OA
BRANCH  21  23
ATOM     23  O   UNL     1      -1.888   6.303  14.302  0.00  0.00    -0.478 OA
ATOM     24  H   UNL     1      -2.640   5.753  14.021  0.00  0.00    +0.295 HD
ENDBRANCH  21  23
ENDBRANCH  20  21
ENDBRANCH  15  19
ENDBRANCH  11  13
ENDBRANCH   7   9
ENDBRANCH   6   7
ENDBRANCH   2   6
ENDBRANCH   1   4
BRANCH   1  25
ATOM     25  C   UNL     1      -2.908  11.824  24.215  0.00  0.00    +0.163 C 
BRANCH  25  26
ATOM     26  O   UNL     1      -1.951  11.686  25.278  0.00  0.00    -0.388 OA
ATOM     27  H   UNL     1      -1.301  11.020  25.040  0.00  0.00    +0.210 HD
ENDBRANCH  25  26
BRANCH  25  28
ATOM     28  C   UNL     1      -3.858  10.615  24.169  0.00  0.00    +0.175 C 
BRANCH  28  29
ATOM     29  C   UNL     1      -3.842   9.817  25.482  0.00  0.00    +0.176 C 
ATOM     30  O   UNL     1      -2.827   8.782  25.362  0.00  0.00    -0.332 OA
ATOM     31  C   UNL     1      -2.594   7.982  26.568  0.00  0.00    +0.277 C 
ATOM     32  C   UNL     1      -3.920   7.359  27.069  0.00  0.00    +0.110 C 
ATOM     33  C   UNL     1      -5.039   8.416  27.181  0.00  0.00    +0.143 C 
ATOM     34  C   UNL     1      -5.194   9.192  25.873  0.00  0.00    +0.133 C 
BRANCH  34  35
ATOM     35  N   UNL     1      -6.202  10.254  26.020  0.00  0.00    -0.308 N 
ATOM     36  H   UNL     1      -6.047  10.956  26.730  0.00  0.00    +0.149 HD
ATOM     37  C   UNL     1      -7.307  10.351  25.276  0.00  0.00    +0.210 C 
ATOM     38  C   UNL     1      -7.526   9.251  24.220  0.00  0.00    +0.109 C 
ATOM     39  O   UNL     1      -8.127  11.259  25.412  0.00  0.00    -0.276 OA
ENDBRANCH  34  35
BRANCH  31  40
ATOM     40  C   UNL     1      -1.974   8.845  27.687  0.00  0.00    +0.414 C 
ATOM     41  O   UNL     1      -1.219   9.775  27.406  0.00  0.00    -0.240 OA
ATOM     42  O   UNL     1      -2.230   8.612  28.869  0.00  0.00    -0.240 OA
ENDBRANCH  31  40
BRANCH  31  43
ATOM     43  O   UNL     1      -1.685   6.905  26.223  0.00  0.00    -0.343 OA
ATOM     44  C   UNL     1      -2.165   5.573  26.538  0.00  0.00    +0.198 C 
ENDBRANCH  31  43
BRANCH  33  45
ATOM     45  O   UNL     1      -6.276   7.777  27.499  0.00  0.00    -0.390 OA
ATOM     46  H   UNL     1      -6.300   7.574  28.437  0.00  0.00    +0.210 HD
ENDBRANCH  33  45
ENDBRANCH  28  29
BRANCH  28  47
ATOM     47  O   UNL     1      -3.518   9.757  23.062  0.00  0.00    -0.387 OA
ATOM     48  H   UNL     1      -2.655  10.002  22.720  0.00  0.00    +0.210 HD
ENDBRANCH  28  47
ENDBRANCH  25  28
ENDBRANCH   1  25
TORSDOF 17
