REMARK VINA RESULT:    -5.431      0.000      0.000
REMARK INTER + INTRA:         -11.814
REMARK INTER:                  -8.277
REMARK INTRA:                  -3.537
REMARK UNBOUND:                -1.779
REMARK  Name = lig_assembled_14.pdb
REMARK  18 active torsions:
REMARK  status: ('A' for Active; 'I' for Inactive)
REMARK    1  A    between atoms: _2  and  _10
REMARK    2  A    between atoms: _3  and  _11
REMARK    3  A    between atoms: _5  and  _19
REMARK    4  A    between atoms: _7  and  _8
REMARK    5  A    between atoms: _7  and  _19
REMARK    6  A    between atoms: _10  and  _11
REMARK    7  A    between atoms: _15  and  _35
REMARK    8  A    between atoms: _17  and  _23
REMARK    9  A    between atoms: _18  and  _22
REMARK   10  A    between atoms: _22  and  _23
REMARK   11  A    between atoms: _25  and  _26
REMARK   12  A    between atoms: _27  and  _28
REMARK   13  A    between atoms: _29  and  _31
REMARK   14  A    between atoms: _31  and  _32
REMARK   15  A    between atoms: _31  and  _33
REMARK   16  A    between atoms: _33  and  _34
REMARK   17  A    between atoms: _33  and  _35
REMARK   18  A    between atoms: _36  and  _38
REMARK                            x       y       z     vdW  Elec       q    Type
REMARK                         _______ _______ _______ _____ _____    ______ ____
ROOT
ATOM      1  C   UNL     1      -6.782   8.591  23.934  0.00  0.00    +0.163 C 
ENDROOT
BRANCH   1   2
ATOM      2  O   UNL     1      -6.070   8.695  25.178  0.00  0.00    -0.388 OA
ATOM      3  H   UNL     1      -6.566   9.249  25.786  0.00  0.00    +0.210 HD
ENDBRANCH   1   2
BRANCH   1   4
ATOM      4  C   UNL     1      -6.556   9.839  23.065  0.00  0.00    +0.175 C 
BRANCH   4   5
ATOM      5  C   UNL     1      -5.204  10.509  23.356  0.00  0.00    +0.176 C 
ATOM      6  O   UNL     1      -5.400  11.459  24.438  0.00  0.00    -0.332 OA
ATOM      7  C   UNL     1      -4.188  12.123  24.927  0.00  0.00    +0.277 C 
ATOM      8  C   UNL     1      -3.438  12.808  23.758  0.00  0.00    +0.110 C 
ATOM      9  C   UNL     1      -3.234  11.844  22.570  0.00  0.00    +0.143 C 
ATOM     10  C   UNL     1      -4.558  11.208  22.146  0.00  0.00    +0.133 C 
BRANCH  10  11
ATOM     11  N   UNL     1      -4.338  10.228  21.071  0.00  0.00    -0.308 N 
ATOM     12  H   UNL     1      -3.755   9.428  21.274  0.00  0.00    +0.149 HD
ATOM     13  C   UNL     1      -4.858  10.326  19.844  0.00  0.00    +0.210 C 
ATOM     14  C   UNL     1      -5.721  11.570  19.558  0.00  0.00    +0.109 C 
ATOM     15  O   UNL     1      -4.668   9.482  18.968  0.00  0.00    -0.276 OA
ENDBRANCH  10  11
BRANCH   7  16
ATOM     16  C   UNL     1      -3.251  11.110  25.618  0.00  0.00    +0.414 C 
ATOM     17  O   UNL     1      -3.631   9.960  25.832  0.00  0.00    -0.240 OA
ATOM     18  O   UNL     1      -2.116  11.443  25.961  0.00  0.00    -0.240 OA
ENDBRANCH   7  16
BRANCH   9  19
ATOM     19  O   UNL     1      -2.677  12.556  21.463  0.00  0.00    -0.390 OA
ATOM     20  H   UNL     1      -2.118  11.966  20.952  0.00  0.00    +0.210 HD
ENDBRANCH   9  19
BRANCH   7  21
ATOM     21  O   UNL     1      -4.587  13.145  25.876  0.00  0.00    -0.343 OA
ATOM     22  C   UNL     1      -5.790  13.873  25.522  0.00  0.00    +0.198 C 
ENDBRANCH   7  21
ENDBRANCH   4   5
BRANCH   4  23
ATOM     23  O   UNL     1      -7.629  10.782  23.259  0.00  0.00    -0.387 OA
ATOM     24  H   UNL     1      -7.735  11.314  22.467  0.00  0.00    +0.210 HD
ENDBRANCH   4  23
ENDBRANCH   1   4
BRANCH   1  25
ATOM     25  C   UNL     1      -6.326   7.350  23.174  0.00  0.00    +0.141 C 
BRANCH  25  28
ATOM     26  C   UNL     1      -3.896   6.949  23.377  0.00  0.00    +0.401 C 
ATOM     27  O   UNL     1      -3.601   7.678  22.427  0.00  0.00    -0.226 OA
ATOM     28  N   UNL     1      -5.145   6.733  23.791  0.00  0.00    -0.279 N 
ATOM     29  H   UNL     1      -5.287   6.111  24.575  0.00  0.00    +0.152 HD
BRANCH  26  30
ATOM     30  O   UNL     1      -2.852   6.280  24.090  0.00  0.00    -0.444 OA
BRANCH  30  31
ATOM     31  C   UNL     1      -3.373   5.746  25.310  0.00  0.00    +0.292 C 
BRANCH  31  33
ATOM     32  N   UNL     1      -1.785   7.189  26.543  0.00  0.00    -0.131 NA
ATOM     33  C   UNL     1      -3.029   6.623  26.444  0.00  0.00    +0.120 A 
ATOM     34  C   UNL     1      -3.787   7.008  27.528  0.00  0.00    +0.137 A 
ATOM     35  N   UNL     1      -2.943   7.794  28.252  0.00  0.00    -0.250 N 
ATOM     36  N   UNL     1      -1.744   7.908  27.654  0.00  0.00    -0.065 NA
BRANCH  35  37
ATOM     37  C   UNL     1      -3.181   8.419  29.536  0.00  0.00    +0.160 C 
BRANCH  37  38
ATOM     38  C   UNL     1      -2.807   9.906  29.525  0.00  0.00    +0.107 C 
BRANCH  38  39
ATOM     39  N   UNL     1      -3.870  10.762  28.969  0.00  0.00    -0.301 NA
ATOM     40  C   UNL     1      -5.212  10.375  29.414  0.00  0.00    +0.084 C 
ATOM     41  C   UNL     1      -6.036  11.601  29.075  0.00  0.00    +0.017 C 
ATOM     42  C   UNL     1      -5.109  12.760  29.392  0.00  0.00    +0.017 C 
ATOM     43  C   UNL     1      -3.704  12.167  29.372  0.00  0.00    +0.084 C 
ENDBRANCH  38  39
ENDBRANCH  37  38
ENDBRANCH  35  37
ENDBRANCH  31  33
ENDBRANCH  30  31
ENDBRANCH  26  30
ENDBRANCH  25  28
ENDBRANCH   1  25
TORSDOF 16
