REMARK VINA RESULT:    -4.200      1.663      2.198
REMARK INTER + INTRA:         -14.759
REMARK INTER:                  -8.288
REMARK INTRA:                  -6.470
REMARK UNBOUND:                -6.753
REMARK SMILES COCC(C(N)=O)n1cc(COC(=O)NC[C@@H](O)C(O)[C@@H]2O[C@@](O)(C(=O)O)C[C@H](O)[C@H]2NC(C)=O)nn1
REMARK SMILES IDX 15 1 13 2 14 3 16 5 17 6 19 7 21 8 23 9 28 10 22 11 29 12
REMARK SMILES IDX 31 13 24 14 25 16 26 17 27 18 30 20 32 22 33 23 34 25 35 26
REMARK SMILES IDX 20 27 18 29 12 31 11 32 10 33 9 34 36 35 8 36 37 37 4 38
REMARK SMILES IDX 3 39 2 40 1 41 5 42 7 43 6 44
REMARK H PARENT 15 4 24 15 27 19 30 21 32 24 20 28 18 30 6 45 6 46
REMARK Flexibility Score: inf
ROOT
ATOM      1  N   UNL     1      26.890  28.726  17.036  1.00  0.00    -0.319 N 
ATOM      2  C   UNL     1      26.068  29.612  16.310  1.00  0.00     0.407 C 
ATOM      3  O   UNL     1      24.822  29.619  16.437  1.00  0.00    -0.225 OA
ATOM      4  H   UNL     1      27.925  28.800  16.864  1.00  0.00     0.167 HD
ENDROOT
BRANCH   1   5
ATOM      5  C   UNL     1      26.451  27.747  17.970  1.00  0.00     0.154 C 
BRANCH   5   6
ATOM      6  C   UNL     1      27.129  27.700  19.289  1.00  0.00     0.165 C 
BRANCH   6   7
ATOM      7  C   UNL     1      27.430  29.072  19.852  1.00  0.00     0.176 C 
BRANCH   7   8
ATOM      8  C   UNL     1      28.884  29.396  19.978  1.00  0.00     0.178 C 
ATOM      9  C   UNL     1      30.711  28.828  21.279  1.00  0.00     0.269 C 
ATOM     10  C   UNL     1      31.359  29.621  20.175  1.00  0.00     0.112 C 
ATOM     11  O   UNL     1      29.348  28.673  21.098  1.00  0.00    -0.332 OA
ATOM     12  C   UNL     1      30.737  30.952  19.945  1.00  0.00     0.145 C 
ATOM     13  C   UNL     1      29.228  30.827  20.209  1.00  0.00     0.142 C 
BRANCH   9  14
ATOM     14  O   UNL     1      31.035  29.407  22.494  1.00  0.00    -0.357 OA
ATOM     15  H   UNL     1      30.595  30.280  22.644  1.00  0.00     0.214 HD
ENDBRANCH   9  14
BRANCH   9  16
ATOM     16  C   UNL     1      31.316  27.469  21.258  1.00  0.00     0.364 C 
ATOM     17  O   UNL     1      31.281  26.708  22.264  1.00  0.00    -0.246 OA
BRANCH  16  18
ATOM     18  O   UNL     1      31.957  26.960  20.123  1.00  0.00    -0.477 OA
ATOM     19  H   UNL     1      31.568  26.192  19.593  1.00  0.00     0.296 HD
ENDBRANCH  16  18
ENDBRANCH   9  16
BRANCH  12  20
ATOM     20  O   UNL     1      31.287  31.961  20.733  1.00  0.00    -0.391 OA
ATOM     21  H   UNL     1      31.227  31.647  21.677  1.00  0.00     0.211 HD
ENDBRANCH  12  20
BRANCH  13  22
ATOM     22  N   UNL     1      28.605  31.796  19.375  1.00  0.00    -0.348 N 
ATOM     23  C   UNL     1      28.277  33.127  19.834  1.00  0.00     0.217 C 
ATOM     24  H   UNL     1      28.356  31.614  18.380  1.00  0.00     0.163 HD
ATOM     25  C   UNL     1      27.628  34.103  18.929  1.00  0.00     0.114 C 
ATOM     26  O   UNL     1      28.541  33.456  20.997  1.00  0.00    -0.275 OA
ENDBRANCH  13  22
ENDBRANCH   7   8
BRANCH   7  27
ATOM     27  O   UNL     1      26.957  28.993  21.199  1.00  0.00    -0.388 OA
ATOM     28  H   UNL     1      26.009  29.198  21.248  1.00  0.00     0.211 HD
ENDBRANCH   7  27
ENDBRANCH   6   7
BRANCH   6  29
ATOM     29  O   UNL     1      28.357  27.054  19.174  1.00  0.00    -0.388 OA
ATOM     30  H   UNL     1      28.891  27.471  18.457  1.00  0.00     0.211 HD
ENDBRANCH   6  29
ENDBRANCH   5   6
ENDBRANCH   1   5
BRANCH   2  31
ATOM     31  O   UNL     1      26.615  30.526  15.414  1.00  0.00    -0.443 OA
BRANCH  31  32
ATOM     32  C   UNL     1      26.957  31.830  15.806  1.00  0.00     0.294 C 
BRANCH  32  33
ATOM     33  C   UNL     1      28.417  31.971  15.950  1.00  0.00     0.120 A 
ATOM     34  C   UNL     1      29.208  33.024  15.532  1.00  0.00     0.139 A 
ATOM     35  N   UNL     1      29.227  31.059  16.529  1.00  0.00    -0.132 NA
ATOM     36  N   UNL     1      30.456  32.719  15.870  1.00  0.00    -0.237 N 
ATOM     37  N   UNL     1      30.464  31.558  16.458  1.00  0.00    -0.066 NA
BRANCH  36  38
ATOM     38  C   UNL     1      31.637  33.543  15.627  1.00  0.00     0.223 C 
BRANCH  38  39
ATOM     39  C   UNL     1      31.296  34.571  14.587  1.00  0.00     0.197 C 
BRANCH  39  40
ATOM     40  O   UNL     1      32.356  34.778  13.733  1.00  0.00    -0.382 OA
ATOM     41  C   UNL     1      32.105  35.663  12.707  1.00  0.00     0.195 C 
ENDBRANCH  39  40
ENDBRANCH  38  39
BRANCH  38  42
ATOM     42  C   UNL     1      31.998  34.252  16.898  1.00  0.00     0.244 C 
ATOM     43  O   UNL     1      32.788  35.208  16.888  1.00  0.00    -0.273 OA
ATOM     44  N   UNL     1      31.406  33.790  18.102  1.00  0.00    -0.368 N 
ATOM     45  H   UNL     1      31.318  34.456  18.904  1.00  0.00     0.159 HD
ATOM     46  H   UNL     1      31.068  32.823  18.189  1.00  0.00     0.159 HD
ENDBRANCH  38  42
ENDBRANCH  36  38
ENDBRANCH  32  33
ENDBRANCH  31  32
ENDBRANCH   2  31
TORSDOF 18
BEGIN_RES LYS A 131
REMARK  4 active torsions:
REMARK  status: ('A' for Active; 'I' for Inactive)
REMARK    1  A    between atoms: CA   and  CB  
REMARK    2  A    between atoms: CB   and  CG  
REMARK    3  A    between atoms: CG   and  CD  
REMARK    4  A    between atoms: CD   and  CE  
ROOT
ATOM      1  CA  LYS A 131      29.867  25.555  16.977  1.00 20.52     0.186 C 
ENDROOT
BRANCH   1   2
ATOM      2  CB  LYS A 131      28.345  25.722  17.026  1.00 20.94     0.034 C 
BRANCH   2   3
ATOM      3  CG  LYS A 131      27.599  24.421  16.774  1.00 22.96     0.005 C 
BRANCH   3   4
ATOM      4  CD  LYS A 131      26.717  24.040  17.930  1.00 24.33     0.041 C 
BRANCH   4   5
ATOM      5  CE  LYS A 131      25.258  24.070  17.488  1.00 26.91     0.338 C 
ATOM      6  NZ  LYS A 131      24.391  24.550  18.591  1.00 27.40     0.618 N 
ENDBRANCH   4   5
ENDBRANCH   3   4
ENDBRANCH   2   3
ENDBRANCH   1   2
END_RES LYS A 131
BEGIN_RES LYS A 135
REMARK  4 active torsions:
REMARK  status: ('A' for Active; 'I' for Inactive)
REMARK    5  A    between atoms: CA   and  CB  
REMARK    6  A    between atoms: CB   and  CG  
REMARK    7  A    between atoms: CG   and  CD  
REMARK    8  A    between atoms: CD   and  CE  
ROOT
ATOM      7  CA  LYS A 135      33.193  34.663   9.290  1.00 25.02     0.186 C 
ENDROOT
BRANCH   7   8
ATOM      8  CB  LYS A 135      32.060  35.360  10.034  1.00 26.63     0.034 C 
BRANCH   8   9
ATOM      9  CG  LYS A 135      30.885  35.705   9.156  1.00 29.45     0.005 C 
BRANCH   9  10
ATOM     10  CD  LYS A 135      30.389  34.474   8.415  1.00 32.00     0.041 C 
BRANCH  10  11
ATOM     11  CE  LYS A 135      28.874  34.476   8.332  1.00 34.25     0.338 C 
ATOM     12  NZ  LYS A 135      28.402  35.271   7.165  1.00 35.99     0.618 N 
ENDBRANCH  10  11
ENDBRANCH   9  10
ENDBRANCH   8   9
ENDBRANCH   7   8
END_RES LYS A 135
