REMARK VINA RESULT:    -5.420      1.221      1.740
REMARK INTER + INTRA:         -15.176
REMARK INTER:                  -9.423
REMARK INTRA:                  -5.754
REMARK UNBOUND:                -5.796
REMARK SMILES CC(=O)N[C@@H]1[C@@H](O)C[C@](O)(C(=O)O)O[C@H]1C(O)[C@H](O)CNC(=O)OCc1cn(C2CCCCC2)nn1
REMARK SMILES IDX 20 1 18 2 16 3 15 4 9 5 8 6 14 7 6 8 5 9 10 10 11 12 12 13
REMARK SMILES IDX 13 14 7 16 4 18 2 19 1 21 3 22 17 23 19 25 21 27 22 28 23 30
REMARK SMILES IDX 24 31 25 32 26 33 27 34 36 35 28 36 35 37 29 38 30 39 34 40
REMARK SMILES IDX 31 41 33 42 32 43
REMARK H PARENT 10 11 13 15 7 17 4 20 17 24 19 26 21 29
REMARK Flexibility Score: inf
ROOT
ATOM      1  C   UNL     1      26.294  28.174  19.839  1.00  0.00     0.154 C 
ENDROOT
BRANCH   1   2
ATOM      2  C   UNL     1      27.194  27.846  21.021  1.00  0.00     0.165 C 
BRANCH   2   3
ATOM      3  C   UNL     1      28.609  27.988  20.551  1.00  0.00     0.176 C 
BRANCH   3   4
ATOM      4  C   UNL     1      29.509  28.789  21.466  1.00  0.00     0.178 C 
ATOM      5  C   UNL     1      30.612  30.471  20.244  1.00  0.00     0.269 C 
ATOM      6  C   UNL     1      31.949  30.082  20.852  1.00  0.00     0.112 C 
ATOM      7  O   UNL     1      29.619  30.098  21.086  1.00  0.00    -0.332 OA
ATOM      8  C   UNL     1      32.012  28.604  21.132  1.00  0.00     0.145 C 
ATOM      9  C   UNL     1      30.775  28.111  21.856  1.00  0.00     0.142 C 
BRANCH   5  10
ATOM     10  O   UNL     1      30.507  29.995  18.938  1.00  0.00    -0.357 OA
ATOM     11  H   UNL     1      29.606  30.277  18.581  1.00  0.00     0.214 HD
ENDBRANCH   5  10
BRANCH   5  12
ATOM     12  C   UNL     1      30.625  31.959  20.189  1.00  0.00     0.364 C 
ATOM     13  O   UNL     1      30.614  32.624  21.249  1.00  0.00    -0.246 OA
BRANCH  12  14
ATOM     14  O   UNL     1      30.650  32.595  18.982  1.00  0.00    -0.477 OA
ATOM     15  H   UNL     1      29.834  32.953  18.502  1.00  0.00     0.296 HD
ENDBRANCH  12  14
ENDBRANCH   5  12
BRANCH   8  16
ATOM     16  O   UNL     1      32.250  27.884  19.969  1.00  0.00    -0.391 OA
ATOM     17  H   UNL     1      31.499  27.266  19.793  1.00  0.00     0.211 HD
ENDBRANCH   8  16
BRANCH   9  18
ATOM     18  N   UNL     1      31.003  28.202  23.300  1.00  0.00    -0.348 N 
ATOM     19  C   UNL     1      30.578  27.134  24.117  1.00  0.00     0.217 C 
ATOM     20  H   UNL     1      31.465  29.026  23.730  1.00  0.00     0.163 HD
ATOM     21  C   UNL     1      30.765  27.134  25.601  1.00  0.00     0.114 C 
ATOM     22  O   UNL     1      30.007  26.099  23.646  1.00  0.00    -0.275 OA
ENDBRANCH   9  18
ENDBRANCH   3   4
BRANCH   3  23
ATOM     23  O   UNL     1      29.145  26.819  20.078  1.00  0.00    -0.388 OA
ATOM     24  H   UNL     1      28.475  26.067  20.023  1.00  0.00     0.211 HD
ENDBRANCH   3  23
ENDBRANCH   2   3
BRANCH   2  25
ATOM     25  O   UNL     1      26.845  26.601  21.485  1.00  0.00    -0.388 OA
ATOM     26  H   UNL     1      26.307  26.693  22.287  1.00  0.00     0.211 HD
ENDBRANCH   2  25
ENDBRANCH   1   2
BRANCH   1  27
ATOM     27  N   UNL     1      27.125  28.329  18.669  1.00  0.00    -0.319 N 
ATOM     28  C   UNL     1      27.347  29.547  17.980  1.00  0.00     0.407 C 
ATOM     29  H   UNL     1      27.634  27.489  18.254  1.00  0.00     0.167 HD
ATOM     30  O   UNL     1      26.791  30.595  18.388  1.00  0.00    -0.225 OA
BRANCH  28  31
ATOM     31  O   UNL     1      28.168  29.609  16.858  1.00  0.00    -0.443 OA
BRANCH  31  32
ATOM     32  C   UNL     1      27.931  30.584  15.874  1.00  0.00     0.294 C 
BRANCH  32  33
ATOM     33  C   UNL     1      29.124  31.468  15.799  1.00  0.00     0.120 A 
ATOM     34  C   UNL     1      29.174  32.742  15.218  1.00  0.00     0.138 A 
ATOM     35  N   UNL     1      30.379  31.268  16.242  1.00  0.00    -0.132 NA
ATOM     36  N   UNL     1      30.417  33.239  15.335  1.00  0.00    -0.249 N 
ATOM     37  N   UNL     1      31.129  32.318  15.961  1.00  0.00    -0.067 NA
BRANCH  36  38
ATOM     38  C   UNL     1      30.886  34.535  14.862  1.00  0.00     0.109 C 
ATOM     39  C   UNL     1      32.331  34.718  15.270  1.00  0.00     0.027 C 
ATOM     40  C   UNL     1      30.814  34.589  13.353  1.00  0.00     0.027 C 
ATOM     41  C   UNL     1      33.272  34.523  14.097  1.00  0.00     0.002 C 
ATOM     42  C   UNL     1      31.536  35.855  12.925  1.00  0.00     0.002 C 
ATOM     43  C   UNL     1      33.022  35.583  13.058  1.00  0.00     0.000 C 
ENDBRANCH  36  38
ENDBRANCH  32  33
ENDBRANCH  31  32
ENDBRANCH  28  31
ENDBRANCH   1  27
TORSDOF 15
BEGIN_RES LYS A 131
REMARK  4 active torsions:
REMARK  status: ('A' for Active; 'I' for Inactive)
REMARK    1  A    between atoms: CA   and  CB  
REMARK    2  A    between atoms: CB   and  CG  
REMARK    3  A    between atoms: CG   and  CD  
REMARK    4  A    between atoms: CD   and  CE  
ROOT
ATOM      1  CA  LYS A 131      29.867  25.555  16.977  1.00 20.52     0.186 C 
ENDROOT
BRANCH   1   2
ATOM      2  CB  LYS A 131      28.345  25.722  17.026  1.00 20.94     0.034 C 
BRANCH   2   3
ATOM      3  CG  LYS A 131      27.599  24.462  16.614  1.00 22.96     0.005 C 
BRANCH   3   4
ATOM      4  CD  LYS A 131      27.032  23.727  17.797  1.00 24.33     0.041 C 
BRANCH   4   5
ATOM      5  CE  LYS A 131      26.139  24.667  18.600  1.00 26.91     0.338 C 
ATOM      6  NZ  LYS A 131      25.531  23.951  19.747  1.00 27.40     0.618 N 
ENDBRANCH   4   5
ENDBRANCH   3   4
ENDBRANCH   2   3
ENDBRANCH   1   2
END_RES LYS A 131
BEGIN_RES LYS A 135
REMARK  4 active torsions:
REMARK  status: ('A' for Active; 'I' for Inactive)
REMARK    5  A    between atoms: CA   and  CB  
REMARK    6  A    between atoms: CB   and  CG  
REMARK    7  A    between atoms: CG   and  CD  
REMARK    8  A    between atoms: CD   and  CE  
ROOT
ATOM      7  CA  LYS A 135      33.193  34.663   9.290  1.00 25.02     0.186 C 
ENDROOT
BRANCH   7   8
ATOM      8  CB  LYS A 135      32.060  35.360  10.034  1.00 26.63     0.034 C 
BRANCH   8   9
ATOM      9  CG  LYS A 135      30.810  35.526   9.209  1.00 29.45     0.005 C 
BRANCH   9  10
ATOM     10  CD  LYS A 135      29.949  34.275   9.281  1.00 32.00     0.041 C 
BRANCH  10  11
ATOM     11  CE  LYS A 135      28.504  34.603   8.955  1.00 34.25     0.338 C 
ATOM     12  NZ  LYS A 135      27.578  33.610   9.566  1.00 35.99     0.618 N 
ENDBRANCH  10  11
ENDBRANCH   9  10
ENDBRANCH   8   9
ENDBRANCH   7   8
END_RES LYS A 135
