REMARK VINA RESULT:    -6.270      2.021      4.436
REMARK INTER + INTRA:         -15.430
REMARK INTER:                 -10.852
REMARK INTRA:                  -4.578
REMARK UNBOUND:                -4.578
REMARK SMILES CC(=O)N[C@@H]1[C@@H](O)C[C@](O)(C(=O)O)O[C@H]1C(O)[C@H](O)CNC(=O)OCc1cn(C2c3ccccc3-c3ccccc32)nn1
REMARK SMILES IDX 20 1 18 2 16 3 15 4 9 5 8 6 14 7 6 8 5 9 10 10 11 12 12 13
REMARK SMILES IDX 13 14 7 16 4 18 2 19 1 21 3 22 17 23 19 25 21 27 22 28 23 30
REMARK SMILES IDX 24 31 25 32 26 33 27 34 43 35 28 36 42 37 29 38 30 39 41 40
REMARK SMILES IDX 31 41 35 42 36 43 40 44 32 45 34 46 37 47 39 48 33 49 38 50
REMARK H PARENT 10 11 13 15 7 17 4 20 17 24 19 26 21 29
REMARK Flexibility Score: inf
ROOT
ATOM      1  C   UNL     1      29.155  31.297  16.734  1.00  0.00     0.154 C 
ENDROOT
BRANCH   1   2
ATOM      2  C   UNL     1      28.249  30.575  15.807  1.00  0.00     0.165 C 
BRANCH   2   3
ATOM      3  C   UNL     1      26.799  30.821  16.075  1.00  0.00     0.176 C 
BRANCH   3   4
ATOM      4  C   UNL     1      25.884  29.643  15.885  1.00  0.00     0.178 C 
ATOM      5  C   UNL     1      23.682  30.325  15.471  1.00  0.00     0.269 C 
ATOM      6  C   UNL     1      23.048  29.032  15.938  1.00  0.00     0.112 C 
ATOM      7  O   UNL     1      24.916  30.060  14.969  1.00  0.00    -0.332 OA
ATOM      8  C   UNL     1      24.003  28.312  16.818  1.00  0.00     0.145 C 
ATOM      9  C   UNL     1      25.260  29.131  17.154  1.00  0.00     0.142 C 
BRANCH   5  10
ATOM     10  O   UNL     1      23.600  31.216  16.507  1.00  0.00    -0.357 OA
ATOM     11  H   UNL     1      22.672  31.462  16.717  1.00  0.00     0.214 HD
ENDBRANCH   5  10
BRANCH   5  12
ATOM     12  C   UNL     1      22.834  30.813  14.340  1.00  0.00     0.364 C 
ATOM     13  O   UNL     1      22.251  29.981  13.607  1.00  0.00    -0.246 OA
BRANCH  12  14
ATOM     14  O   UNL     1      22.664  32.161  14.060  1.00  0.00    -0.477 OA
ATOM     15  H   UNL     1      23.389  32.843  14.321  1.00  0.00     0.296 HD
ENDBRANCH  12  14
ENDBRANCH   5  12
BRANCH   8  16
ATOM     16  O   UNL     1      23.457  27.894  18.021  1.00  0.00    -0.391 OA
ATOM     17  H   UNL     1      22.855  28.556  18.431  1.00  0.00     0.211 HD
ENDBRANCH   8  16
BRANCH   9  18
ATOM     18  N   UNL     1      26.142  28.172  17.781  1.00  0.00    -0.348 N 
ATOM     19  C   UNL     1      26.944  28.433  18.922  1.00  0.00     0.217 C 
ATOM     20  H   UNL     1      26.191  27.218  17.366  1.00  0.00     0.163 HD
ATOM     21  C   UNL     1      27.836  27.383  19.514  1.00  0.00     0.114 C 
ATOM     22  O   UNL     1      26.883  29.583  19.425  1.00  0.00    -0.275 OA
ENDBRANCH   9  18
ENDBRANCH   3   4
BRANCH   3  23
ATOM     23  O   UNL     1      26.532  31.462  17.279  1.00  0.00    -0.388 OA
ATOM     24  H   UNL     1      27.303  31.859  17.715  1.00  0.00     0.211 HD
ENDBRANCH   3  23
ENDBRANCH   2   3
BRANCH   2  25
ATOM     25  O   UNL     1      28.454  29.203  15.929  1.00  0.00    -0.388 OA
ATOM     26  H   UNL     1      29.227  28.976  16.481  1.00  0.00     0.211 HD
ENDBRANCH   2  25
ENDBRANCH   1   2
BRANCH   1  27
ATOM     27  N   UNL     1      29.284  32.690  16.521  1.00  0.00    -0.319 N 
ATOM     28  C   UNL     1      30.362  33.292  15.848  1.00  0.00     0.407 C 
ATOM     29  H   UNL     1      28.521  33.348  16.888  1.00  0.00     0.167 HD
ATOM     30  O   UNL     1      31.288  32.641  15.375  1.00  0.00    -0.225 OA
BRANCH  28  31
ATOM     31  O   UNL     1      30.429  34.687  15.685  1.00  0.00    -0.443 OA
BRANCH  31  32
ATOM     32  C   UNL     1      29.303  35.502  15.567  1.00  0.00     0.294 C 
BRANCH  32  33
ATOM     33  C   UNL     1      28.733  35.541  14.198  1.00  0.00     0.120 A 
ATOM     34  C   UNL     1      28.390  34.505  13.365  1.00  0.00     0.139 A 
ATOM     35  N   UNL     1      28.460  36.675  13.550  1.00  0.00    -0.132 NA
ATOM     36  N   UNL     1      27.923  35.045  12.245  1.00  0.00    -0.240 N 
ATOM     37  N   UNL     1      27.972  36.355  12.373  1.00  0.00    -0.066 NA
BRANCH  36  38
ATOM     38  C   UNL     1      27.434  34.347  11.065  1.00  0.00     0.170 C 
ATOM     39  C   UNL     1      28.349  34.499   9.921  1.00  0.00    -0.011 A 
ATOM     40  C   UNL     1      26.142  34.840  10.614  1.00  0.00    -0.011 A 
ATOM     41  C   UNL     1      29.714  34.181   9.804  1.00  0.00     0.007 A 
ATOM     42  C   UNL     1      27.638  35.039   8.888  1.00  0.00    -0.012 A 
ATOM     43  C   UNL     1      26.257  35.256   9.314  1.00  0.00    -0.012 A 
ATOM     44  C   UNL     1      24.884  34.956  11.239  1.00  0.00     0.007 A 
ATOM     45  C   UNL     1      30.336  34.428   8.606  1.00  0.00     0.000 A 
ATOM     46  C   UNL     1      28.306  35.277   7.687  1.00  0.00     0.009 A 
ATOM     47  C   UNL     1      25.189  35.786   8.582  1.00  0.00     0.009 A 
ATOM     48  C   UNL     1      23.824  35.473  10.542  1.00  0.00     0.000 A 
ATOM     49  C   UNL     1      29.642  34.974   7.545  1.00  0.00     0.001 A 
ATOM     50  C   UNL     1      23.978  35.883   9.228  1.00  0.00     0.001 A 
ENDBRANCH  36  38
ENDBRANCH  32  33
ENDBRANCH  31  32
ENDBRANCH  28  31
ENDBRANCH   1  27
TORSDOF 15
BEGIN_RES LYS A 131
REMARK  4 active torsions:
REMARK  status: ('A' for Active; 'I' for Inactive)
REMARK    1  A    between atoms: CA   and  CB  
REMARK    2  A    between atoms: CB   and  CG  
REMARK    3  A    between atoms: CG   and  CD  
REMARK    4  A    between atoms: CD   and  CE  
ROOT
ATOM      1  CA  LYS A 131      29.867  25.555  16.977  1.00 20.52     0.186 C 
ENDROOT
BRANCH   1   2
ATOM      2  CB  LYS A 131      28.345  25.722  17.026  1.00 20.94     0.034 C 
BRANCH   2   3
ATOM      3  CG  LYS A 131      27.601  24.401  16.905  1.00 22.96     0.005 C 
BRANCH   3   4
ATOM      4  CD  LYS A 131      26.154  24.528  17.291  1.00 24.33     0.041 C 
BRANCH   4   5
ATOM      5  CE  LYS A 131      25.720  23.281  18.056  1.00 26.91     0.338 C 
ATOM      6  NZ  LYS A 131      24.524  22.676  17.425  1.00 27.40     0.618 N 
ENDBRANCH   4   5
ENDBRANCH   3   4
ENDBRANCH   2   3
ENDBRANCH   1   2
END_RES LYS A 131
BEGIN_RES LYS A 135
REMARK  4 active torsions:
REMARK  status: ('A' for Active; 'I' for Inactive)
REMARK    5  A    between atoms: CA   and  CB  
REMARK    6  A    between atoms: CB   and  CG  
REMARK    7  A    between atoms: CG   and  CD  
REMARK    8  A    between atoms: CD   and  CE  
ROOT
ATOM      7  CA  LYS A 135      33.193  34.663   9.290  1.00 25.02     0.186 C 
ENDROOT
BRANCH   7   8
ATOM      8  CB  LYS A 135      32.060  35.360  10.034  1.00 26.63     0.034 C 
BRANCH   8   9
ATOM      9  CG  LYS A 135      32.535  36.372  11.044  1.00 29.45     0.005 C 
BRANCH   9  10
ATOM     10  CD  LYS A 135      32.557  35.769  12.440  1.00 32.00     0.041 C 
BRANCH  10  11
ATOM     11  CE  LYS A 135      32.073  36.778  13.464  1.00 34.25     0.338 C 
ATOM     12  NZ  LYS A 135      31.521  37.992  12.801  1.00 35.99     0.618 N 
ENDBRANCH  10  11
ENDBRANCH   9  10
ENDBRANCH   8   9
ENDBRANCH   7   8
END_RES LYS A 135
