REMARK VINA RESULT:    -5.470      0.000      0.000
REMARK INTER + INTRA:         -17.304
REMARK INTER:                  -9.080
REMARK INTRA:                  -8.225
REMARK UNBOUND:                -5.759
REMARK SMILES CC(=O)N[C@@H]1[C@@H](O)C[C@](O)(C(=O)O)O[C@H]1C(O)[C@H](O)CNC(=O)OCc1cn(CC(=O)NCC(O)Cn2ccnc2[N+](=O)[O-])nn1
REMARK SMILES IDX 25 1 24 2 22 3 21 4 23 6 20 7 18 8 16 9 15 10 9 11 8 12
REMARK SMILES IDX 14 13 6 14 5 15 10 16 11 18 12 19 13 20 7 22 4 24 2 25 1 27
REMARK SMILES IDX 3 28 17 29 19 31 26 33 27 34 46 35 28 36 45 37 29 38 30 39
REMARK SMILES IDX 31 40 32 41 33 43 34 44 35 45 36 47 37 48 38 49 41 50 39 51
REMARK SMILES IDX 40 52 42 53 43 54 44 55
REMARK H PARENT 21 5 10 17 13 21 7 23 4 26 17 30 19 32 32 42 35 46
REMARK Flexibility Score: inf
ROOT
ATOM      1  C   UNL     1      27.636  39.031   4.310  1.00  0.00     0.294 C 
ENDROOT
BRANCH   1   2
ATOM      2  O   UNL     1      28.380  38.029   4.976  1.00  0.00    -0.443 OA
BRANCH   2   3
ATOM      3  C   UNL     1      27.992  37.534   6.208  1.00  0.00     0.407 C 
ATOM      4  N   UNL     1      26.637  37.124   6.454  1.00  0.00    -0.319 N 
ATOM      5  H   UNL     1      25.976  37.229   5.659  1.00  0.00     0.167 HD
ATOM      6  O   UNL     1      28.845  37.452   7.109  1.00  0.00    -0.225 OA
BRANCH   4   7
ATOM      7  C   UNL     1      26.191  36.600   7.700  1.00  0.00     0.154 C 
BRANCH   7   8
ATOM      8  C   UNL     1      25.299  37.508   8.471  1.00  0.00     0.165 C 
BRANCH   8   9
ATOM      9  C   UNL     1      23.889  37.406   7.912  1.00  0.00     0.176 C 
BRANCH   9  10
ATOM     10  C   UNL     1      22.836  37.662   8.942  1.00  0.00     0.178 C 
ATOM     11  C   UNL     1      20.867  36.556   8.372  1.00  0.00     0.269 C 
ATOM     12  C   UNL     1      19.934  37.686   8.780  1.00  0.00     0.112 C 
ATOM     13  O   UNL     1      22.028  36.565   9.094  1.00  0.00    -0.332 OA
ATOM     14  C   UNL     1      20.733  38.783   9.471  1.00  0.00     0.145 C 
ATOM     15  C   UNL     1      22.044  38.902   8.685  1.00  0.00     0.142 C 
BRANCH  11  16
ATOM     16  O   UNL     1      21.148  36.757   7.033  1.00  0.00    -0.357 OA
ATOM     17  H   UNL     1      21.720  37.556   6.909  1.00  0.00     0.214 HD
ENDBRANCH  11  16
BRANCH  11  18
ATOM     18  C   UNL     1      20.206  35.232   8.508  1.00  0.00     0.364 C 
ATOM     19  O   UNL     1      19.613  34.891   9.571  1.00  0.00    -0.246 OA
BRANCH  18  20
ATOM     20  O   UNL     1      20.214  34.318   7.469  1.00  0.00    -0.477 OA
ATOM     21  H   UNL     1      20.732  33.458   7.450  1.00  0.00     0.296 HD
ENDBRANCH  18  20
ENDBRANCH  11  18
BRANCH  14  22
ATOM     22  O   UNL     1      19.996  39.951   9.393  1.00  0.00    -0.391 OA
ATOM     23  H   UNL     1      20.245  40.520   8.630  1.00  0.00     0.211 HD
ENDBRANCH  14  22
BRANCH  15  24
ATOM     24  N   UNL     1      22.759  40.097   9.114  1.00  0.00    -0.348 N 
ATOM     25  C   UNL     1      22.682  41.268   8.334  1.00  0.00     0.217 C 
ATOM     26  H   UNL     1      23.312  40.074   9.973  1.00  0.00     0.163 HD
ATOM     27  C   UNL     1      23.405  42.528   8.741  1.00  0.00     0.114 C 
ATOM     28  O   UNL     1      22.024  41.347   7.269  1.00  0.00    -0.275 OA
ENDBRANCH  15  24
ENDBRANCH   9  10
BRANCH   9  29
ATOM     29  O   UNL     1      23.709  38.270   6.843  1.00  0.00    -0.388 OA
ATOM     30  H   UNL     1      22.871  38.129   6.366  1.00  0.00     0.211 HD
ENDBRANCH   9  29
ENDBRANCH   8   9
BRANCH   8  31
ATOM     31  O   UNL     1      25.688  38.838   8.476  1.00  0.00    -0.388 OA
ATOM     32  H   UNL     1      24.916  39.462   8.544  1.00  0.00     0.211 HD
ENDBRANCH   8  31
ENDBRANCH   7   8
ENDBRANCH   4   7
ENDBRANCH   2   3
ENDBRANCH   1   2
BRANCH   1  33
ATOM     33  C   UNL     1      27.195  39.972   5.368  1.00  0.00     0.120 A 
ATOM     34  C   UNL     1      28.040  40.816   6.054  1.00  0.00     0.138 A 
ATOM     35  N   UNL     1      25.982  40.219   5.885  1.00  0.00    -0.132 NA
ATOM     36  N   UNL     1      27.330  41.551   6.965  1.00  0.00    -0.243 N 
ATOM     37  N   UNL     1      26.084  41.165   6.837  1.00  0.00    -0.067 NA
BRANCH  36  38
ATOM     38  C   UNL     1      27.967  42.516   7.833  1.00  0.00     0.245 C 
BRANCH  38  39
ATOM     39  C   UNL     1      28.449  41.741   9.045  1.00  0.00     0.241 C 
ATOM     40  O   UNL     1      29.643  41.825   9.406  1.00  0.00    -0.273 OA
ATOM     41  N   UNL     1      27.599  40.919   9.789  1.00  0.00    -0.352 N 
ATOM     42  H   UNL     1      26.576  40.924   9.415  1.00  0.00     0.163 HD
BRANCH  41  43
ATOM     43  C   UNL     1      27.868  40.106  10.918  1.00  0.00     0.151 C 
BRANCH  43  44
ATOM     44  C   UNL     1      28.404  38.757  10.751  1.00  0.00     0.168 C 
BRANCH  44  45
ATOM     45  O   UNL     1      29.210  38.619   9.589  1.00  0.00    -0.388 OA
ATOM     46  H   UNL     1      30.076  39.071   9.739  1.00  0.00     0.211 HD
ENDBRANCH  44  45
BRANCH  44  47
ATOM     47  C   UNL     1      28.853  37.949  11.896  1.00  0.00     0.239 C 
BRANCH  47  48
ATOM     48  N   UNL     1      28.010  36.800  12.164  1.00  0.00    -0.227 N 
ATOM     49  C   UNL     1      26.695  36.692  11.845  1.00  0.00     0.204 A 
ATOM     50  C   UNL     1      28.390  35.669  12.786  1.00  0.00     0.434 A 
ATOM     51  C   UNL     1      26.280  35.453  12.295  1.00  0.00     0.245 A 
ATOM     52  N   UNL     1      27.312  34.831  12.868  1.00  0.00    -0.074 NA
BRANCH  50  53
ATOM     53  N   UNL     1      29.662  35.314  13.299  1.00  0.00    -0.047 N 
ATOM     54  O   UNL     1      30.345  34.473  12.644  1.00  0.00    -0.390 OA
ATOM     55  O   UNL     1      30.229  35.786  14.434  1.00  0.00    -0.390 OA
ENDBRANCH  50  53
ENDBRANCH  47  48
ENDBRANCH  44  47
ENDBRANCH  43  44
ENDBRANCH  41  43
ENDBRANCH  38  39
ENDBRANCH  36  38
ENDBRANCH   1  33
TORSDOF 22
BEGIN_RES LYS A 131
REMARK  4 active torsions:
REMARK  status: ('A' for Active; 'I' for Inactive)
REMARK    1  A    between atoms: CA   and  CB  
REMARK    2  A    between atoms: CB   and  CG  
REMARK    3  A    between atoms: CG   and  CD  
REMARK    4  A    between atoms: CD   and  CE  
ROOT
ATOM      1  CA  LYS A 131      29.867  25.555  16.977  1.00 20.52     0.186 C 
ENDROOT
BRANCH   1   2
ATOM      2  CB  LYS A 131      28.345  25.722  17.026  1.00 20.94     0.034 C 
BRANCH   2   3
ATOM      3  CG  LYS A 131      27.605  24.393  17.049  1.00 22.96     0.005 C 
BRANCH   3   4
ATOM      4  CD  LYS A 131      26.537  24.358  18.107  1.00 24.33     0.041 C 
BRANCH   4   5
ATOM      5  CE  LYS A 131      25.317  25.136  17.624  1.00 26.91     0.338 C 
ATOM      6  NZ  LYS A 131      24.441  24.269  16.801  1.00 27.40     0.618 N 
ENDBRANCH   4   5
ENDBRANCH   3   4
ENDBRANCH   2   3
ENDBRANCH   1   2
END_RES LYS A 131
BEGIN_RES LYS A 135
REMARK  4 active torsions:
REMARK  status: ('A' for Active; 'I' for Inactive)
REMARK    5  A    between atoms: CA   and  CB  
REMARK    6  A    between atoms: CB   and  CG  
REMARK    7  A    between atoms: CG   and  CD  
REMARK    8  A    between atoms: CD   and  CE  
ROOT
ATOM      7  CA  LYS A 135      33.193  34.663   9.290  1.00 25.02     0.186 C 
ENDROOT
BRANCH   7   8
ATOM      8  CB  LYS A 135      32.060  35.360  10.034  1.00 26.63     0.034 C 
BRANCH   8   9
ATOM      9  CG  LYS A 135      30.791  35.475   9.229  1.00 29.45     0.005 C 
BRANCH   9  10
ATOM     10  CD  LYS A 135      30.121  34.117   9.088  1.00 32.00     0.041 C 
BRANCH  10  11
ATOM     11  CE  LYS A 135      28.683  34.278   8.632  1.00 34.25     0.338 C 
ATOM     12  NZ  LYS A 135      27.741  33.637   9.592  1.00 35.99     0.618 N 
ENDBRANCH  10  11
ENDBRANCH   9  10
ENDBRANCH   8   9
ENDBRANCH   7   8
END_RES LYS A 135
