REMARK VINA RESULT:    -4.964      4.376      9.392
REMARK INTER + INTRA:         -14.579
REMARK INTER:                  -8.643
REMARK INTRA:                  -5.936
REMARK UNBOUND:                -5.118
REMARK SMILES COc1ccc(Cn2cc(COC(=O)NC[C@@H](O)C(O)[C@@H]3O[C@@](O)(C(=O)O)C[C@H](O)[C@H]3NC(C)=O)nn2)cc1OC
REMARK SMILES IDX 15 1 13 2 14 3 16 5 17 6 19 7 21 8 23 9 28 10 22 11 29 12
REMARK SMILES IDX 31 13 24 14 25 16 26 17 27 18 30 20 32 22 33 23 34 25 35 26
REMARK SMILES IDX 20 27 18 29 12 31 11 32 10 33 9 34 36 35 8 36 37 37 7 38
REMARK SMILES IDX 6 39 38 40 5 41 39 42 4 43 3 44 40 45 41 46 2 47 1 48
REMARK H PARENT 15 4 24 15 27 19 30 21 32 24 20 28 18 30
REMARK Flexibility Score: inf
ROOT
ATOM      1  N   UNL     1      29.541  30.809  17.524  1.00  0.00    -0.319 N 
ATOM      2  C   UNL     1      28.496  31.009  18.436  1.00  0.00     0.407 C 
ATOM      3  O   UNL     1      27.399  31.485  18.075  1.00  0.00    -0.225 OA
ATOM      4  H   UNL     1      30.448  30.408  17.916  1.00  0.00     0.167 HD
ENDROOT
BRANCH   1   5
ATOM      5  C   UNL     1      29.499  31.097  16.102  1.00  0.00     0.154 C 
BRANCH   5   6
ATOM      6  C   UNL     1      30.436  32.198  15.755  1.00  0.00     0.165 C 
BRANCH   6   7
ATOM      7  C   UNL     1      29.764  33.465  15.284  1.00  0.00     0.176 C 
BRANCH   7   8
ATOM      8  C   UNL     1      30.248  34.712  15.943  1.00  0.00     0.178 C 
ATOM      9  C   UNL     1      31.988  35.511  14.609  1.00  0.00     0.269 C 
ATOM     10  C   UNL     1      32.757  36.156  15.754  1.00  0.00     0.112 C 
ATOM     11  O   UNL     1      30.658  35.595  14.923  1.00  0.00    -0.332 OA
ATOM     12  C   UNL     1      31.965  36.010  17.021  1.00  0.00     0.145 C 
ATOM     13  C   UNL     1      31.215  34.628  17.043  1.00  0.00     0.142 C 
BRANCH   9  14
ATOM     14  O   UNL     1      32.453  34.227  14.350  1.00  0.00    -0.357 OA
ATOM     15  H   UNL     1      33.047  33.883  15.067  1.00  0.00     0.214 HD
ENDBRANCH   9  14
BRANCH   9  16
ATOM     16  C   UNL     1      32.215  36.304  13.366  1.00  0.00     0.364 C 
ATOM     17  O   UNL     1      32.772  35.750  12.389  1.00  0.00    -0.246 OA
BRANCH  16  18
ATOM     18  O   UNL     1      31.836  37.632  13.247  1.00  0.00    -0.477 OA
ATOM     19  H   UNL     1      31.333  38.127  13.994  1.00  0.00     0.296 HD
ENDBRANCH  16  18
ENDBRANCH   9  16
BRANCH  12  20
ATOM     20  O   UNL     1      32.764  36.091  18.156  1.00  0.00    -0.391 OA
ATOM     21  H   UNL     1      33.261  36.936  18.188  1.00  0.00     0.211 HD
ENDBRANCH  12  20
BRANCH  13  22
ATOM     22  N   UNL     1      30.554  34.659  18.356  1.00  0.00    -0.348 N 
ATOM     23  C   UNL     1      30.703  33.654  19.341  1.00  0.00     0.217 C 
ATOM     24  H   UNL     1      29.922  35.472  18.615  1.00  0.00     0.163 HD
ATOM     25  C   UNL     1      30.019  33.711  20.658  1.00  0.00     0.114 C 
ATOM     26  O   UNL     1      31.440  32.664  19.108  1.00  0.00    -0.275 OA
ENDBRANCH  13  22
ENDBRANCH   7   8
BRANCH   7  27
ATOM     27  O   UNL     1      28.368  33.361  15.679  1.00  0.00    -0.388 OA
ATOM     28  H   UNL     1      28.193  34.111  16.297  1.00  0.00     0.211 HD
ENDBRANCH   7  27
ENDBRANCH   6   7
BRANCH   6  29
ATOM     29  O   UNL     1      31.558  31.844  15.053  1.00  0.00    -0.388 OA
ATOM     30  H   UNL     1      31.532  32.080  14.106  1.00  0.00     0.211 HD
ENDBRANCH   6  29
ENDBRANCH   5   6
ENDBRANCH   1   5
BRANCH   2  31
ATOM     31  O   UNL     1      28.650  30.677  19.799  1.00  0.00    -0.443 OA
BRANCH  31  32
ATOM     32  C   UNL     1      29.228  29.400  20.112  1.00  0.00     0.294 C 
BRANCH  32  33
ATOM     33  C   UNL     1      30.568  29.543  20.676  1.00  0.00     0.120 A 
ATOM     34  C   UNL     1      30.928  30.331  21.740  1.00  0.00     0.138 A 
ATOM     35  N   UNL     1      31.674  28.915  20.248  1.00  0.00    -0.132 NA
ATOM     36  N   UNL     1      32.233  30.170  21.938  1.00  0.00    -0.248 N 
ATOM     37  N   UNL     1      32.665  29.317  21.033  1.00  0.00    -0.067 NA
BRANCH  36  38
ATOM     38  C   UNL     1      33.058  30.813  22.953  1.00  0.00     0.181 C 
BRANCH  38  39
ATOM     39  C   UNL     1      33.963  31.790  22.271  1.00  0.00    -0.023 A 
ATOM     40  C   UNL     1      33.451  33.019  21.857  1.00  0.00     0.056 A 
ATOM     41  C   UNL     1      35.297  31.530  22.037  1.00  0.00     0.010 A 
ATOM     42  C   UNL     1      34.249  33.947  21.235  1.00  0.00     0.161 A 
ATOM     43  C   UNL     1      36.125  32.443  21.414  1.00  0.00     0.051 A 
ATOM     44  C   UNL     1      35.582  33.644  21.022  1.00  0.00     0.160 A 
BRANCH  42  45
ATOM     45  O   UNL     1      33.752  35.178  20.816  1.00  0.00    -0.493 OA
ATOM     46  C   UNL     1      32.937  35.914  21.711  1.00  0.00     0.278 C 
ENDBRANCH  42  45
BRANCH  44  47
ATOM     47  O   UNL     1      36.379  34.587  20.393  1.00  0.00    -0.493 OA
ATOM     48  C   UNL     1      37.593  34.237  19.755  1.00  0.00     0.278 C 
ENDBRANCH  44  47
ENDBRANCH  38  39
ENDBRANCH  36  38
ENDBRANCH  32  33
ENDBRANCH  31  32
ENDBRANCH   2  31
TORSDOF 18
BEGIN_RES LYS A 131
REMARK  4 active torsions:
REMARK  status: ('A' for Active; 'I' for Inactive)
REMARK    1  A    between atoms: CA   and  CB  
REMARK    2  A    between atoms: CB   and  CG  
REMARK    3  A    between atoms: CG   and  CD  
REMARK    4  A    between atoms: CD   and  CE  
ROOT
ATOM      1  CA  LYS A 131      29.867  25.555  16.977  1.00 20.52     0.186 C 
ENDROOT
BRANCH   1   2
ATOM      2  CB  LYS A 131      28.345  25.722  17.026  1.00 20.94     0.034 C 
BRANCH   2   3
ATOM      3  CG  LYS A 131      27.603  24.395  16.981  1.00 22.96     0.005 C 
BRANCH   3   4
ATOM      4  CD  LYS A 131      26.121  24.568  17.160  1.00 24.33     0.041 C 
BRANCH   4   5
ATOM      5  CE  LYS A 131      25.857  25.627  18.226  1.00 26.91     0.338 C 
ATOM      6  NZ  LYS A 131      25.713  24.997  19.560  1.00 27.40     0.618 N 
ENDBRANCH   4   5
ENDBRANCH   3   4
ENDBRANCH   2   3
ENDBRANCH   1   2
END_RES LYS A 131
BEGIN_RES LYS A 135
REMARK  4 active torsions:
REMARK  status: ('A' for Active; 'I' for Inactive)
REMARK    5  A    between atoms: CA   and  CB  
REMARK    6  A    between atoms: CB   and  CG  
REMARK    7  A    between atoms: CG   and  CD  
REMARK    8  A    between atoms: CD   and  CE  
ROOT
ATOM      7  CA  LYS A 135      33.193  34.663   9.290  1.00 25.02     0.186 C 
ENDROOT
BRANCH   7   8
ATOM      8  CB  LYS A 135      32.060  35.360  10.034  1.00 26.63     0.034 C 
BRANCH   8   9
ATOM      9  CG  LYS A 135      30.689  34.897   9.614  1.00 29.45     0.005 C 
BRANCH   9  10
ATOM     10  CD  LYS A 135      29.667  36.008   9.798  1.00 32.00     0.041 C 
BRANCH  10  11
ATOM     11  CE  LYS A 135      29.234  36.099  11.249  1.00 34.25     0.338 C 
ATOM     12  NZ  LYS A 135      29.108  34.746  11.857  1.00 35.99     0.618 N 
ENDBRANCH  10  11
ENDBRANCH   9  10
ENDBRANCH   8   9
ENDBRANCH   7   8
END_RES LYS A 135
