REMARK VINA RESULT:    -5.723      2.474      6.601
REMARK INTER + INTRA:         -18.044
REMARK INTER:                 -10.852
REMARK INTRA:                  -7.192
REMARK UNBOUND:                -6.299
REMARK SMILES CC(=O)N[C@@H]1[C@@H](O)C[C@](O)(C(=O)O)O[C@H]1C(O)[C@H](O)CNC(=O)OCc1cn(C[C@@H](C(=O)O)C(c2ccccc2)c2ccccc2)nn1
REMARK SMILES IDX 21 1 22 2 23 3 20 5 18 6 16 7 15 8 9 9 8 10 14 11 6 12 5 13
REMARK SMILES IDX 10 14 11 16 12 17 13 18 7 20 4 22 2 23 1 25 3 26 17 27 19 29
REMARK SMILES IDX 24 31 25 32 26 33 27 34 48 35 28 36 47 37 29 38 30 39 31 40
REMARK SMILES IDX 32 41 33 42 34 44 35 45 36 46 40 47 37 48 39 49 38 50 41 51
REMARK SMILES IDX 42 52 46 53 43 54 45 55 44 56
REMARK H PARENT 21 4 10 15 13 19 7 21 4 24 17 28 19 30 33 43
REMARK Flexibility Score: inf
ROOT
ATOM      1  N   UNL     1      25.531  30.969  16.478  1.00  0.00    -0.319 N 
ATOM      2  C   UNL     1      24.951  31.526  15.308  1.00  0.00     0.407 C 
ATOM      3  O   UNL     1      25.076  30.927  14.200  1.00  0.00    -0.225 OA
ATOM      4  H   UNL     1      25.381  31.533  17.365  1.00  0.00     0.167 HD
ENDROOT
BRANCH   1   5
ATOM      5  C   UNL     1      26.271  29.730  16.487  1.00  0.00     0.154 C 
BRANCH   5   6
ATOM      6  C   UNL     1      27.733  29.925  16.893  1.00  0.00     0.165 C 
BRANCH   6   7
ATOM      7  C   UNL     1      27.712  30.490  18.280  1.00  0.00     0.176 C 
BRANCH   7   8
ATOM      8  C   UNL     1      29.016  30.336  19.009  1.00  0.00     0.178 C 
ATOM      9  C   UNL     1      29.948  29.092  20.729  1.00  0.00     0.269 C 
ATOM     10  C   UNL     1      31.156  29.977  20.563  1.00  0.00     0.112 C 
ATOM     11  O   UNL     1      29.037  29.163  19.711  1.00  0.00    -0.332 OA
ATOM     12  C   UNL     1      30.813  31.393  20.252  1.00  0.00     0.145 C 
ATOM     13  C   UNL     1      29.322  31.491  19.934  1.00  0.00     0.142 C 
BRANCH   9  14
ATOM     14  O   UNL     1      29.357  29.407  21.957  1.00  0.00    -0.357 OA
ATOM     15  H   UNL     1      29.185  28.584  22.491  1.00  0.00     0.214 HD
ENDBRANCH   9  14
BRANCH   9  16
ATOM     16  C   UNL     1      30.441  27.695  20.809  1.00  0.00     0.364 C 
ATOM     17  O   UNL     1      31.676  27.477  20.769  1.00  0.00    -0.246 OA
BRANCH  16  18
ATOM     18  O   UNL     1      29.580  26.625  20.927  1.00  0.00    -0.477 OA
ATOM     19  H   UNL     1      29.661  25.993  21.735  1.00  0.00     0.296 HD
ENDBRANCH  16  18
ENDBRANCH   9  16
BRANCH  12  20
ATOM     20  O   UNL     1      31.211  32.310  21.192  1.00  0.00    -0.391 OA
ATOM     21  H   UNL     1      31.413  31.868  22.057  1.00  0.00     0.211 HD
ENDBRANCH  12  20
BRANCH  13  22
ATOM     22  N   UNL     1      29.037  32.767  19.293  1.00  0.00    -0.348 N 
ATOM     23  C   UNL     1      28.569  33.836  20.094  1.00  0.00     0.217 C 
ATOM     24  H   UNL     1      29.184  32.862  18.276  1.00  0.00     0.163 HD
ATOM     25  C   UNL     1      28.265  35.154  19.497  1.00  0.00     0.114 C 
ATOM     26  O   UNL     1      28.404  33.681  21.329  1.00  0.00    -0.275 OA
ENDBRANCH  13  22
ENDBRANCH   7   8
BRANCH   7  27
ATOM     27  O   UNL     1      26.625  30.011  18.982  1.00  0.00    -0.388 OA
ATOM     28  H   UNL     1      26.308  29.123  18.651  1.00  0.00     0.211 HD
ENDBRANCH   7  27
ENDBRANCH   6   7
BRANCH   6  29
ATOM     29  O   UNL     1      28.264  30.853  15.979  1.00  0.00    -0.388 OA
ATOM     30  H   UNL     1      27.518  31.011  15.327  1.00  0.00     0.211 HD
ENDBRANCH   6  29
ENDBRANCH   5   6
ENDBRANCH   1   5
BRANCH   2  31
ATOM     31  O   UNL     1      24.250  32.714  15.350  1.00  0.00    -0.443 OA
BRANCH  31  32
ATOM     32  C   UNL     1      24.848  33.951  14.943  1.00  0.00     0.294 C 
BRANCH  32  33
ATOM     33  C   UNL     1      26.297  33.957  15.246  1.00  0.00     0.120 A 
ATOM     34  C   UNL     1      27.319  34.159  14.306  1.00  0.00     0.138 A 
ATOM     35  N   UNL     1      26.944  33.783  16.403  1.00  0.00    -0.132 NA
ATOM     36  N   UNL     1      28.509  34.105  14.903  1.00  0.00    -0.251 N 
ATOM     37  N   UNL     1      28.249  33.870  16.210  1.00  0.00    -0.067 NA
BRANCH  36  38
ATOM     38  C   UNL     1      29.856  34.260  14.435  1.00  0.00     0.162 C 
BRANCH  38  39
ATOM     39  C   UNL     1      30.937  34.144  15.457  1.00  0.00     0.132 C 
BRANCH  39  40
ATOM     40  C   UNL     1      31.160  32.750  15.844  1.00  0.00     0.309 C 
ATOM     41  O   UNL     1      30.979  32.267  16.976  1.00  0.00    -0.252 OA
BRANCH  40  42
ATOM     42  O   UNL     1      31.624  31.830  14.880  1.00  0.00    -0.481 OA
ATOM     43  H   UNL     1      31.008  31.063  14.598  1.00  0.00     0.296 HD
ENDBRANCH  40  42
ENDBRANCH  39  40
BRANCH  39  44
ATOM     44  C   UNL     1      32.217  34.828  15.010  1.00  0.00     0.065 C 
BRANCH  44  45
ATOM     45  C   UNL     1      32.988  35.347  16.164  1.00  0.00    -0.040 A 
ATOM     46  C   UNL     1      32.417  35.443  17.438  1.00  0.00     0.004 A 
ATOM     47  C   UNL     1      34.302  35.758  16.043  1.00  0.00     0.004 A 
ATOM     48  C   UNL     1      33.133  35.924  18.512  1.00  0.00     0.000 A 
ATOM     49  C   UNL     1      35.029  36.239  17.101  1.00  0.00     0.000 A 
ATOM     50  C   UNL     1      34.459  36.329  18.345  1.00  0.00     0.000 A 
ENDBRANCH  44  45
BRANCH  44  51
ATOM     51  C   UNL     1      32.002  35.923  14.058  1.00  0.00    -0.040 A 
ATOM     52  C   UNL     1      32.555  35.786  12.778  1.00  0.00     0.004 A 
ATOM     53  C   UNL     1      31.293  37.067  14.349  1.00  0.00     0.004 A 
ATOM     54  C   UNL     1      32.374  36.790  11.856  1.00  0.00     0.000 A 
ATOM     55  C   UNL     1      31.111  38.074  13.428  1.00  0.00     0.000 A 
ATOM     56  C   UNL     1      31.656  37.947  12.155  1.00  0.00     0.000 A 
ENDBRANCH  44  51
ENDBRANCH  39  44
ENDBRANCH  38  39
ENDBRANCH  36  38
ENDBRANCH  32  33
ENDBRANCH  31  32
ENDBRANCH   2  31
TORSDOF 21
BEGIN_RES LYS A 131
REMARK  4 active torsions:
REMARK  status: ('A' for Active; 'I' for Inactive)
REMARK    1  A    between atoms: CA   and  CB  
REMARK    2  A    between atoms: CB   and  CG  
REMARK    3  A    between atoms: CG   and  CD  
REMARK    4  A    between atoms: CD   and  CE  
ROOT
ATOM      1  CA  LYS A 131      29.867  25.555  16.977  1.00 20.52     0.186 C 
ENDROOT
BRANCH   1   2
ATOM      2  CB  LYS A 131      28.345  25.722  17.026  1.00 20.94     0.034 C 
BRANCH   2   3
ATOM      3  CG  LYS A 131      27.601  24.402  16.892  1.00 22.96     0.005 C 
BRANCH   3   4
ATOM      4  CD  LYS A 131      26.244  24.449  17.537  1.00 24.33     0.041 C 
BRANCH   4   5
ATOM      5  CE  LYS A 131      26.060  25.790  18.239  1.00 26.91     0.338 C 
ATOM      6  NZ  LYS A 131      24.852  26.482  17.729  1.00 27.40     0.618 N 
ENDBRANCH   4   5
ENDBRANCH   3   4
ENDBRANCH   2   3
ENDBRANCH   1   2
END_RES LYS A 131
BEGIN_RES LYS A 135
REMARK  4 active torsions:
REMARK  status: ('A' for Active; 'I' for Inactive)
REMARK    5  A    between atoms: CA   and  CB  
REMARK    6  A    between atoms: CB   and  CG  
REMARK    7  A    between atoms: CG   and  CD  
REMARK    8  A    between atoms: CD   and  CE  
ROOT
ATOM      7  CA  LYS A 135      33.193  34.663   9.290  1.00 25.02     0.186 C 
ENDROOT
BRANCH   7   8
ATOM      8  CB  LYS A 135      32.060  35.360  10.034  1.00 26.63     0.034 C 
BRANCH   8   9
ATOM      9  CG  LYS A 135      30.696  34.811   9.705  1.00 29.45     0.005 C 
BRANCH   9  10
ATOM     10  CD  LYS A 135      30.370  35.030   8.235  1.00 32.00     0.041 C 
BRANCH  10  11
ATOM     11  CE  LYS A 135      28.891  34.811   7.980  1.00 34.25     0.338 C 
ATOM     12  NZ  LYS A 135      28.460  35.478   6.720  1.00 35.99     0.618 N 
ENDBRANCH  10  11
ENDBRANCH   9  10
ENDBRANCH   8   9
ENDBRANCH   7   8
END_RES LYS A 135
