REMARK VINA RESULT:    -5.157      0.000      0.000
REMARK INTER + INTRA:         -16.765
REMARK INTER:                  -9.934
REMARK INTRA:                  -6.830
REMARK UNBOUND:                -6.934
REMARK SMILES CC(=O)N[C@@H]1[C@@H](O)C[C@](O)(C(=O)O)O[C@H]1C(O)[C@H](O)CNC(=O)OCc1cn(C(C)CC(=O)c2ccccc2)nn1
REMARK SMILES IDX 21 1 22 2 23 3 20 5 18 6 16 7 15 8 9 9 8 10 14 11 6 12 5 13
REMARK SMILES IDX 10 14 11 16 12 17 13 18 7 20 4 22 2 23 1 25 3 26 17 27 19 29
REMARK SMILES IDX 24 31 25 32 26 33 27 34 41 35 28 36 40 37 29 38 30 39 31 40
REMARK SMILES IDX 32 41 33 42 34 43 35 44 39 45 36 46 38 47 37 48
REMARK H PARENT 21 4 10 15 13 19 7 21 4 24 17 28 19 30
REMARK Flexibility Score: inf
ROOT
ATOM      1  N   UNL     1      27.734  28.497  18.020  1.00  0.00    -0.319 N 
ATOM      2  C   UNL     1      27.333  29.211  16.855  1.00  0.00     0.407 C 
ATOM      3  O   UNL     1      26.125  29.234  16.554  1.00  0.00    -0.225 OA
ATOM      4  H   UNL     1      28.782  28.528  18.210  1.00  0.00     0.167 HD
ENDROOT
BRANCH   1   5
ATOM      5  C   UNL     1      26.829  27.783  18.893  1.00  0.00     0.154 C 
BRANCH   5   6
ATOM      6  C   UNL     1      27.377  27.661  20.298  1.00  0.00     0.165 C 
BRANCH   6   7
ATOM      7  C   UNL     1      28.879  27.852  20.336  1.00  0.00     0.176 C 
BRANCH   7   8
ATOM      8  C   UNL     1      29.311  28.925  21.289  1.00  0.00     0.178 C 
ATOM      9  C   UNL     1      30.275  30.594  19.972  1.00  0.00     0.269 C 
ATOM     10  C   UNL     1      31.659  30.294  20.492  1.00  0.00     0.112 C 
ATOM     11  O   UNL     1      29.246  30.190  20.769  1.00  0.00    -0.332 OA
ATOM     12  C   UNL     1      31.809  28.886  20.984  1.00  0.00     0.145 C 
ATOM     13  C   UNL     1      30.655  28.617  21.924  1.00  0.00     0.142 C 
BRANCH   9  14
ATOM     14  O   UNL     1      30.172  30.143  18.636  1.00  0.00    -0.357 OA
ATOM     15  H   UNL     1      30.960  29.642  18.353  1.00  0.00     0.214 HD
ENDBRANCH   9  14
BRANCH   9  16
ATOM     16  C   UNL     1      30.192  32.098  19.889  1.00  0.00     0.364 C 
ATOM     17  O   UNL     1      29.606  32.799  20.725  1.00  0.00    -0.246 OA
BRANCH  16  18
ATOM     18  O   UNL     1      30.841  32.661  18.777  1.00  0.00    -0.477 OA
ATOM     19  H   UNL     1      31.492  32.120  18.230  1.00  0.00     0.296 HD
ENDBRANCH  16  18
ENDBRANCH   9  16
BRANCH  12  20
ATOM     20  O   UNL     1      31.898  27.964  19.969  1.00  0.00    -0.391 OA
ATOM     21  H   UNL     1      32.340  28.368  19.185  1.00  0.00     0.211 HD
ENDBRANCH  12  20
BRANCH  13  22
ATOM     22  N   UNL     1      30.808  29.589  23.019  1.00  0.00    -0.348 N 
ATOM     23  C   UNL     1      31.282  29.138  24.281  1.00  0.00     0.217 C 
ATOM     24  H   UNL     1      30.580  30.594  22.900  1.00  0.00     0.163 HD
ATOM     25  C   UNL     1      31.431  30.133  25.375  1.00  0.00     0.114 C 
ATOM     26  O   UNL     1      31.556  27.927  24.426  1.00  0.00    -0.275 OA
ENDBRANCH  13  22
ENDBRANCH   7   8
BRANCH   7  27
ATOM     27  O   UNL     1      29.431  26.615  20.677  1.00  0.00    -0.388 OA
ATOM     28  H   UNL     1      29.761  26.659  21.624  1.00  0.00     0.211 HD
ENDBRANCH   7  27
ENDBRANCH   6   7
BRANCH   6  29
ATOM     29  O   UNL     1      27.037  26.392  20.808  1.00  0.00    -0.388 OA
ATOM     30  H   UNL     1      26.260  26.438  21.419  1.00  0.00     0.211 HD
ENDBRANCH   6  29
ENDBRANCH   5   6
ENDBRANCH   1   5
BRANCH   2  31
ATOM     31  O   UNL     1      28.224  29.880  16.047  1.00  0.00    -0.443 OA
BRANCH  31  32
ATOM     32  C   UNL     1      28.144  31.240  15.682  1.00  0.00     0.294 C 
BRANCH  32  33
ATOM     33  C   UNL     1      29.435  31.928  15.602  1.00  0.00     0.120 A 
ATOM     34  C   UNL     1      29.653  33.198  15.050  1.00  0.00     0.138 A 
ATOM     35  N   UNL     1      30.658  31.517  16.025  1.00  0.00    -0.132 NA
ATOM     36  N   UNL     1      30.936  33.483  15.161  1.00  0.00    -0.249 N 
ATOM     37  N   UNL     1      31.520  32.475  15.741  1.00  0.00    -0.067 NA
BRANCH  36  38
ATOM     38  C   UNL     1      31.578  34.752  14.692  1.00  0.00     0.114 C 
ATOM     39  C   UNL     1      30.879  35.060  13.394  1.00  0.00     0.034 C 
BRANCH  38  40
ATOM     40  C   UNL     1      31.341  35.749  15.726  1.00  0.00     0.108 C 
BRANCH  40  41
ATOM     41  C   UNL     1      32.028  35.684  16.977  1.00  0.00     0.164 C 
ATOM     42  O   UNL     1      31.201  35.434  17.998  1.00  0.00    -0.294 OA
BRANCH  41  43
ATOM     43  C   UNL     1      33.393  35.827  17.377  1.00  0.00     0.018 A 
ATOM     44  C   UNL     1      33.707  35.726  18.755  1.00  0.00     0.012 A 
ATOM     45  C   UNL     1      34.454  36.039  16.533  1.00  0.00     0.012 A 
ATOM     46  C   UNL     1      34.998  35.837  19.206  1.00  0.00     0.001 A 
ATOM     47  C   UNL     1      35.748  36.146  17.024  1.00  0.00     0.001 A 
ATOM     48  C   UNL     1      36.045  36.051  18.344  1.00  0.00     0.000 A 
ENDBRANCH  41  43
ENDBRANCH  40  41
ENDBRANCH  38  40
ENDBRANCH  36  38
ENDBRANCH  32  33
ENDBRANCH  31  32
ENDBRANCH   2  31
TORSDOF 18
BEGIN_RES LYS A 131
REMARK  4 active torsions:
REMARK  status: ('A' for Active; 'I' for Inactive)
REMARK    1  A    between atoms: CA   and  CB  
REMARK    2  A    between atoms: CB   and  CG  
REMARK    3  A    between atoms: CG   and  CD  
REMARK    4  A    between atoms: CD   and  CE  
ROOT
ATOM      1  CA  LYS A 131      29.867  25.555  16.977  1.00 20.52     0.186 C 
ENDROOT
BRANCH   1   2
ATOM      2  CB  LYS A 131      28.345  25.722  17.026  1.00 20.94     0.034 C 
BRANCH   2   3
ATOM      3  CG  LYS A 131      27.601  24.403  16.887  1.00 22.96     0.005 C 
BRANCH   3   4
ATOM      4  CD  LYS A 131      26.632  24.177  18.014  1.00 24.33     0.041 C 
BRANCH   4   5
ATOM      5  CE  LYS A 131      25.234  24.605  17.576  1.00 26.91     0.338 C 
ATOM      6  NZ  LYS A 131      24.214  24.083  18.517  1.00 27.40     0.618 N 
ENDBRANCH   4   5
ENDBRANCH   3   4
ENDBRANCH   2   3
ENDBRANCH   1   2
END_RES LYS A 131
BEGIN_RES LYS A 135
REMARK  4 active torsions:
REMARK  status: ('A' for Active; 'I' for Inactive)
REMARK    5  A    between atoms: CA   and  CB  
REMARK    6  A    between atoms: CB   and  CG  
REMARK    7  A    between atoms: CG   and  CD  
REMARK    8  A    between atoms: CD   and  CE  
ROOT
ATOM      7  CA  LYS A 135      33.193  34.663   9.290  1.00 25.02     0.186 C 
ENDROOT
BRANCH   7   8
ATOM      8  CB  LYS A 135      32.060  35.360  10.034  1.00 26.63     0.034 C 
BRANCH   8   9
ATOM      9  CG  LYS A 135      30.709  34.737   9.794  1.00 29.45     0.005 C 
BRANCH   9  10
ATOM     10  CD  LYS A 135      30.467  34.538   8.306  1.00 32.00     0.041 C 
BRANCH  10  11
ATOM     11  CE  LYS A 135      29.020  34.831   7.958  1.00 34.25     0.338 C 
ATOM     12  NZ  LYS A 135      28.916  35.557   6.661  1.00 35.99     0.618 N 
ENDBRANCH  10  11
ENDBRANCH   9  10
ENDBRANCH   8   9
ENDBRANCH   7   8
END_RES LYS A 135
