REMARK VINA RESULT:    -4.825      2.618      4.683
REMARK INTER + INTRA:         -16.131
REMARK INTER:                  -9.162
REMARK INTRA:                  -6.968
REMARK UNBOUND:                -6.934
REMARK SMILES CC(=O)N[C@@H]1[C@@H](O)C[C@](O)(C(=O)O)O[C@H]1C(O)[C@H](O)CNC(=O)OCc1cn(C(C)CC(=O)c2ccccc2)nn1
REMARK SMILES IDX 21 1 22 2 23 3 20 5 18 6 16 7 15 8 9 9 8 10 14 11 6 12 5 13
REMARK SMILES IDX 10 14 11 16 12 17 13 18 7 20 4 22 2 23 1 25 3 26 17 27 19 29
REMARK SMILES IDX 24 31 25 32 26 33 27 34 41 35 28 36 40 37 29 38 30 39 31 40
REMARK SMILES IDX 32 41 33 42 34 43 35 44 39 45 36 46 38 47 37 48
REMARK H PARENT 21 4 10 15 13 19 7 21 4 24 17 28 19 30
REMARK Flexibility Score: inf
ROOT
ATOM      1  N   UNL     1      28.137  31.572  20.970  1.00  0.00    -0.319 N 
ATOM      2  C   UNL     1      27.147  30.852  21.698  1.00  0.00     0.407 C 
ATOM      3  O   UNL     1      27.429  30.429  22.834  1.00  0.00    -0.225 OA
ATOM      4  H   UNL     1      27.818  31.901  20.009  1.00  0.00     0.167 HD
ENDROOT
BRANCH   1   5
ATOM      5  C   UNL     1      29.469  31.852  21.460  1.00  0.00     0.154 C 
BRANCH   5   6
ATOM      6  C   UNL     1      30.533  31.445  20.465  1.00  0.00     0.165 C 
BRANCH   6   7
ATOM      7  C   UNL     1      30.644  29.940  20.341  1.00  0.00     0.176 C 
BRANCH   7   8
ATOM      8  C   UNL     1      30.464  29.228  21.648  1.00  0.00     0.178 C 
ATOM      9  C   UNL     1      32.618  28.800  22.439  1.00  0.00     0.269 C 
ATOM     10  C   UNL     1      32.479  27.317  22.203  1.00  0.00     0.112 C 
ATOM     11  O   UNL     1      31.449  29.488  22.563  1.00  0.00    -0.332 OA
ATOM     12  C   UNL     1      31.480  26.983  21.137  1.00  0.00     0.145 C 
ATOM     13  C   UNL     1      30.212  27.743  21.458  1.00  0.00     0.142 C 
BRANCH   9  14
ATOM     14  O   UNL     1      33.501  29.343  21.479  1.00  0.00    -0.357 OA
ATOM     15  H   UNL     1      34.405  29.457  21.831  1.00  0.00     0.214 HD
ENDBRANCH   9  14
BRANCH   9  16
ATOM     16  C   UNL     1      33.338  28.932  23.759  1.00  0.00     0.364 C 
ATOM     17  O   UNL     1      34.334  29.648  23.927  1.00  0.00    -0.246 OA
BRANCH  16  18
ATOM     18  O   UNL     1      32.788  28.172  24.806  1.00  0.00    -0.477 OA
ATOM     19  H   UNL     1      31.790  28.088  24.914  1.00  0.00     0.296 HD
ENDBRANCH  16  18
ENDBRANCH   9  16
BRANCH  12  20
ATOM     20  O   UNL     1      31.942  27.229  19.865  1.00  0.00    -0.391 OA
ATOM     21  H   UNL     1      31.972  28.201  19.700  1.00  0.00     0.211 HD
ENDBRANCH  12  20
BRANCH  13  22
ATOM     22  N   UNL     1      29.781  27.244  22.775  1.00  0.00    -0.348 N 
ATOM     23  C   UNL     1      28.401  26.981  22.995  1.00  0.00     0.217 C 
ATOM     24  H   UNL     1      30.452  27.077  23.548  1.00  0.00     0.163 HD
ATOM     25  C   UNL     1      27.983  26.477  24.328  1.00  0.00     0.114 C 
ATOM     26  O   UNL     1      27.592  27.182  22.063  1.00  0.00    -0.275 OA
ENDBRANCH  13  22
ENDBRANCH   7   8
BRANCH   7  27
ATOM     27  O   UNL     1      29.683  29.543  19.409  1.00  0.00    -0.388 OA
ATOM     28  H   UNL     1      30.034  28.752  18.900  1.00  0.00     0.211 HD
ENDBRANCH   7  27
ENDBRANCH   6   7
BRANCH   6  29
ATOM     29  O   UNL     1      31.767  31.990  20.875  1.00  0.00    -0.388 OA
ATOM     30  H   UNL     1      31.717  32.368  21.788  1.00  0.00     0.211 HD
ENDBRANCH   6  29
ENDBRANCH   5   6
ENDBRANCH   1   5
BRANCH   2  31
ATOM     31  O   UNL     1      25.888  30.604  21.198  1.00  0.00    -0.443 OA
BRANCH  31  32
ATOM     32  C   UNL     1      25.504  29.461  20.467  1.00  0.00     0.294 C 
BRANCH  32  33
ATOM     33  C   UNL     1      26.199  29.291  19.188  1.00  0.00     0.120 A 
ATOM     34  C   UNL     1      26.249  30.233  18.152  1.00  0.00     0.138 A 
ATOM     35  N   UNL     1      26.921  28.235  18.735  1.00  0.00    -0.132 NA
ATOM     36  N   UNL     1      26.966  29.728  17.167  1.00  0.00    -0.249 N 
ATOM     37  N   UNL     1      27.358  28.540  17.528  1.00  0.00    -0.067 NA
BRANCH  36  38
ATOM     38  C   UNL     1      27.260  30.423  15.874  1.00  0.00     0.114 C 
ATOM     39  C   UNL     1      25.906  30.613  15.242  1.00  0.00     0.034 C 
BRANCH  38  40
ATOM     40  C   UNL     1      27.920  31.676  16.211  1.00  0.00     0.108 C 
BRANCH  40  41
ATOM     41  C   UNL     1      29.326  31.839  16.012  1.00  0.00     0.164 C 
ATOM     42  O   UNL     1      30.035  30.849  16.562  1.00  0.00    -0.294 OA
BRANCH  41  43
ATOM     43  C   UNL     1      30.136  32.821  15.362  1.00  0.00     0.018 A 
ATOM     44  C   UNL     1      31.462  33.014  15.821  1.00  0.00     0.012 A 
ATOM     45  C   UNL     1      29.749  33.599  14.298  1.00  0.00     0.012 A 
ATOM     46  C   UNL     1      32.299  33.927  15.232  1.00  0.00     0.001 A 
ATOM     47  C   UNL     1      30.624  34.513  13.727  1.00  0.00     0.001 A 
ATOM     48  C   UNL     1      31.892  34.696  14.170  1.00  0.00     0.000 A 
ENDBRANCH  41  43
ENDBRANCH  40  41
ENDBRANCH  38  40
ENDBRANCH  36  38
ENDBRANCH  32  33
ENDBRANCH  31  32
ENDBRANCH   2  31
TORSDOF 18
BEGIN_RES LYS A 131
REMARK  4 active torsions:
REMARK  status: ('A' for Active; 'I' for Inactive)
REMARK    1  A    between atoms: CA   and  CB  
REMARK    2  A    between atoms: CB   and  CG  
REMARK    3  A    between atoms: CG   and  CD  
REMARK    4  A    between atoms: CD   and  CE  
ROOT
ATOM      1  CA  LYS A 131      29.867  25.555  16.977  1.00 20.52     0.186 C 
ENDROOT
BRANCH   1   2
ATOM      2  CB  LYS A 131      28.345  25.722  17.026  1.00 20.94     0.034 C 
BRANCH   2   3
ATOM      3  CG  LYS A 131      27.601  24.402  16.893  1.00 22.96     0.005 C 
BRANCH   3   4
ATOM      4  CD  LYS A 131      26.644  24.175  18.030  1.00 24.33     0.041 C 
BRANCH   4   5
ATOM      5  CE  LYS A 131      25.387  25.012  17.813  1.00 26.91     0.338 C 
ATOM      6  NZ  LYS A 131      24.493  24.359  16.828  1.00 27.40     0.618 N 
ENDBRANCH   4   5
ENDBRANCH   3   4
ENDBRANCH   2   3
ENDBRANCH   1   2
END_RES LYS A 131
BEGIN_RES LYS A 135
REMARK  4 active torsions:
REMARK  status: ('A' for Active; 'I' for Inactive)
REMARK    5  A    between atoms: CA   and  CB  
REMARK    6  A    between atoms: CB   and  CG  
REMARK    7  A    between atoms: CG   and  CD  
REMARK    8  A    between atoms: CD   and  CE  
ROOT
ATOM      7  CA  LYS A 135      33.193  34.663   9.290  1.00 25.02     0.186 C 
ENDROOT
BRANCH   7   8
ATOM      8  CB  LYS A 135      32.060  35.360  10.034  1.00 26.63     0.034 C 
BRANCH   8   9
ATOM      9  CG  LYS A 135      30.790  35.470   9.231  1.00 29.45     0.005 C 
BRANCH   9  10
ATOM     10  CD  LYS A 135      29.977  34.189   9.333  1.00 32.00     0.041 C 
BRANCH  10  11
ATOM     11  CE  LYS A 135      28.576  34.402   8.794  1.00 34.25     0.338 C 
ATOM     12  NZ  LYS A 135      27.568  33.682   9.621  1.00 35.99     0.618 N 
ENDBRANCH  10  11
ENDBRANCH   9  10
ENDBRANCH   8   9
ENDBRANCH   7   8
END_RES LYS A 135
