REMARK VINA RESULT:    -5.189      4.510      7.203
REMARK INTER + INTRA:         -14.599
REMARK INTER:                  -8.458
REMARK INTRA:                  -6.141
REMARK UNBOUND:                -5.011
REMARK SMILES CC(=O)N[C@@H]1[C@@H](O)C[C@](O)(C(=O)O)O[C@H]1C(O)[C@H](O)CNC(=O)OCc1cn(CS(=O)(=O)c2ccccc2)nn1
REMARK SMILES IDX 21 1 22 2 23 3 20 5 18 6 16 7 15 8 9 9 8 10 14 11 6 12 5 13
REMARK SMILES IDX 10 14 11 16 12 17 13 18 7 20 4 22 2 23 1 25 3 26 17 27 19 29
REMARK SMILES IDX 24 31 25 32 26 33 27 34 40 35 28 36 39 37 29 38 30 39 31 40
REMARK SMILES IDX 32 41 33 42 34 43 38 44 35 45 37 46 36 47
REMARK H PARENT 21 4 10 15 13 19 7 21 4 24 17 28 19 30
REMARK Flexibility Score: inf
ROOT
ATOM      1  N   UNL     1      31.133  33.825  18.286  1.00  0.00    -0.319 N 
ATOM      2  C   UNL     1      31.262  34.557  19.522  1.00  0.00     0.407 C 
ATOM      3  O   UNL     1      30.635  34.166  20.517  1.00  0.00    -0.225 OA
ATOM      4  H   UNL     1      31.694  34.213  17.504  1.00  0.00     0.167 HD
ENDROOT
BRANCH   1   5
ATOM      5  C   UNL     1      30.283  32.651  18.211  1.00  0.00     0.154 C 
BRANCH   5   6
ATOM      6  C   UNL     1      30.120  32.147  16.817  1.00  0.00     0.165 C 
BRANCH   6   7
ATOM      7  C   UNL     1      30.854  32.934  15.786  1.00  0.00     0.176 C 
BRANCH   7   8
ATOM      8  C   UNL     1      30.038  33.605  14.741  1.00  0.00     0.178 C 
ATOM      9  C   UNL     1      31.722  35.093  14.093  1.00  0.00     0.269 C 
ATOM     10  C   UNL     1      31.259  36.043  15.148  1.00  0.00     0.112 C 
ATOM     11  O   UNL     1      30.850  34.101  13.724  1.00  0.00    -0.332 OA
ATOM     12  C   UNL     1      29.839  35.956  15.552  1.00  0.00     0.145 C 
ATOM     13  C   UNL     1      29.128  34.706  15.117  1.00  0.00     0.142 C 
BRANCH   9  14
ATOM     14  O   UNL     1      32.913  34.465  14.461  1.00  0.00    -0.357 OA
ATOM     15  H   UNL     1      33.175  33.734  13.879  1.00  0.00     0.214 HD
ENDBRANCH   9  14
BRANCH   9  16
ATOM     16  C   UNL     1      32.014  35.863  12.856  1.00  0.00     0.364 C 
ATOM     17  O   UNL     1      31.218  36.754  12.489  1.00  0.00    -0.246 OA
BRANCH  16  18
ATOM     18  O   UNL     1      33.141  35.644  12.074  1.00  0.00    -0.477 OA
ATOM     19  H   UNL     1      34.042  35.393  12.504  1.00  0.00     0.296 HD
ENDBRANCH  16  18
ENDBRANCH   9  16
BRANCH  12  20
ATOM     20  O   UNL     1      29.741  36.137  16.930  1.00  0.00    -0.391 OA
ATOM     21  H   UNL     1      28.889  36.521  17.205  1.00  0.00     0.211 HD
ENDBRANCH  12  20
BRANCH  13  22
ATOM     22  N   UNL     1      28.235  34.967  13.984  1.00  0.00    -0.348 N 
ATOM     23  C   UNL     1      26.970  34.350  13.874  1.00  0.00     0.217 C 
ATOM     24  H   UNL     1      28.529  35.622  13.234  1.00  0.00     0.163 HD
ATOM     25  C   UNL     1      26.048  34.605  12.726  1.00  0.00     0.114 C 
ATOM     26  O   UNL     1      26.633  33.561  14.791  1.00  0.00    -0.275 OA
ENDBRANCH  13  22
ENDBRANCH   7   8
BRANCH   7  27
ATOM     27  O   UNL     1      31.520  31.883  15.015  1.00  0.00    -0.388 OA
ATOM     28  H   UNL     1      30.848  31.551  14.394  1.00  0.00     0.211 HD
ENDBRANCH   7  27
ENDBRANCH   6   7
BRANCH   6  29
ATOM     29  O   UNL     1      28.833  31.817  16.443  1.00  0.00    -0.388 OA
ATOM     30  H   UNL     1      28.154  32.163  17.072  1.00  0.00     0.211 HD
ENDBRANCH   6  29
ENDBRANCH   5   6
ENDBRANCH   1   5
BRANCH   2  31
ATOM     31  O   UNL     1      32.066  35.676  19.612  1.00  0.00    -0.443 OA
BRANCH  31  32
ATOM     32  C   UNL     1      33.461  35.599  19.845  1.00  0.00     0.294 C 
BRANCH  32  33
ATOM     33  C   UNL     1      34.235  35.897  18.631  1.00  0.00     0.120 A 
ATOM     34  C   UNL     1      35.474  36.454  18.481  1.00  0.00     0.139 A 
ATOM     35  N   UNL     1      33.802  35.646  17.378  1.00  0.00    -0.132 NA
ATOM     36  N   UNL     1      35.753  36.524  17.155  1.00  0.00    -0.237 N 
ATOM     37  N   UNL     1      34.714  36.024  16.508  1.00  0.00    -0.066 NA
BRANCH  36  38
ATOM     38  C   UNL     1      36.971  37.054  16.602  1.00  0.00     0.287 C 
BRANCH  38  39
ATOM     39  S   UNL     1      38.057  35.725  16.102  1.00  0.00     0.198 S 
ATOM     40  O   UNL     1      39.275  36.341  15.461  1.00  0.00    -0.222 OA
ATOM     41  O   UNL     1      37.329  34.894  15.113  1.00  0.00    -0.222 OA
BRANCH  39  42
ATOM     42  C   UNL     1      38.505  34.804  17.526  1.00  0.00     0.069 A 
ATOM     43  C   UNL     1      38.434  33.417  17.455  1.00  0.00     0.020 A 
ATOM     44  C   UNL     1      38.911  35.449  18.670  1.00  0.00     0.020 A 
ATOM     45  C   UNL     1      38.786  32.698  18.571  1.00  0.00     0.001 A 
ATOM     46  C   UNL     1      39.252  34.681  19.763  1.00  0.00     0.001 A 
ATOM     47  C   UNL     1      39.202  33.308  19.751  1.00  0.00     0.000 A 
ENDBRANCH  39  42
ENDBRANCH  38  39
ENDBRANCH  36  38
ENDBRANCH  32  33
ENDBRANCH  31  32
ENDBRANCH   2  31
TORSDOF 17
BEGIN_RES LYS A 131
REMARK  4 active torsions:
REMARK  status: ('A' for Active; 'I' for Inactive)
REMARK    1  A    between atoms: CA   and  CB  
REMARK    2  A    between atoms: CB   and  CG  
REMARK    3  A    between atoms: CG   and  CD  
REMARK    4  A    between atoms: CD   and  CE  
ROOT
ATOM      1  CA  LYS A 131      29.867  25.555  16.977  1.00 20.52     0.186 C 
ENDROOT
BRANCH   1   2
ATOM      2  CB  LYS A 131      28.345  25.722  17.026  1.00 20.94     0.034 C 
BRANCH   2   3
ATOM      3  CG  LYS A 131      27.602  24.399  16.920  1.00 22.96     0.005 C 
BRANCH   3   4
ATOM      4  CD  LYS A 131      26.448  24.319  17.880  1.00 24.33     0.041 C 
BRANCH   4   5
ATOM      5  CE  LYS A 131      25.137  24.294  17.100  1.00 26.91     0.338 C 
ATOM      6  NZ  LYS A 131      24.385  23.051  17.389  1.00 27.40     0.618 N 
ENDBRANCH   4   5
ENDBRANCH   3   4
ENDBRANCH   2   3
ENDBRANCH   1   2
END_RES LYS A 131
BEGIN_RES LYS A 135
REMARK  4 active torsions:
REMARK  status: ('A' for Active; 'I' for Inactive)
REMARK    5  A    between atoms: CA   and  CB  
REMARK    6  A    between atoms: CB   and  CG  
REMARK    7  A    between atoms: CG   and  CD  
REMARK    8  A    between atoms: CD   and  CE  
ROOT
ATOM      7  CA  LYS A 135      33.193  34.663   9.290  1.00 25.02     0.186 C 
ENDROOT
BRANCH   7   8
ATOM      8  CB  LYS A 135      32.060  35.360  10.034  1.00 26.63     0.034 C 
BRANCH   8   9
ATOM      9  CG  LYS A 135      30.801  35.501   9.219  1.00 29.45     0.005 C 
BRANCH   9  10
ATOM     10  CD  LYS A 135      30.139  34.147   9.015  1.00 32.00     0.041 C 
BRANCH  10  11
ATOM     11  CE  LYS A 135      28.680  34.318   8.635  1.00 34.25     0.338 C 
ATOM     12  NZ  LYS A 135      27.785  33.683   9.642  1.00 35.99     0.618 N 
ENDBRANCH  10  11
ENDBRANCH   9  10
ENDBRANCH   8   9
ENDBRANCH   7   8
END_RES LYS A 135
