REMARK VINA RESULT:    -4.052      5.824      9.643
REMARK INTER + INTRA:         -14.020
REMARK INTER:                  -7.839
REMARK INTRA:                  -6.180
REMARK UNBOUND:                -7.007
REMARK SMILES CC(=O)N[C@@H]1[C@@H](O)C[C@](O)(C(=O)O)O[C@H]1C(O)[C@H](O)CNC(=O)OCc1cn(-c2ccc(Cl)cc2)nn1
REMARK SMILES IDX 20 1 18 2 16 3 15 4 9 5 8 6 14 7 6 8 5 9 10 10 11 12 12 13
REMARK SMILES IDX 13 14 7 16 4 18 2 19 1 21 3 22 17 23 19 25 21 27 22 28 23 30
REMARK SMILES IDX 24 31 25 32 26 33 27 34 37 35 28 36 36 37 29 38 30 39 35 40
REMARK SMILES IDX 31 41 34 42 32 43 33 44
REMARK H PARENT 10 11 13 15 7 17 4 20 17 24 19 26 21 29
REMARK Flexibility Score: inf
ROOT
ATOM      1  C   UNL     1      32.754  34.974  14.858  1.00  0.00     0.154 C 
ENDROOT
BRANCH   1   2
ATOM      2  C   UNL     1      32.078  36.249  15.250  1.00  0.00     0.165 C 
BRANCH   2   3
ATOM      3  C   UNL     1      31.884  37.090  13.978  1.00  0.00     0.176 C 
BRANCH   3   4
ATOM      4  C   UNL     1      30.412  37.445  13.777  1.00  0.00     0.178 C 
ATOM      5  C   UNL     1      29.063  35.564  13.381  1.00  0.00     0.269 C 
ATOM      6  C   UNL     1      28.118  36.252  12.420  1.00  0.00     0.112 C 
ATOM      7  O   UNL     1      29.688  36.376  14.264  1.00  0.00    -0.332 OA
ATOM      8  C   UNL     1      28.564  37.656  12.223  1.00  0.00     0.145 C 
ATOM      9  C   UNL     1      30.073  37.709  12.368  1.00  0.00     0.142 C 
BRANCH   5  10
ATOM     10  O   UNL     1      29.917  34.789  12.600  1.00  0.00    -0.357 OA
ATOM     11  H   UNL     1      29.374  34.029  12.269  1.00  0.00     0.214 HD
ENDBRANCH   5  10
BRANCH   5  12
ATOM     12  C   UNL     1      28.222  34.623  14.164  1.00  0.00     0.364 C 
ATOM     13  O   UNL     1      27.177  34.186  13.632  1.00  0.00    -0.246 OA
BRANCH  12  14
ATOM     14  O   UNL     1      28.556  34.230  15.431  1.00  0.00    -0.477 OA
ATOM     15  H   UNL     1      29.476  34.472  15.809  1.00  0.00     0.296 HD
ENDBRANCH  12  14
ENDBRANCH   5  12
BRANCH   8  16
ATOM     16  O   UNL     1      28.134  38.212  11.025  1.00  0.00    -0.391 OA
ATOM     17  H   UNL     1      27.350  37.737  10.681  1.00  0.00     0.211 HD
ENDBRANCH   8  16
BRANCH   9  18
ATOM     18  N   UNL     1      30.516  38.933  11.794  1.00  0.00    -0.348 N 
ATOM     19  C   UNL     1      31.577  39.018  10.861  1.00  0.00     0.217 C 
ATOM     20  H   UNL     1      29.999  39.797  12.109  1.00  0.00     0.163 HD
ATOM     21  C   UNL     1      32.009  40.308  10.287  1.00  0.00     0.114 C 
ATOM     22  O   UNL     1      32.109  37.912  10.570  1.00  0.00    -0.275 OA
ENDBRANCH   9  18
ENDBRANCH   3   4
BRANCH   3  23
ATOM     23  O   UNL     1      32.358  36.382  12.869  1.00  0.00    -0.388 OA
ATOM     24  H   UNL     1      32.229  35.398  12.981  1.00  0.00     0.211 HD
ENDBRANCH   3  23
ENDBRANCH   2   3
BRANCH   2  25
ATOM     25  O   UNL     1      32.764  36.955  16.212  1.00  0.00    -0.388 OA
ATOM     26  H   UNL     1      33.573  37.414  15.926  1.00  0.00     0.211 HD
ENDBRANCH   2  25
ENDBRANCH   1   2
BRANCH   1  27
ATOM     27  N   UNL     1      31.914  33.835  14.695  1.00  0.00    -0.319 N 
ATOM     28  C   UNL     1      31.420  33.030  15.752  1.00  0.00     0.407 C 
ATOM     29  H   UNL     1      31.623  33.550  13.719  1.00  0.00     0.167 HD
ATOM     30  O   UNL     1      31.688  33.273  16.940  1.00  0.00    -0.225 OA
BRANCH  28  31
ATOM     31  O   UNL     1      30.602  31.919  15.469  1.00  0.00    -0.443 OA
BRANCH  31  32
ATOM     32  C   UNL     1      30.033  31.149  16.524  1.00  0.00     0.294 C 
BRANCH  32  33
ATOM     33  C   UNL     1      28.562  31.313  16.429  1.00  0.00     0.121 A 
ATOM     34  C   UNL     1      27.740  30.686  15.539  1.00  0.00     0.144 A 
ATOM     35  N   UNL     1      27.801  32.090  17.185  1.00  0.00    -0.131 NA
ATOM     36  N   UNL     1      26.486  31.113  15.790  1.00  0.00    -0.220 N 
ATOM     37  N   UNL     1      26.539  31.968  16.795  1.00  0.00    -0.062 NA
BRANCH  36  38
ATOM     38  C   UNL     1      25.345  30.669  15.050  1.00  0.00     0.066 A 
ATOM     39  C   UNL     1      24.566  29.655  15.553  1.00  0.00     0.030 A 
ATOM     40  C   UNL     1      25.078  31.285  13.854  1.00  0.00     0.030 A 
ATOM     41  C   UNL     1      23.474  29.256  14.806  1.00  0.00     0.023 A 
ATOM     42  C   UNL     1      23.979  30.864  13.132  1.00  0.00     0.023 A 
ATOM     43  C   UNL     1      23.170  29.854  13.592  1.00  0.00     0.041 A 
ATOM     44  Cl  UNL     1      21.799  29.368  12.633  1.00  0.00    -0.084 Cl
ENDBRANCH  36  38
ENDBRANCH  32  33
ENDBRANCH  31  32
ENDBRANCH  28  31
ENDBRANCH   1  27
TORSDOF 15
BEGIN_RES LYS A 131
REMARK  4 active torsions:
REMARK  status: ('A' for Active; 'I' for Inactive)
REMARK    1  A    between atoms: CA   and  CB  
REMARK    2  A    between atoms: CB   and  CG  
REMARK    3  A    between atoms: CG   and  CD  
REMARK    4  A    between atoms: CD   and  CE  
ROOT
ATOM      1  CA  LYS A 131      29.867  25.555  16.977  1.00 20.52     0.186 C 
ENDROOT
BRANCH   1   2
ATOM      2  CB  LYS A 131      28.345  25.722  17.026  1.00 20.94     0.034 C 
BRANCH   2   3
ATOM      3  CG  LYS A 131      27.601  24.402  16.891  1.00 22.96     0.005 C 
BRANCH   3   4
ATOM      4  CD  LYS A 131      26.708  24.132  18.070  1.00 24.33     0.041 C 
BRANCH   4   5
ATOM      5  CE  LYS A 131      25.995  25.419  18.474  1.00 26.91     0.338 C 
ATOM      6  NZ  LYS A 131      24.741  25.582  17.702  1.00 27.40     0.618 N 
ENDBRANCH   4   5
ENDBRANCH   3   4
ENDBRANCH   2   3
ENDBRANCH   1   2
END_RES LYS A 131
BEGIN_RES LYS A 135
REMARK  4 active torsions:
REMARK  status: ('A' for Active; 'I' for Inactive)
REMARK    5  A    between atoms: CA   and  CB  
REMARK    6  A    between atoms: CB   and  CG  
REMARK    7  A    between atoms: CG   and  CD  
REMARK    8  A    between atoms: CD   and  CE  
ROOT
ATOM      7  CA  LYS A 135      33.193  34.663   9.290  1.00 25.02     0.186 C 
ENDROOT
BRANCH   7   8
ATOM      8  CB  LYS A 135      32.060  35.360  10.034  1.00 26.63     0.034 C 
BRANCH   8   9
ATOM      9  CG  LYS A 135      30.775  35.425   9.250  1.00 29.45     0.005 C 
BRANCH   9  10
ATOM     10  CD  LYS A 135      30.148  34.045   9.131  1.00 32.00     0.041 C 
BRANCH  10  11
ATOM     11  CE  LYS A 135      28.647  34.155   8.942  1.00 34.25     0.338 C 
ATOM     12  NZ  LYS A 135      28.226  35.578   8.817  1.00 35.99     0.618 N 
ENDBRANCH  10  11
ENDBRANCH   9  10
ENDBRANCH   8   9
ENDBRANCH   7   8
END_RES LYS A 135
