REMARK VINA RESULT:    -5.128      7.470     13.499
REMARK INTER + INTRA:         -14.486
REMARK INTER:                  -9.398
REMARK INTRA:                  -5.088
REMARK UNBOUND:                -5.011
REMARK SMILES CC(=O)N[C@@H]1[C@@H](O)C[C@](O)(C(=O)O)O[C@H]1C(O)[C@H](O)CNC(=O)OCc1cn(CS(=O)(=O)c2ccccc2)nn1
REMARK SMILES IDX 21 1 22 2 23 3 20 5 18 6 16 7 15 8 9 9 8 10 14 11 6 12 5 13
REMARK SMILES IDX 10 14 11 16 12 17 13 18 7 20 4 22 2 23 1 25 3 26 17 27 19 29
REMARK SMILES IDX 24 31 25 32 26 33 27 34 40 35 28 36 39 37 29 38 30 39 31 40
REMARK SMILES IDX 32 41 33 42 34 43 38 44 35 45 37 46 36 47
REMARK H PARENT 21 4 10 15 13 19 7 21 4 24 17 28 19 30
REMARK Flexibility Score: inf
ROOT
ATOM      1  N   UNL     1      26.851  40.898   6.652  1.00  0.00    -0.319 N 
ATOM      2  C   UNL     1      25.672  41.371   5.969  1.00  0.00     0.407 C 
ATOM      3  O   UNL     1      25.631  41.306   4.732  1.00  0.00    -0.225 OA
ATOM      4  H   UNL     1      26.803  40.982   7.685  1.00  0.00     0.167 HD
ENDROOT
BRANCH   1   5
ATOM      5  C   UNL     1      27.970  40.358   5.901  1.00  0.00     0.154 C 
BRANCH   5   6
ATOM      6  C   UNL     1      27.748  38.948   5.472  1.00  0.00     0.165 C 
BRANCH   6   7
ATOM      7  C   UNL     1      28.743  37.975   6.008  1.00  0.00     0.176 C 
BRANCH   7   8
ATOM      8  C   UNL     1      28.800  37.813   7.484  1.00  0.00     0.178 C 
ATOM      9  C   UNL     1      29.042  35.487   7.422  1.00  0.00     0.269 C 
ATOM     10  C   UNL     1      27.554  35.355   7.407  1.00  0.00     0.112 C 
ATOM     11  O   UNL     1      29.554  36.693   7.827  1.00  0.00    -0.332 OA
ATOM     12  C   UNL     1      26.777  36.454   8.019  1.00  0.00     0.145 C 
ATOM     13  C   UNL     1      27.548  37.722   8.260  1.00  0.00     0.142 C 
BRANCH   9  14
ATOM     14  O   UNL     1      29.589  35.218   6.167  1.00  0.00    -0.357 OA
ATOM     15  H   UNL     1      28.936  35.158   5.451  1.00  0.00     0.214 HD
ENDBRANCH   9  14
BRANCH   9  16
ATOM     16  C   UNL     1      29.599  34.471   8.353  1.00  0.00     0.364 C 
ATOM     17  O   UNL     1      28.829  33.865   9.128  1.00  0.00    -0.246 OA
BRANCH  16  18
ATOM     18  O   UNL     1      30.950  34.154   8.409  1.00  0.00    -0.477 OA
ATOM     19  H   UNL     1      31.468  33.897   7.557  1.00  0.00     0.296 HD
ENDBRANCH  16  18
ENDBRANCH   9  16
BRANCH  12  20
ATOM     20  O   UNL     1      25.640  36.696   7.251  1.00  0.00    -0.391 OA
ATOM     21  H   UNL     1      25.817  37.257   6.474  1.00  0.00     0.211 HD
ENDBRANCH  12  20
BRANCH  13  22
ATOM     22  N   UNL     1      27.878  37.882   9.680  1.00  0.00    -0.348 N 
ATOM     23  C   UNL     1      27.638  39.090  10.370  1.00  0.00     0.217 C 
ATOM     24  H   UNL     1      28.302  37.093  10.204  1.00  0.00     0.163 HD
ATOM     25  C   UNL     1      27.969  39.270  11.815  1.00  0.00     0.114 C 
ATOM     26  O   UNL     1      27.125  40.033   9.717  1.00  0.00    -0.275 OA
ENDBRANCH  13  22
ENDBRANCH   7   8
BRANCH   7  27
ATOM     27  O   UNL     1      30.011  38.651   5.732  1.00  0.00    -0.388 OA
ATOM     28  H   UNL     1      30.545  38.008   5.232  1.00  0.00     0.211 HD
ENDBRANCH   7  27
ENDBRANCH   6   7
BRANCH   6  29
ATOM     29  O   UNL     1      27.465  38.763   4.134  1.00  0.00    -0.388 OA
ATOM     30  H   UNL     1      26.547  38.431   3.982  1.00  0.00     0.211 HD
ENDBRANCH   6  29
ENDBRANCH   5   6
ENDBRANCH   1   5
BRANCH   2  31
ATOM     31  O   UNL     1      24.598  41.888   6.667  1.00  0.00    -0.443 OA
BRANCH  31  32
ATOM     32  C   UNL     1      24.263  41.468   7.977  1.00  0.00     0.294 C 
BRANCH  32  33
ATOM     33  C   UNL     1      23.530  40.193   7.971  1.00  0.00     0.120 A 
ATOM     34  C   UNL     1      22.330  39.856   8.529  1.00  0.00     0.139 A 
ATOM     35  N   UNL     1      23.970  39.071   7.364  1.00  0.00    -0.132 NA
ATOM     36  N   UNL     1      22.078  38.553   8.249  1.00  0.00    -0.237 N 
ATOM     37  N   UNL     1      23.098  38.101   7.537  1.00  0.00    -0.066 NA
BRANCH  36  38
ATOM     38  C   UNL     1      20.904  37.836   8.669  1.00  0.00     0.287 C 
BRANCH  38  39
ATOM     39  S   UNL     1      21.356  36.247   9.352  1.00  0.00     0.198 S 
ATOM     40  O   UNL     1      21.652  35.318   8.203  1.00  0.00    -0.222 OA
ATOM     41  O   UNL     1      20.196  35.742  10.127  1.00  0.00    -0.222 OA
BRANCH  39  42
ATOM     42  C   UNL     1      22.775  36.457  10.361  1.00  0.00     0.069 A 
ATOM     43  C   UNL     1      23.856  35.608  10.150  1.00  0.00     0.020 A 
ATOM     44  C   UNL     1      22.802  37.434  11.327  1.00  0.00     0.020 A 
ATOM     45  C   UNL     1      24.967  35.774  10.941  1.00  0.00     0.001 A 
ATOM     46  C   UNL     1      23.940  37.559  12.094  1.00  0.00     0.001 A 
ATOM     47  C   UNL     1      25.039  36.750  11.931  1.00  0.00     0.000 A 
ENDBRANCH  39  42
ENDBRANCH  38  39
ENDBRANCH  36  38
ENDBRANCH  32  33
ENDBRANCH  31  32
ENDBRANCH   2  31
TORSDOF 17
BEGIN_RES LYS A 131
REMARK  4 active torsions:
REMARK  status: ('A' for Active; 'I' for Inactive)
REMARK    1  A    between atoms: CA   and  CB  
REMARK    2  A    between atoms: CB   and  CG  
REMARK    3  A    between atoms: CG   and  CD  
REMARK    4  A    between atoms: CD   and  CE  
ROOT
ATOM      1  CA  LYS A 131      29.867  25.555  16.977  1.00 20.52     0.186 C 
ENDROOT
BRANCH   1   2
ATOM      2  CB  LYS A 131      28.345  25.722  17.026  1.00 20.94     0.034 C 
BRANCH   2   3
ATOM      3  CG  LYS A 131      27.601  24.402  16.894  1.00 22.96     0.005 C 
BRANCH   3   4
ATOM      4  CD  LYS A 131      26.160  24.520  17.306  1.00 24.33     0.041 C 
BRANCH   4   5
ATOM      5  CE  LYS A 131      25.864  23.517  18.417  1.00 26.91     0.338 C 
ATOM      6  NZ  LYS A 131      24.838  22.543  17.977  1.00 27.40     0.618 N 
ENDBRANCH   4   5
ENDBRANCH   3   4
ENDBRANCH   2   3
ENDBRANCH   1   2
END_RES LYS A 131
BEGIN_RES LYS A 135
REMARK  4 active torsions:
REMARK  status: ('A' for Active; 'I' for Inactive)
REMARK    5  A    between atoms: CA   and  CB  
REMARK    6  A    between atoms: CB   and  CG  
REMARK    7  A    between atoms: CG   and  CD  
REMARK    8  A    between atoms: CD   and  CE  
ROOT
ATOM      7  CA  LYS A 135      33.193  34.663   9.290  1.00 25.02     0.186 C 
ENDROOT
BRANCH   7   8
ATOM      8  CB  LYS A 135      32.060  35.360  10.034  1.00 26.63     0.034 C 
BRANCH   8   9
ATOM      9  CG  LYS A 135      32.492  35.998  11.329  1.00 29.45     0.005 C 
BRANCH   9  10
ATOM     10  CD  LYS A 135      31.898  37.391  11.466  1.00 32.00     0.041 C 
BRANCH  10  11
ATOM     11  CE  LYS A 135      31.461  37.646  12.896  1.00 34.25     0.338 C 
ATOM     12  NZ  LYS A 135      32.142  36.715  13.838  1.00 35.99     0.618 N 
ENDBRANCH  10  11
ENDBRANCH   9  10
ENDBRANCH   8   9
ENDBRANCH   7   8
END_RES LYS A 135
