REMARK VINA RESULT:    -5.400      1.813      3.142
REMARK INTER + INTRA:         -15.147
REMARK INTER:                  -8.980
REMARK INTRA:                  -6.167
REMARK UNBOUND:                -5.012
REMARK SMILES CC(=O)N[C@@H]1[C@@H](O)C[C@](O)(C(=O)O)O[C@H]1C(O)[C@H](O)CNC(=O)OCc1cn(CC(O)c2ccccc2)nn1
REMARK SMILES IDX 21 1 22 2 23 3 20 5 18 6 16 7 15 8 9 9 8 10 14 11 6 12 5 13
REMARK SMILES IDX 10 14 11 16 12 17 13 18 7 20 4 22 2 23 1 25 3 26 17 27 19 29
REMARK SMILES IDX 24 31 25 32 26 33 27 34 39 35 28 36 38 37 29 38 30 39 31 40
REMARK SMILES IDX 32 42 33 43 37 44 34 45 36 46 35 47
REMARK H PARENT 21 4 10 15 13 19 7 21 4 24 17 28 19 30 31 41
REMARK Flexibility Score: inf
ROOT
ATOM      1  N   UNL     1      24.592  29.019  20.173  1.00  0.00    -0.319 N 
ATOM      2  C   UNL     1      23.711  28.751  19.096  1.00  0.00     0.407 C 
ATOM      3  O   UNL     1      23.118  27.649  19.063  1.00  0.00    -0.225 OA
ATOM      4  H   UNL     1      25.054  29.980  20.128  1.00  0.00     0.167 HD
ENDROOT
BRANCH   1   5
ATOM      5  C   UNL     1      24.872  28.109  21.259  1.00  0.00     0.154 C 
BRANCH   5   6
ATOM      6  C   UNL     1      26.064  28.550  22.082  1.00  0.00     0.165 C 
BRANCH   6   7
ATOM      7  C   UNL     1      27.363  28.085  21.423  1.00  0.00     0.176 C 
BRANCH   7   8
ATOM      8  C   UNL     1      28.243  29.212  20.952  1.00  0.00     0.178 C 
ATOM      9  C   UNL     1      30.237  27.989  21.031  1.00  0.00     0.269 C 
ATOM     10  C   UNL     1      30.266  28.204  22.490  1.00  0.00     0.112 C 
ATOM     11  O   UNL     1      29.330  28.653  20.276  1.00  0.00    -0.332 OA
ATOM     12  C   UNL     1      29.602  29.436  23.020  1.00  0.00     0.145 C 
ATOM     13  C   UNL     1      28.663  30.102  22.043  1.00  0.00     0.142 C 
BRANCH   9  14
ATOM     14  O   UNL     1      29.954  26.603  20.842  1.00  0.00    -0.357 OA
ATOM     15  H   UNL     1      29.458  26.331  21.645  1.00  0.00     0.214 HD
ENDBRANCH   9  14
BRANCH   9  16
ATOM     16  C   UNL     1      31.642  28.146  20.497  1.00  0.00     0.364 C 
ATOM     17  O   UNL     1      32.345  29.151  20.752  1.00  0.00    -0.246 OA
BRANCH  16  18
ATOM     18  O   UNL     1      32.190  27.150  19.693  1.00  0.00    -0.477 OA
ATOM     19  H   UNL     1      31.637  26.483  19.177  1.00  0.00     0.296 HD
ENDBRANCH  16  18
ENDBRANCH   9  16
BRANCH  12  20
ATOM     20  O   UNL     1      28.913  29.121  24.225  1.00  0.00    -0.391 OA
ATOM     21  H   UNL     1      28.218  28.478  23.987  1.00  0.00     0.211 HD
ENDBRANCH  12  20
BRANCH  13  22
ATOM     22  N   UNL     1      29.344  31.307  21.597  1.00  0.00    -0.348 N 
ATOM     23  C   UNL     1      28.727  32.579  21.510  1.00  0.00     0.217 C 
ATOM     24  H   UNL     1      30.346  31.182  21.336  1.00  0.00     0.163 HD
ATOM     25  C   UNL     1      29.451  33.789  21.051  1.00  0.00     0.114 C 
ATOM     26  O   UNL     1      27.515  32.626  21.847  1.00  0.00    -0.275 OA
ENDBRANCH  13  22
ENDBRANCH   7   8
BRANCH   7  27
ATOM     27  O   UNL     1      26.864  27.451  20.220  1.00  0.00    -0.388 OA
ATOM     28  H   UNL     1      25.976  27.089  20.359  1.00  0.00     0.211 HD
ENDBRANCH   7  27
ENDBRANCH   6   7
BRANCH   6  29
ATOM     29  O   UNL     1      25.913  28.090  23.370  1.00  0.00    -0.388 OA
ATOM     30  H   UNL     1      25.090  28.489  23.738  1.00  0.00     0.211 HD
ENDBRANCH   6  29
ENDBRANCH   5   6
ENDBRANCH   1   5
BRANCH   2  31
ATOM     31  O   UNL     1      23.473  29.654  18.071  1.00  0.00    -0.443 OA
BRANCH  31  32
ATOM     32  C   UNL     1      23.972  29.468  16.761  1.00  0.00     0.294 C 
BRANCH  32  33
ATOM     33  C   UNL     1      25.440  29.317  16.828  1.00  0.00     0.120 A 
ATOM     34  C   UNL     1      26.381  30.192  16.309  1.00  0.00     0.138 A 
ATOM     35  N   UNL     1      26.175  28.330  17.391  1.00  0.00    -0.132 NA
ATOM     36  N   UNL     1      27.616  29.725  16.562  1.00  0.00    -0.249 N 
ATOM     37  N   UNL     1      27.459  28.601  17.217  1.00  0.00    -0.067 NA
BRANCH  36  38
ATOM     38  C   UNL     1      28.870  30.382  16.167  1.00  0.00     0.182 C 
BRANCH  38  39
ATOM     39  C   UNL     1      29.368  31.215  17.322  1.00  0.00     0.166 C 
BRANCH  39  40
ATOM     40  O   UNL     1      30.047  30.338  18.198  1.00  0.00    -0.386 OA
ATOM     41  H   UNL     1      30.947  30.136  17.820  1.00  0.00     0.211 HD
ENDBRANCH  39  40
BRANCH  39  42
ATOM     42  C   UNL     1      30.346  32.210  16.836  1.00  0.00    -0.018 A 
ATOM     43  C   UNL     1      30.863  32.182  15.557  1.00  0.00     0.006 A 
ATOM     44  C   UNL     1      30.766  33.225  17.706  1.00  0.00     0.006 A 
ATOM     45  C   UNL     1      31.770  33.117  15.124  1.00  0.00     0.000 A 
ATOM     46  C   UNL     1      31.667  34.156  17.278  1.00  0.00     0.000 A 
ATOM     47  C   UNL     1      32.167  34.103  15.996  1.00  0.00     0.000 A 
ENDBRANCH  39  42
ENDBRANCH  38  39
ENDBRANCH  36  38
ENDBRANCH  32  33
ENDBRANCH  31  32
ENDBRANCH   2  31
TORSDOF 18
BEGIN_RES LYS A 131
REMARK  4 active torsions:
REMARK  status: ('A' for Active; 'I' for Inactive)
REMARK    1  A    between atoms: CA   and  CB  
REMARK    2  A    between atoms: CB   and  CG  
REMARK    3  A    between atoms: CG   and  CD  
REMARK    4  A    between atoms: CD   and  CE  
ROOT
ATOM      1  CA  LYS A 131      29.867  25.555  16.977  1.00 20.52     0.186 C 
ENDROOT
BRANCH   1   2
ATOM      2  CB  LYS A 131      28.345  25.722  17.026  1.00 20.94     0.034 C 
BRANCH   2   3
ATOM      3  CG  LYS A 131      27.602  24.397  16.947  1.00 22.96     0.005 C 
BRANCH   3   4
ATOM      4  CD  LYS A 131      26.159  24.532  17.345  1.00 24.33     0.041 C 
BRANCH   4   5
ATOM      5  CE  LYS A 131      25.961  23.961  18.746  1.00 26.91     0.338 C 
ATOM      6  NZ  LYS A 131      24.883  24.689  19.456  1.00 27.40     0.618 N 
ENDBRANCH   4   5
ENDBRANCH   3   4
ENDBRANCH   2   3
ENDBRANCH   1   2
END_RES LYS A 131
BEGIN_RES LYS A 135
REMARK  4 active torsions:
REMARK  status: ('A' for Active; 'I' for Inactive)
REMARK    5  A    between atoms: CA   and  CB  
REMARK    6  A    between atoms: CB   and  CG  
REMARK    7  A    between atoms: CG   and  CD  
REMARK    8  A    between atoms: CD   and  CE  
ROOT
ATOM      7  CA  LYS A 135      33.193  34.663   9.290  1.00 25.02     0.186 C 
ENDROOT
BRANCH   7   8
ATOM      8  CB  LYS A 135      32.060  35.360  10.034  1.00 26.63     0.034 C 
BRANCH   8   9
ATOM      9  CG  LYS A 135      30.688  34.959   9.555  1.00 29.45     0.005 C 
BRANCH   9  10
ATOM     10  CD  LYS A 135      30.089  36.044   8.675  1.00 32.00     0.041 C 
BRANCH  10  11
ATOM     11  CE  LYS A 135      28.791  35.567   8.050  1.00 34.25     0.338 C 
ATOM     12  NZ  LYS A 135      28.879  35.567   6.564  1.00 35.99     0.618 N 
ENDBRANCH  10  11
ENDBRANCH   9  10
ENDBRANCH   8   9
ENDBRANCH   7   8
END_RES LYS A 135
