REMARK VINA RESULT:    -4.946      3.613      6.454
REMARK INTER + INTRA:         -13.587
REMARK INTER:                  -6.988
REMARK INTRA:                  -6.599
REMARK UNBOUND:                -5.026
REMARK SMILES CC(=O)N[C@@H]1[C@@H](O)C[C@](O)(C(=O)O)O[C@H]1C(O)[C@H](O)CNC(=O)OCc1cn(C2CCCC2)nn1
REMARK SMILES IDX 20 1 18 2 16 3 15 4 9 5 8 6 14 7 6 8 5 9 10 10 11 12 12 13
REMARK SMILES IDX 13 14 7 16 4 18 2 19 1 21 3 22 17 23 19 25 21 27 22 28 23 30
REMARK SMILES IDX 24 31 25 32 26 33 27 34 35 35 28 36 34 37 29 38 30 39 33 40
REMARK SMILES IDX 31 41 32 42
REMARK H PARENT 10 11 13 15 7 17 4 20 17 24 19 26 21 29
REMARK Flexibility Score: inf
ROOT
ATOM      1  C   UNL     1      28.595  28.032  20.606  1.00  0.00     0.154 C 
ENDROOT
BRANCH   1   2
ATOM      2  C   UNL     1      29.997  27.847  21.116  1.00  0.00     0.165 C 
BRANCH   2   3
ATOM      3  C   UNL     1      30.831  28.945  20.484  1.00  0.00     0.176 C 
BRANCH   3   4
ATOM      4  C   UNL     1      30.731  30.240  21.226  1.00  0.00     0.178 C 
ATOM      5  C   UNL     1      29.689  32.307  21.104  1.00  0.00     0.269 C 
ATOM      6  C   UNL     1      30.499  32.499  22.378  1.00  0.00     0.112 C 
ATOM      7  O   UNL     1      30.226  31.222  20.407  1.00  0.00    -0.332 OA
ATOM      8  C   UNL     1      31.941  32.187  22.035  1.00  0.00     0.145 C 
ATOM      9  C   UNL     1      32.024  30.677  21.855  1.00  0.00     0.142 C 
BRANCH   5  10
ATOM     10  O   UNL     1      29.819  33.480  20.371  1.00  0.00    -0.357 OA
ATOM     11  H   UNL     1      30.582  33.996  20.779  1.00  0.00     0.214 HD
ENDBRANCH   5  10
BRANCH   5  12
ATOM     12  C   UNL     1      28.267  32.074  21.383  1.00  0.00     0.364 C 
ATOM     13  O   UNL     1      27.767  32.332  22.507  1.00  0.00    -0.246 OA
BRANCH  12  14
ATOM     14  O   UNL     1      27.429  31.560  20.408  1.00  0.00    -0.477 OA
ATOM     15  H   UNL     1      27.302  30.549  20.270  1.00  0.00     0.296 HD
ENDBRANCH  12  14
ENDBRANCH   5  12
BRANCH   8  16
ATOM     16  O   UNL     1      32.212  32.819  20.810  1.00  0.00    -0.391 OA
ATOM     17  H   UNL     1      32.053  33.790  20.945  1.00  0.00     0.211 HD
ENDBRANCH   8  16
BRANCH   9  18
ATOM     18  N   UNL     1      32.236  30.067  23.153  1.00  0.00    -0.348 N 
ATOM     19  C   UNL     1      33.440  29.392  23.450  1.00  0.00     0.217 C 
ATOM     20  H   UNL     1      31.499  30.122  23.879  1.00  0.00     0.163 HD
ATOM     21  C   UNL     1      33.723  28.746  24.756  1.00  0.00     0.114 C 
ATOM     22  O   UNL     1      34.320  29.335  22.561  1.00  0.00    -0.275 OA
ENDBRANCH   9  18
ENDBRANCH   3   4
BRANCH   3  23
ATOM     23  O   UNL     1      32.158  28.517  20.544  1.00  0.00    -0.388 OA
ATOM     24  H   UNL     1      32.542  28.550  21.442  1.00  0.00     0.211 HD
ENDBRANCH   3  23
ENDBRANCH   2   3
BRANCH   2  25
ATOM     25  O   UNL     1      30.513  26.617  20.781  1.00  0.00    -0.388 OA
ATOM     26  H   UNL     1      31.292  26.417  21.366  1.00  0.00     0.211 HD
ENDBRANCH   2  25
ENDBRANCH   1   2
BRANCH   1  27
ATOM     27  N   UNL     1      28.460  28.173  19.191  1.00  0.00    -0.319 N 
ATOM     28  C   UNL     1      27.333  28.648  18.511  1.00  0.00     0.407 C 
ATOM     29  H   UNL     1      29.308  27.883  18.606  1.00  0.00     0.167 HD
ATOM     30  O   UNL     1      26.312  28.992  19.149  1.00  0.00    -0.225 OA
BRANCH  28  31
ATOM     31  O   UNL     1      27.337  28.744  17.107  1.00  0.00    -0.443 OA
BRANCH  31  32
ATOM     32  C   UNL     1      26.856  29.947  16.538  1.00  0.00     0.294 C 
BRANCH  32  33
ATOM     33  C   UNL     1      27.778  31.041  16.917  1.00  0.00     0.120 A 
ATOM     34  C   UNL     1      29.129  31.053  16.599  1.00  0.00     0.138 A 
ATOM     35  N   UNL     1      27.551  32.164  17.589  1.00  0.00    -0.132 NA
ATOM     36  N   UNL     1      29.651  32.177  17.091  1.00  0.00    -0.249 N 
ATOM     37  N   UNL     1      28.682  32.842  17.690  1.00  0.00    -0.067 NA
BRANCH  36  38
ATOM     38  C   UNL     1      31.056  32.543  16.955  1.00  0.00     0.109 C 
ATOM     39  C   UNL     1      31.406  32.473  15.496  1.00  0.00     0.027 C 
ATOM     40  C   UNL     1      31.229  33.983  17.386  1.00  0.00     0.027 C 
ATOM     41  C   UNL     1      31.934  33.818  15.114  1.00  0.00     0.002 C 
ATOM     42  C   UNL     1      31.269  34.759  16.081  1.00  0.00     0.002 C 
ENDBRANCH  36  38
ENDBRANCH  32  33
ENDBRANCH  31  32
ENDBRANCH  28  31
ENDBRANCH   1  27
TORSDOF 15
BEGIN_RES LYS A 131
REMARK  4 active torsions:
REMARK  status: ('A' for Active; 'I' for Inactive)
REMARK    1  A    between atoms: CA   and  CB  
REMARK    2  A    between atoms: CB   and  CG  
REMARK    3  A    between atoms: CG   and  CD  
REMARK    4  A    between atoms: CD   and  CE  
ROOT
ATOM      1  CA  LYS A 131      29.867  25.555  16.977  1.00 20.52     0.186 C 
ENDROOT
BRANCH   1   2
ATOM      2  CB  LYS A 131      28.345  25.722  17.026  1.00 20.94     0.034 C 
BRANCH   2   3
ATOM      3  CG  LYS A 131      27.602  24.399  16.921  1.00 22.96     0.005 C 
BRANCH   3   4
ATOM      4  CD  LYS A 131      26.140  24.543  17.244  1.00 24.33     0.041 C 
BRANCH   4   5
ATOM      5  CE  LYS A 131      25.983  25.281  18.570  1.00 26.91     0.338 C 
ATOM      6  NZ  LYS A 131      25.565  24.344  19.639  1.00 27.40     0.618 N 
ENDBRANCH   4   5
ENDBRANCH   3   4
ENDBRANCH   2   3
ENDBRANCH   1   2
END_RES LYS A 131
BEGIN_RES LYS A 135
REMARK  4 active torsions:
REMARK  status: ('A' for Active; 'I' for Inactive)
REMARK    5  A    between atoms: CA   and  CB  
REMARK    6  A    between atoms: CB   and  CG  
REMARK    7  A    between atoms: CG   and  CD  
REMARK    8  A    between atoms: CD   and  CE  
ROOT
ATOM      7  CA  LYS A 135      33.193  34.663   9.290  1.00 25.02     0.186 C 
ENDROOT
BRANCH   7   8
ATOM      8  CB  LYS A 135      32.060  35.360  10.034  1.00 26.63     0.034 C 
BRANCH   8   9
ATOM      9  CG  LYS A 135      30.709  34.737   9.795  1.00 29.45     0.005 C 
BRANCH   9  10
ATOM     10  CD  LYS A 135      30.516  34.424   8.319  1.00 32.00     0.041 C 
BRANCH  10  11
ATOM     11  CE  LYS A 135      29.330  35.189   7.763  1.00 34.25     0.338 C 
ATOM     12  NZ  LYS A 135      28.045  34.619   8.256  1.00 35.99     0.618 N 
ENDBRANCH  10  11
ENDBRANCH   9  10
ENDBRANCH   8   9
ENDBRANCH   7   8
END_RES LYS A 135
