REMARK VINA RESULT:    -3.785      2.374      4.499
REMARK INTER + INTRA:         -14.559
REMARK INTER:                  -7.191
REMARK INTRA:                  -7.368
REMARK UNBOUND:                -7.565
REMARK SMILES CC(=O)N[C@@H]1[C@@H](O)C[C@](O)(C(=O)O)O[C@H]1C(O)[C@H](O)CNC(=O)OCc1cn(CC(=O)Nc2ncccn2)nn1
REMARK SMILES IDX 21 1 22 2 23 3 20 5 18 6 16 7 15 8 9 9 8 10 14 11 6 12 5 13
REMARK SMILES IDX 10 14 11 16 12 17 13 18 7 20 4 22 2 23 1 25 3 26 17 27 19 29
REMARK SMILES IDX 24 31 25 32 26 33 27 34 40 35 28 36 39 37 29 38 30 39 31 40
REMARK SMILES IDX 32 41 33 43 34 44 38 45 35 46 37 47 36 48
REMARK H PARENT 21 4 10 15 13 19 7 21 4 24 17 28 19 30 32 42
REMARK Flexibility Score: inf
ROOT
ATOM      1  N   UNL     1      27.044  33.784  14.869  1.00  0.00    -0.319 N 
ATOM      2  C   UNL     1      25.770  34.447  14.903  1.00  0.00     0.407 C 
ATOM      3  O   UNL     1      25.629  35.548  15.489  1.00  0.00    -0.225 OA
ATOM      4  H   UNL     1      27.141  32.879  14.381  1.00  0.00     0.167 HD
ENDROOT
BRANCH   1   5
ATOM      5  C   UNL     1      28.149  34.426  15.527  1.00  0.00     0.154 C 
BRANCH   5   6
ATOM      6  C   UNL     1      29.480  33.782  15.231  1.00  0.00     0.165 C 
BRANCH   6   7
ATOM      7  C   UNL     1      29.918  34.262  13.869  1.00  0.00     0.176 C 
BRANCH   7   8
ATOM      8  C   UNL     1      29.872  35.790  13.781  1.00  0.00     0.178 C 
ATOM      9  C   UNL     1      28.920  37.510  12.672  1.00  0.00     0.269 C 
ATOM     10  C   UNL     1      30.109  38.348  12.971  1.00  0.00     0.112 C 
ATOM     11  O   UNL     1      29.231  36.182  12.630  1.00  0.00    -0.332 OA
ATOM     12  C   UNL     1      31.424  37.611  13.057  1.00  0.00     0.145 C 
ATOM     13  C   UNL     1      31.305  36.296  13.776  1.00  0.00     0.142 C 
BRANCH   9  14
ATOM     14  O   UNL     1      28.468  37.815  11.343  1.00  0.00    -0.357 OA
ATOM     15  H   UNL     1      28.152  38.760  11.330  1.00  0.00     0.214 HD
ENDBRANCH   9  14
BRANCH   9  16
ATOM     16  C   UNL     1      27.757  37.847  13.544  1.00  0.00     0.364 C 
ATOM     17  O   UNL     1      27.899  38.544  14.550  1.00  0.00    -0.246 OA
BRANCH  16  18
ATOM     18  O   UNL     1      26.469  37.388  13.256  1.00  0.00    -0.477 OA
ATOM     19  H   UNL     1      25.867  37.006  13.963  1.00  0.00     0.296 HD
ENDBRANCH  16  18
ENDBRANCH   9  16
BRANCH  12  20
ATOM     20  O   UNL     1      31.874  37.435  11.746  1.00  0.00    -0.391 OA
ATOM     21  H   UNL     1      32.087  38.308  11.309  1.00  0.00     0.211 HD
ENDBRANCH  12  20
BRANCH  13  22
ATOM     22  N   UNL     1      31.801  36.291  15.108  1.00  0.00    -0.348 N 
ATOM     23  C   UNL     1      33.003  35.666  15.525  1.00  0.00     0.217 C 
ATOM     24  H   UNL     1      31.257  36.777  15.862  1.00  0.00     0.163 HD
ATOM     25  C   UNL     1      33.463  35.696  16.948  1.00  0.00     0.114 C 
ATOM     26  O   UNL     1      33.679  35.080  14.661  1.00  0.00    -0.275 OA
ENDBRANCH  13  22
ENDBRANCH   7   8
BRANCH   7  27
ATOM     27  O   UNL     1      31.171  33.791  13.530  1.00  0.00    -0.388 OA
ATOM     28  H   UNL     1      31.294  32.894  13.968  1.00  0.00     0.211 HD
ENDBRANCH   7  27
ENDBRANCH   6   7
BRANCH   6  29
ATOM     29  O   UNL     1      29.297  32.400  15.254  1.00  0.00    -0.388 OA
ATOM     30  H   UNL     1      28.556  32.217  15.892  1.00  0.00     0.211 HD
ENDBRANCH   6  29
ENDBRANCH   5   6
ENDBRANCH   1   5
BRANCH   2  31
ATOM     31  O   UNL     1      24.663  33.897  14.297  1.00  0.00    -0.443 OA
BRANCH  31  32
ATOM     32  C   UNL     1      24.596  33.401  12.992  1.00  0.00     0.294 C 
BRANCH  32  33
ATOM     33  C   UNL     1      24.955  34.459  12.024  1.00  0.00     0.120 A 
ATOM     34  C   UNL     1      24.121  35.292  11.307  1.00  0.00     0.138 A 
ATOM     35  N   UNL     1      26.212  34.789  11.687  1.00  0.00    -0.132 NA
ATOM     36  N   UNL     1      24.896  36.086  10.571  1.00  0.00    -0.243 N 
ATOM     37  N   UNL     1      26.151  35.758  10.822  1.00  0.00    -0.067 NA
BRANCH  36  38
ATOM     38  C   UNL     1      24.397  37.130   9.669  1.00  0.00     0.246 C 
BRANCH  38  39
ATOM     39  C   UNL     1      25.432  37.444   8.639  1.00  0.00     0.248 C 
ATOM     40  O   UNL     1      25.446  36.963   7.493  1.00  0.00    -0.272 OA
ATOM     41  N   UNL     1      26.474  38.359   8.997  1.00  0.00    -0.293 N 
ATOM     42  H   UNL     1      26.487  38.778   9.954  1.00  0.00     0.173 HD
BRANCH  41  43
ATOM     43  C   UNL     1      27.495  38.723   8.088  1.00  0.00     0.229 A 
ATOM     44  N   UNL     1      27.281  39.485   6.999  1.00  0.00    -0.221 NA
ATOM     45  N   UNL     1      28.759  38.304   8.291  1.00  0.00    -0.221 NA
ATOM     46  C   UNL     1      28.275  39.817   6.150  1.00  0.00     0.117 A 
ATOM     47  C   UNL     1      29.782  38.597   7.493  1.00  0.00     0.117 A 
ATOM     48  C   UNL     1      29.563  39.379   6.376  1.00  0.00     0.040 A 
ENDBRANCH  41  43
ENDBRANCH  38  39
ENDBRANCH  36  38
ENDBRANCH  32  33
ENDBRANCH  31  32
ENDBRANCH   2  31
TORSDOF 17
BEGIN_RES LYS A 131
REMARK  4 active torsions:
REMARK  status: ('A' for Active; 'I' for Inactive)
REMARK    1  A    between atoms: CA   and  CB  
REMARK    2  A    between atoms: CB   and  CG  
REMARK    3  A    between atoms: CG   and  CD  
REMARK    4  A    between atoms: CD   and  CE  
ROOT
ATOM      1  CA  LYS A 131      29.867  25.555  16.977  1.00 20.52     0.186 C 
ENDROOT
BRANCH   1   2
ATOM      2  CB  LYS A 131      28.345  25.722  17.026  1.00 20.94     0.034 C 
BRANCH   2   3
ATOM      3  CG  LYS A 131      27.601  24.401  16.907  1.00 22.96     0.005 C 
BRANCH   3   4
ATOM      4  CD  LYS A 131      26.443  24.314  17.861  1.00 24.33     0.041 C 
BRANCH   4   5
ATOM      5  CE  LYS A 131      26.289  25.642  18.596  1.00 26.91     0.338 C 
ATOM      6  NZ  LYS A 131      25.028  26.312  18.198  1.00 27.40     0.618 N 
ENDBRANCH   4   5
ENDBRANCH   3   4
ENDBRANCH   2   3
ENDBRANCH   1   2
END_RES LYS A 131
BEGIN_RES LYS A 135
REMARK  4 active torsions:
REMARK  status: ('A' for Active; 'I' for Inactive)
REMARK    5  A    between atoms: CA   and  CB  
REMARK    6  A    between atoms: CB   and  CG  
REMARK    7  A    between atoms: CG   and  CD  
REMARK    8  A    between atoms: CD   and  CE  
ROOT
ATOM      7  CA  LYS A 135      33.193  34.663   9.290  1.00 25.02     0.186 C 
ENDROOT
BRANCH   7   8
ATOM      8  CB  LYS A 135      32.060  35.360  10.034  1.00 26.63     0.034 C 
BRANCH   8   9
ATOM      9  CG  LYS A 135      30.771  35.413   9.256  1.00 29.45     0.005 C 
BRANCH   9  10
ATOM     10  CD  LYS A 135      30.210  34.014   9.051  1.00 32.00     0.041 C 
BRANCH  10  11
ATOM     11  CE  LYS A 135      28.694  34.042   9.055  1.00 34.25     0.338 C 
ATOM     12  NZ  LYS A 135      28.169  34.844   7.915  1.00 35.99     0.618 N 
ENDBRANCH  10  11
ENDBRANCH   9  10
ENDBRANCH   8   9
ENDBRANCH   7   8
END_RES LYS A 135
