REMARK VINA RESULT:    -5.432      4.146      9.680
REMARK INTER + INTRA:         -17.913
REMARK INTER:                 -10.165
REMARK INTRA:                  -7.747
REMARK UNBOUND:                -7.717
REMARK SMILES CC(=O)N[C@@H]1[C@@H](O)C[C@](O)(C(=O)O)O[C@H]1C(O)[C@H](O)CNC(=O)OCc1cn(-c2ccc(-c3c4ccc(=O)cc-4oc4cc(O)ccc34)c(C(=O)[O-])c2)nn1
REMARK SMILES IDX 21 1 22 2 23 3 20 5 18 6 16 7 15 8 9 9 8 10 14 11 6 12 5 13
REMARK SMILES IDX 10 14 11 16 12 17 13 18 7 20 4 22 2 23 1 25 3 26 17 27 19 29
REMARK SMILES IDX 24 31 25 32 26 33 27 34 55 35 28 36 54 37 29 38 53 39 30 40
REMARK SMILES IDX 49 41 31 42 32 43 50 44 51 45 52 46 33 47 48 48 34 49 47 50
REMARK SMILES IDX 42 51 40 52 35 53 46 54 43 55 41 56 39 57 36 58 44 59 37 60
REMARK SMILES IDX 38 61 45 62
REMARK H PARENT 21 4 10 15 13 19 7 21 4 24 17 28 19 30 45 63
REMARK Flexibility Score: inf
ROOT
ATOM      1  N   UNL     1      20.972  38.079   9.325  1.00  0.00    -0.319 N 
ATOM      2  C   UNL     1      20.114  36.974   8.995  1.00  0.00     0.407 C 
ATOM      3  O   UNL     1      19.815  36.831   7.778  1.00  0.00    -0.225 OA
ATOM      4  H   UNL     1      21.249  38.244  10.310  1.00  0.00     0.167 HD
ENDROOT
BRANCH   1   5
ATOM      5  C   UNL     1      21.461  38.975   8.305  1.00  0.00     0.154 C 
BRANCH   5   6
ATOM      6  C   UNL     1      22.823  38.537   7.878  1.00  0.00     0.165 C 
BRANCH   6   7
ATOM      7  C   UNL     1      23.676  39.710   7.398  1.00  0.00     0.176 C 
BRANCH   7   8
ATOM      8  C   UNL     1      25.049  39.667   8.049  1.00  0.00     0.178 C 
ATOM      9  C   UNL     1      26.513  37.957   7.450  1.00  0.00     0.269 C 
ATOM     10  C   UNL     1      27.277  38.072   8.751  1.00  0.00     0.112 C 
ATOM     11  O   UNL     1      25.930  39.159   7.138  1.00  0.00    -0.332 OA
ATOM     12  C   UNL     1      26.394  38.552   9.844  1.00  0.00     0.145 C 
ATOM     13  C   UNL     1      25.029  38.991   9.376  1.00  0.00     0.142 C 
BRANCH   9  14
ATOM     14  O   UNL     1      25.634  36.911   7.573  1.00  0.00    -0.357 OA
ATOM     15  H   UNL     1      24.788  37.032   7.107  1.00  0.00     0.214 HD
ENDBRANCH   9  14
BRANCH   9  16
ATOM     16  C   UNL     1      27.508  37.648   6.394  1.00  0.00     0.364 C 
ATOM     17  O   UNL     1      28.678  38.094   6.486  1.00  0.00    -0.246 OA
BRANCH  16  18
ATOM     18  O   UNL     1      27.214  36.876   5.282  1.00  0.00    -0.477 OA
ATOM     19  H   UNL     1      26.518  36.115   5.322  1.00  0.00     0.296 HD
ENDBRANCH  16  18
ENDBRANCH   9  16
BRANCH  12  20
ATOM     20  O   UNL     1      26.218  37.590  10.835  1.00  0.00    -0.391 OA
ATOM     21  H   UNL     1      27.021  37.050  11.007  1.00  0.00     0.211 HD
ENDBRANCH  12  20
BRANCH  13  22
ATOM     22  N   UNL     1      24.530  39.915  10.406  1.00  0.00    -0.348 N 
ATOM     23  C   UNL     1      23.610  39.544  11.403  1.00  0.00     0.217 C 
ATOM     24  H   UNL     1      24.895  40.894  10.376  1.00  0.00     0.163 HD
ATOM     25  C   UNL     1      23.154  40.532  12.406  1.00  0.00     0.114 C 
ATOM     26  O   UNL     1      23.204  38.335  11.387  1.00  0.00    -0.275 OA
ENDBRANCH  13  22
ENDBRANCH   7   8
BRANCH   7  27
ATOM     27  O   UNL     1      22.981  40.865   7.773  1.00  0.00    -0.388 OA
ATOM     28  H   UNL     1      23.454  41.628   7.344  1.00  0.00     0.211 HD
ENDBRANCH   7  27
ENDBRANCH   6   7
BRANCH   6  29
ATOM     29  O   UNL     1      22.768  37.537   6.909  1.00  0.00    -0.388 OA
ATOM     30  H   UNL     1      22.689  36.635   7.302  1.00  0.00     0.211 HD
ENDBRANCH   6  29
ENDBRANCH   5   6
ENDBRANCH   1   5
BRANCH   2  31
ATOM     31  O   UNL     1      19.629  36.101   9.922  1.00  0.00    -0.443 OA
BRANCH  31  32
ATOM     32  C   UNL     1      20.280  34.884  10.205  1.00  0.00     0.294 C 
BRANCH  32  33
ATOM     33  C   UNL     1      21.183  35.083  11.356  1.00  0.00     0.121 A 
ATOM     34  C   UNL     1      22.573  34.945  11.368  1.00  0.00     0.144 A 
ATOM     35  N   UNL     1      20.853  35.423  12.609  1.00  0.00    -0.131 NA
ATOM     36  N   UNL     1      23.023  35.204  12.608  1.00  0.00    -0.220 N 
ATOM     37  N   UNL     1      21.962  35.490  13.333  1.00  0.00    -0.062 NA
BRANCH  36  38
ATOM     38  C   UNL     1      24.392  35.151  12.977  1.00  0.00     0.067 A 
ATOM     39  C   UNL     1      24.927  35.733  14.087  1.00  0.00     0.039 A 
ATOM     40  C   UNL     1      25.265  34.451  12.138  1.00  0.00     0.029 A 
ATOM     41  C   UNL     1      26.279  35.657  14.407  1.00  0.00     0.007 A 
ATOM     42  C   UNL     1      26.597  34.361  12.432  1.00  0.00     0.012 A 
ATOM     43  C   UNL     1      27.109  34.969  13.578  1.00  0.00    -0.008 A 
BRANCH  41  44
ATOM     44  C   UNL     1      26.815  36.294  15.608  1.00  0.00     0.072 C 
ATOM     45  O   UNL     1      27.266  37.482  15.576  1.00  0.00    -0.545 OA
ATOM     46  O   UNL     1      26.841  35.619  16.798  1.00  0.00    -0.545 OA
ENDBRANCH  41  44
BRANCH  43  47
ATOM     47  C   UNL     1      28.538  34.817  13.801  1.00  0.00     0.004 A 
ATOM     48  C   UNL     1      29.107  33.800  14.536  1.00  0.00     0.026 A 
ATOM     49  C   UNL     1      29.394  35.750  13.239  1.00  0.00     0.026 A 
ATOM     50  C   UNL     1      28.286  32.850  15.113  1.00  0.00     0.016 A 
ATOM     51  C   UNL     1      30.483  33.707  14.711  1.00  0.00     0.139 A 
ATOM     52  C   UNL     1      30.826  35.608  13.451  1.00  0.00     0.139 A 
ATOM     53  C   UNL     1      28.928  36.805  12.487  1.00  0.00     0.016 A 
ATOM     54  C   UNL     1      28.812  31.807  15.861  1.00  0.00     0.047 A 
ATOM     55  C   UNL     1      31.035  32.684  15.448  1.00  0.00     0.093 A 
ATOM     56  O   UNL     1      31.288  34.593  14.177  1.00  0.00    -0.456 OA
ATOM     57  C   UNL     1      31.677  36.522  12.901  1.00  0.00     0.099 A 
ATOM     58  C   UNL     1      29.820  37.693  11.958  1.00  0.00     0.053 A 
ATOM     59  C   UNL     1      30.182  31.741  16.017  1.00  0.00     0.119 A 
ATOM     60  C   UNL     1      31.188  37.570  12.152  1.00  0.00     0.182 A 
ATOM     61  O   UNL     1      31.970  38.415  11.642  1.00  0.00    -0.290 OA
BRANCH  59  62
ATOM     62  O   UNL     1      30.716  30.704  16.764  1.00  0.00    -0.508 OA
ATOM     63  H   UNL     1      30.550  30.571  17.743  1.00  0.00     0.293 HD
ENDBRANCH  59  62
ENDBRANCH  43  47
ENDBRANCH  36  38
ENDBRANCH  32  33
ENDBRANCH  31  32
ENDBRANCH   2  31
TORSDOF 18
BEGIN_RES LYS A 131
REMARK  4 active torsions:
REMARK  status: ('A' for Active; 'I' for Inactive)
REMARK    1  A    between atoms: CA   and  CB  
REMARK    2  A    between atoms: CB   and  CG  
REMARK    3  A    between atoms: CG   and  CD  
REMARK    4  A    between atoms: CD   and  CE  
ROOT
ATOM      1  CA  LYS A 131      29.867  25.555  16.977  1.00 20.52     0.186 C 
ENDROOT
BRANCH   1   2
ATOM      2  CB  LYS A 131      28.345  25.722  17.026  1.00 20.94     0.034 C 
BRANCH   2   3
ATOM      3  CG  LYS A 131      27.599  24.420  16.776  1.00 22.96     0.005 C 
BRANCH   3   4
ATOM      4  CD  LYS A 131      26.705  24.050  17.927  1.00 24.33     0.041 C 
BRANCH   4   5
ATOM      5  CE  LYS A 131      25.251  24.302  17.542  1.00 26.91     0.338 C 
ATOM      6  NZ  LYS A 131      24.837  25.667  17.943  1.00 27.40     0.618 N 
ENDBRANCH   4   5
ENDBRANCH   3   4
ENDBRANCH   2   3
ENDBRANCH   1   2
END_RES LYS A 131
BEGIN_RES LYS A 135
REMARK  4 active torsions:
REMARK  status: ('A' for Active; 'I' for Inactive)
REMARK    5  A    between atoms: CA   and  CB  
REMARK    6  A    between atoms: CB   and  CG  
REMARK    7  A    between atoms: CG   and  CD  
REMARK    8  A    between atoms: CD   and  CE  
ROOT
ATOM      7  CA  LYS A 135      33.193  34.663   9.290  1.00 25.02     0.186 C 
ENDROOT
BRANCH   7   8
ATOM      8  CB  LYS A 135      32.060  35.360  10.034  1.00 26.63     0.034 C 
BRANCH   8   9
ATOM      9  CG  LYS A 135      30.741  34.638   9.935  1.00 29.45     0.005 C 
BRANCH   9  10
ATOM     10  CD  LYS A 135      30.497  34.157   8.513  1.00 32.00     0.041 C 
BRANCH  10  11
ATOM     11  CE  LYS A 135      29.351  34.923   7.881  1.00 34.25     0.338 C 
ATOM     12  NZ  LYS A 135      28.046  34.522   8.474  1.00 35.99     0.618 N 
ENDBRANCH  10  11
ENDBRANCH   9  10
ENDBRANCH   8   9
ENDBRANCH   7   8
END_RES LYS A 135
