REMARK VINA RESULT:    -4.451      3.531      7.134
REMARK INTER + INTRA:         -14.361
REMARK INTER:                  -8.556
REMARK INTRA:                  -5.805
REMARK UNBOUND:                -6.398
REMARK SMILES CC(=O)N[C@@H]1[C@@H](O)C[C@](O)(C(=O)O)O[C@H]1C(O)[C@H](O)CNC(=O)OCc1cn(Cc2ccc(Br)cc2)nn1
REMARK SMILES IDX 21 1 22 2 23 3 20 5 18 6 16 7 15 8 9 9 8 10 14 11 6 12 5 13
REMARK SMILES IDX 10 14 11 16 12 17 13 18 7 20 4 22 2 23 1 25 3 26 17 27 19 29
REMARK SMILES IDX 24 31 25 32 26 33 27 34 38 35 28 36 37 37 29 38 30 39 31 40
REMARK SMILES IDX 36 41 32 42 35 43 33 44 34 45
REMARK H PARENT 21 4 10 15 13 19 7 21 4 24 17 28 19 30
REMARK Flexibility Score: inf
ROOT
ATOM      1  N   UNL     1      23.898  32.382  14.191  1.00  0.00    -0.319 N 
ATOM      2  C   UNL     1      24.133  31.024  13.863  1.00  0.00     0.407 C 
ATOM      3  O   UNL     1      23.883  30.483  12.770  1.00  0.00    -0.225 OA
ATOM      4  H   UNL     1      24.158  32.742  15.163  1.00  0.00     0.167 HD
ENDROOT
BRANCH   1   5
ATOM      5  C   UNL     1      23.318  33.264  13.227  1.00  0.00     0.154 C 
BRANCH   5   6
ATOM      6  C   UNL     1      24.149  34.475  12.889  1.00  0.00     0.165 C 
BRANCH   6   7
ATOM      7  C   UNL     1      25.492  34.141  12.347  1.00  0.00     0.176 C 
BRANCH   7   8
ATOM      8  C   UNL     1      25.982  34.870  11.159  1.00  0.00     0.178 C 
ATOM      9  C   UNL     1      27.552  36.453  11.746  1.00  0.00     0.269 C 
ATOM     10  C   UNL     1      27.485  37.190  10.428  1.00  0.00     0.112 C 
ATOM     11  O   UNL     1      27.338  35.123  11.422  1.00  0.00    -0.332 OA
ATOM     12  C   UNL     1      26.082  37.062   9.941  1.00  0.00     0.145 C 
ATOM     13  C   UNL     1      25.239  36.025  10.656  1.00  0.00     0.142 C 
BRANCH   9  14
ATOM     14  O   UNL     1      26.607  37.005  12.582  1.00  0.00    -0.357 OA
ATOM     15  H   UNL     1      26.206  37.833  12.257  1.00  0.00     0.214 HD
ENDBRANCH   9  14
BRANCH   9  16
ATOM     16  C   UNL     1      28.932  36.597  12.269  1.00  0.00     0.364 C 
ATOM     17  O   UNL     1      29.413  35.848  13.147  1.00  0.00    -0.246 OA
BRANCH  16  18
ATOM     18  O   UNL     1      29.705  37.627  11.740  1.00  0.00    -0.477 OA
ATOM     19  H   UNL     1      29.921  37.706  10.760  1.00  0.00     0.296 HD
ENDBRANCH  16  18
ENDBRANCH   9  16
BRANCH  12  20
ATOM     20  O   UNL     1      25.454  38.309  10.170  1.00  0.00    -0.391 OA
ATOM     21  H   UNL     1      26.074  38.966  10.544  1.00  0.00     0.211 HD
ENDBRANCH  12  20
BRANCH  13  22
ATOM     22  N   UNL     1      24.276  35.634   9.603  1.00  0.00    -0.348 N 
ATOM     23  C   UNL     1      22.975  36.144   9.524  1.00  0.00     0.217 C 
ATOM     24  H   UNL     1      24.652  34.937   8.916  1.00  0.00     0.163 HD
ATOM     25  C   UNL     1      22.077  35.679   8.426  1.00  0.00     0.114 C 
ATOM     26  O   UNL     1      22.567  36.973  10.352  1.00  0.00    -0.275 OA
ENDBRANCH  13  22
ENDBRANCH   7   8
BRANCH   7  27
ATOM     27  O   UNL     1      26.387  33.988  13.395  1.00  0.00    -0.388 OA
ATOM     28  H   UNL     1      25.921  33.563  14.171  1.00  0.00     0.211 HD
ENDBRANCH   7  27
ENDBRANCH   6   7
BRANCH   6  29
ATOM     29  O   UNL     1      24.150  35.465  13.856  1.00  0.00    -0.388 OA
ATOM     30  H   UNL     1      24.565  35.191  14.698  1.00  0.00     0.211 HD
ENDBRANCH   6  29
ENDBRANCH   5   6
ENDBRANCH   1   5
BRANCH   2  31
ATOM     31  O   UNL     1      24.697  30.204  14.840  1.00  0.00    -0.443 OA
BRANCH  31  32
ATOM     32  C   UNL     1      25.134  30.725  16.072  1.00  0.00     0.294 C 
BRANCH  32  33
ATOM     33  C   UNL     1      26.544  31.151  16.021  1.00  0.00     0.120 A 
ATOM     34  C   UNL     1      27.703  30.470  16.311  1.00  0.00     0.138 A 
ATOM     35  N   UNL     1      26.901  32.401  15.647  1.00  0.00    -0.132 NA
ATOM     36  N   UNL     1      28.728  31.327  16.103  1.00  0.00    -0.248 N 
ATOM     37  N   UNL     1      28.205  32.472  15.705  1.00  0.00    -0.067 NA
BRANCH  36  38
ATOM     38  C   UNL     1      30.128  31.006  16.294  1.00  0.00     0.181 C 
BRANCH  38  39
ATOM     39  C   UNL     1      30.882  32.302  16.338  1.00  0.00    -0.026 A 
ATOM     40  C   UNL     1      31.517  32.753  15.190  1.00  0.00     0.007 A 
ATOM     41  C   UNL     1      30.933  33.023  17.511  1.00  0.00     0.007 A 
ATOM     42  C   UNL     1      32.201  33.939  15.253  1.00  0.00     0.016 A 
ATOM     43  C   UNL     1      31.628  34.230  17.577  1.00  0.00     0.016 A 
ATOM     44  C   UNL     1      32.247  34.654  16.428  1.00  0.00     0.017 A 
ATOM     45  Br  UNL     1      33.208  36.306  16.486  1.00  0.00    -0.051 Br
ENDBRANCH  38  39
ENDBRANCH  36  38
ENDBRANCH  32  33
ENDBRANCH  31  32
ENDBRANCH   2  31
TORSDOF 16
BEGIN_RES LYS A 131
REMARK  4 active torsions:
REMARK  status: ('A' for Active; 'I' for Inactive)
REMARK    1  A    between atoms: CA   and  CB  
REMARK    2  A    between atoms: CB   and  CG  
REMARK    3  A    between atoms: CG   and  CD  
REMARK    4  A    between atoms: CD   and  CE  
ROOT
ATOM      1  CA  LYS A 131      29.867  25.555  16.977  1.00 20.52     0.186 C 
ENDROOT
BRANCH   1   2
ATOM      2  CB  LYS A 131      28.345  25.722  17.026  1.00 20.94     0.034 C 
BRANCH   2   3
ATOM      3  CG  LYS A 131      27.601  24.402  16.896  1.00 22.96     0.005 C 
BRANCH   3   4
ATOM      4  CD  LYS A 131      26.515  24.260  17.926  1.00 24.33     0.041 C 
BRANCH   4   5
ATOM      5  CE  LYS A 131      25.154  24.289  17.237  1.00 26.91     0.338 C 
ATOM      6  NZ  LYS A 131      24.562  22.930  17.201  1.00 27.40     0.618 N 
ENDBRANCH   4   5
ENDBRANCH   3   4
ENDBRANCH   2   3
ENDBRANCH   1   2
END_RES LYS A 131
BEGIN_RES LYS A 135
REMARK  4 active torsions:
REMARK  status: ('A' for Active; 'I' for Inactive)
REMARK    5  A    between atoms: CA   and  CB  
REMARK    6  A    between atoms: CB   and  CG  
REMARK    7  A    between atoms: CG   and  CD  
REMARK    8  A    between atoms: CD   and  CE  
ROOT
ATOM      7  CA  LYS A 135      33.193  34.663   9.290  1.00 25.02     0.186 C 
ENDROOT
BRANCH   7   8
ATOM      8  CB  LYS A 135      32.060  35.360  10.034  1.00 26.63     0.034 C 
BRANCH   8   9
ATOM      9  CG  LYS A 135      30.734  34.656   9.908  1.00 29.45     0.005 C 
BRANCH   9  10
ATOM     10  CD  LYS A 135      30.341  34.509   8.446  1.00 32.00     0.041 C 
BRANCH  10  11
ATOM     11  CE  LYS A 135      28.831  34.501   8.299  1.00 34.25     0.338 C 
ATOM     12  NZ  LYS A 135      28.398  35.370   7.170  1.00 35.99     0.618 N 
ENDBRANCH  10  11
ENDBRANCH   9  10
ENDBRANCH   8   9
ENDBRANCH   7   8
END_RES LYS A 135
