REMARK VINA RESULT:    -5.196      5.820     10.934
REMARK INTER + INTRA:         -16.279
REMARK INTER:                  -9.744
REMARK INTRA:                  -6.535
REMARK UNBOUND:                -6.527
REMARK SMILES CC(=O)N[C@@H]1[C@@H](O)C[C@](O)(C(=O)O)O[C@H]1C(O)[C@H](O)CNC(=O)OCc1cn(-c2ccc(S(=O)(=O)c3ccc(N)cc3)cc2)nn1
REMARK SMILES IDX 21 1 22 2 23 3 20 5 18 6 16 7 15 8 9 9 8 10 14 11 6 12 5 13
REMARK SMILES IDX 10 14 11 16 12 17 13 18 7 20 4 22 2 23 1 25 3 26 17 27 19 29
REMARK SMILES IDX 24 31 25 32 26 33 27 34 46 35 28 36 45 37 29 38 30 39 44 40
REMARK SMILES IDX 31 41 43 42 32 43 33 44 34 45 35 46 36 47 37 48 42 49 38 50
REMARK SMILES IDX 41 51 39 52 40 53
REMARK H PARENT 21 4 10 15 13 19 7 21 4 24 17 28 19 30 40 54 40 55
REMARK Flexibility Score: inf
ROOT
ATOM      1  N   UNL     1      22.241  37.551  10.523  1.00  0.00    -0.319 N 
ATOM      2  C   UNL     1      22.093  38.135   9.243  1.00  0.00     0.407 C 
ATOM      3  O   UNL     1      21.071  37.922   8.580  1.00  0.00    -0.225 OA
ATOM      4  H   UNL     1      23.153  37.791  11.023  1.00  0.00     0.167 HD
ENDROOT
BRANCH   1   5
ATOM      5  C   UNL     1      21.276  36.688  11.163  1.00  0.00     0.154 C 
BRANCH   5   6
ATOM      6  C   UNL     1      21.805  35.295  11.196  1.00  0.00     0.165 C 
BRANCH   6   7
ATOM      7  C   UNL     1      22.829  35.077  12.289  1.00  0.00     0.176 C 
BRANCH   7   8
ATOM      8  C   UNL     1      23.227  33.655  12.493  1.00  0.00     0.178 C 
ATOM      9  C   UNL     1      22.230  31.654  13.100  1.00  0.00     0.269 C 
ATOM     10  C   UNL     1      23.590  31.056  13.285  1.00  0.00     0.112 C 
ATOM     11  O   UNL     1      22.219  32.749  12.256  1.00  0.00    -0.332 OA
ATOM     12  C   UNL     1      24.668  32.039  13.570  1.00  0.00     0.145 C 
ATOM     13  C   UNL     1      24.005  33.414  13.763  1.00  0.00     0.142 C 
BRANCH   9  14
ATOM     14  O   UNL     1      21.625  31.951  14.343  1.00  0.00    -0.357 OA
ATOM     15  H   UNL     1      22.075  31.437  15.035  1.00  0.00     0.214 HD
ENDBRANCH   9  14
BRANCH   9  16
ATOM     16  C   UNL     1      21.364  30.612  12.474  1.00  0.00     0.364 C 
ATOM     17  O   UNL     1      20.202  30.945  12.083  1.00  0.00    -0.246 OA
BRANCH  16  18
ATOM     18  O   UNL     1      21.742  29.307  12.289  1.00  0.00    -0.477 OA
ATOM     19  H   UNL     1      22.543  29.079  11.703  1.00  0.00     0.296 HD
ENDBRANCH  16  18
ENDBRANCH   9  16
BRANCH  12  20
ATOM     20  O   UNL     1      25.447  31.713  14.669  1.00  0.00    -0.391 OA
ATOM     21  H   UNL     1      25.082  30.874  15.095  1.00  0.00     0.211 HD
ENDBRANCH  12  20
BRANCH  13  22
ATOM     22  N   UNL     1      25.057  34.420  13.834  1.00  0.00    -0.348 N 
ATOM     23  C   UNL     1      25.292  35.119  15.044  1.00  0.00     0.217 C 
ATOM     24  H   UNL     1      25.659  34.655  13.016  1.00  0.00     0.163 HD
ATOM     25  C   UNL     1      26.369  36.166  15.150  1.00  0.00     0.114 C 
ATOM     26  O   UNL     1      24.629  34.913  16.083  1.00  0.00    -0.275 OA
ENDBRANCH  13  22
ENDBRANCH   7   8
BRANCH   7  27
ATOM     27  O   UNL     1      23.920  35.888  11.951  1.00  0.00    -0.388 OA
ATOM     28  H   UNL     1      23.815  36.743  12.420  1.00  0.00     0.211 HD
ENDBRANCH   7  27
ENDBRANCH   6   7
BRANCH   6  29
ATOM     29  O   UNL     1      22.253  34.900   9.943  1.00  0.00    -0.388 OA
ATOM     30  H   UNL     1      23.084  35.396   9.735  1.00  0.00     0.211 HD
ENDBRANCH   6  29
ENDBRANCH   5   6
ENDBRANCH   1   5
BRANCH   2  31
ATOM     31  O   UNL     1      23.059  38.957   8.672  1.00  0.00    -0.443 OA
BRANCH  31  32
ATOM     32  C   UNL     1      24.160  38.433   7.946  1.00  0.00     0.294 C 
BRANCH  32  33
ATOM     33  C   UNL     1      24.842  37.336   8.690  1.00  0.00     0.121 A 
ATOM     34  C   UNL     1      25.902  37.525   9.534  1.00  0.00     0.144 A 
ATOM     35  N   UNL     1      24.571  36.024   8.680  1.00  0.00    -0.131 NA
ATOM     36  N   UNL     1      26.257  36.315  10.025  1.00  0.00    -0.220 N 
ATOM     37  N   UNL     1      25.438  35.452   9.491  1.00  0.00    -0.062 NA
BRANCH  36  38
ATOM     38  C   UNL     1      27.326  36.128  10.939  1.00  0.00     0.066 A 
ATOM     39  C   UNL     1      27.769  34.858  11.238  1.00  0.00     0.030 A 
ATOM     40  C   UNL     1      27.959  37.182  11.560  1.00  0.00     0.030 A 
ATOM     41  C   UNL     1      28.809  34.630  12.123  1.00  0.00     0.023 A 
ATOM     42  C   UNL     1      29.011  36.963  12.455  1.00  0.00     0.023 A 
ATOM     43  C   UNL     1      29.434  35.687  12.737  1.00  0.00     0.072 A 
BRANCH  43  44
ATOM     44  S   UNL     1      30.733  35.402  13.842  1.00  0.00     0.206 S 
ATOM     45  O   UNL     1      30.906  36.580  14.739  1.00  0.00    -0.219 OA
ATOM     46  O   UNL     1      32.039  35.156  13.146  1.00  0.00    -0.219 OA
BRANCH  44  47
ATOM     47  C   UNL     1      30.344  33.950  14.759  1.00  0.00     0.072 A 
ATOM     48  C   UNL     1      31.357  33.093  15.098  1.00  0.00     0.023 A 
ATOM     49  C   UNL     1      29.039  33.662  15.145  1.00  0.00     0.023 A 
ATOM     50  C   UNL     1      31.096  31.936  15.822  1.00  0.00     0.027 A 
ATOM     51  C   UNL     1      28.744  32.516  15.868  1.00  0.00     0.027 A 
ATOM     52  C   UNL     1      29.788  31.681  16.187  1.00  0.00     0.031 A 
BRANCH  52  53
ATOM     53  N   UNL     1      29.509  30.508  16.923  1.00  0.00    -0.399 N 
ATOM     54  H   UNL     1      29.998  30.321  17.815  1.00  0.00     0.156 HD
ATOM     55  H   UNL     1      28.811  29.835  16.562  1.00  0.00     0.156 HD
ENDBRANCH  52  53
ENDBRANCH  44  47
ENDBRANCH  43  44
ENDBRANCH  36  38
ENDBRANCH  32  33
ENDBRANCH  31  32
ENDBRANCH   2  31
TORSDOF 18
BEGIN_RES LYS A 131
REMARK  4 active torsions:
REMARK  status: ('A' for Active; 'I' for Inactive)
REMARK    1  A    between atoms: CA   and  CB  
REMARK    2  A    between atoms: CB   and  CG  
REMARK    3  A    between atoms: CG   and  CD  
REMARK    4  A    between atoms: CD   and  CE  
ROOT
ATOM      1  CA  LYS A 131      29.867  25.555  16.977  1.00 20.52     0.186 C 
ENDROOT
BRANCH   1   2
ATOM      2  CB  LYS A 131      28.345  25.722  17.026  1.00 20.94     0.034 C 
BRANCH   2   3
ATOM      3  CG  LYS A 131      27.602  24.400  16.916  1.00 22.96     0.005 C 
BRANCH   3   4
ATOM      4  CD  LYS A 131      26.150  24.534  17.282  1.00 24.33     0.041 C 
BRANCH   4   5
ATOM      5  CE  LYS A 131      25.955  25.777  18.144  1.00 26.91     0.338 C 
ATOM      6  NZ  LYS A 131      24.642  25.733  18.830  1.00 27.40     0.618 N 
ENDBRANCH   4   5
ENDBRANCH   3   4
ENDBRANCH   2   3
ENDBRANCH   1   2
END_RES LYS A 131
BEGIN_RES LYS A 135
REMARK  4 active torsions:
REMARK  status: ('A' for Active; 'I' for Inactive)
REMARK    5  A    between atoms: CA   and  CB  
REMARK    6  A    between atoms: CB   and  CG  
REMARK    7  A    between atoms: CG   and  CD  
REMARK    8  A    between atoms: CD   and  CE  
ROOT
ATOM      7  CA  LYS A 135      33.193  34.663   9.290  1.00 25.02     0.186 C 
ENDROOT
BRANCH   7   8
ATOM      8  CB  LYS A 135      32.060  35.360  10.034  1.00 26.63     0.034 C 
BRANCH   8   9
ATOM      9  CG  LYS A 135      30.895  35.726   9.151  1.00 29.45     0.005 C 
BRANCH   9  10
ATOM     10  CD  LYS A 135      30.294  34.483   8.513  1.00 32.00     0.041 C 
BRANCH  10  11
ATOM     11  CE  LYS A 135      28.988  34.819   7.819  1.00 34.25     0.338 C 
ATOM     12  NZ  LYS A 135      28.841  36.290   7.636  1.00 35.99     0.618 N 
ENDBRANCH  10  11
ENDBRANCH   9  10
ENDBRANCH   8   9
ENDBRANCH   7   8
END_RES LYS A 135
