REMARK VINA RESULT:    -5.182      4.145      6.870
REMARK INTER + INTRA:         -16.043
REMARK INTER:                  -9.036
REMARK INTRA:                  -7.007
REMARK UNBOUND:                -6.317
REMARK SMILES CC(=O)N[C@@H]1[C@@H](O)C[C@](O)(C(=O)O)O[C@H]1C(O)[C@H](O)CNC(=O)OCc1cn(-c2cccc(C=CC(=O)O)c2)nn1
REMARK SMILES IDX 21 1 22 2 23 3 20 5 18 6 16 7 15 8 9 9 8 10 14 11 6 12 5 13
REMARK SMILES IDX 10 14 11 16 12 17 13 18 7 20 4 22 2 23 1 25 3 26 17 27 19 29
REMARK SMILES IDX 24 31 25 32 26 33 27 34 41 35 28 36 40 37 29 38 39 39 30 40
REMARK SMILES IDX 33 41 31 42 32 43 34 44 35 45 36 46 37 47 38 48
REMARK H PARENT 21 4 10 15 13 19 7 21 4 24 17 28 19 30 38 49
REMARK Flexibility Score: inf
ROOT
ATOM      1  N   UNL     1      18.591  34.176   8.389  1.00  0.00    -0.319 N 
ATOM      2  C   UNL     1      17.516  34.321   9.295  1.00  0.00     0.407 C 
ATOM      3  O   UNL     1      16.952  35.415   9.504  1.00  0.00    -0.225 OA
ATOM      4  H   UNL     1      18.998  33.180   8.307  1.00  0.00     0.167 HD
ENDROOT
BRANCH   1   5
ATOM      5  C   UNL     1      19.174  35.215   7.590  1.00  0.00     0.154 C 
BRANCH   5   6
ATOM      6  C   UNL     1      20.616  35.415   7.930  1.00  0.00     0.165 C 
BRANCH   6   7
ATOM      7  C   UNL     1      20.854  35.871   9.357  1.00  0.00     0.176 C 
BRANCH   7   8
ATOM      8  C   UNL     1      21.928  36.894   9.417  1.00  0.00     0.178 C 
ATOM      9  C   UNL     1      24.158  37.467   9.233  1.00  0.00     0.269 C 
ATOM     10  C   UNL     1      23.605  38.848   9.445  1.00  0.00     0.112 C 
ATOM     11  O   UNL     1      23.181  36.505   9.061  1.00  0.00    -0.332 OA
ATOM     12  C   UNL     1      22.574  38.967  10.506  1.00  0.00     0.145 C 
ATOM     13  C   UNL     1      21.956  37.614  10.764  1.00  0.00     0.142 C 
BRANCH   9  14
ATOM     14  O   UNL     1      25.046  37.162  10.264  1.00  0.00    -0.357 OA
ATOM     15  H   UNL     1      25.359  37.961  10.740  1.00  0.00     0.214 HD
ENDBRANCH   9  14
BRANCH   9  16
ATOM     16  C   UNL     1      24.954  37.504   7.975  1.00  0.00     0.364 C 
ATOM     17  O   UNL     1      25.845  36.610   7.773  1.00  0.00    -0.246 OA
BRANCH  16  18
ATOM     18  O   UNL     1      24.764  38.479   7.006  1.00  0.00    -0.477 OA
ATOM     19  H   UNL     1      25.261  38.487   6.137  1.00  0.00     0.296 HD
ENDBRANCH  16  18
ENDBRANCH   9  16
BRANCH  12  20
ATOM     20  O   UNL     1      23.044  39.552  11.678  1.00  0.00    -0.391 OA
ATOM     21  H   UNL     1      22.856  40.505  11.667  1.00  0.00     0.211 HD
ENDBRANCH  12  20
BRANCH  13  22
ATOM     22  N   UNL     1      20.667  37.698  11.375  1.00  0.00    -0.348 N 
ATOM     23  C   UNL     1      20.481  37.651  12.781  1.00  0.00     0.217 C 
ATOM     24  H   UNL     1      19.784  37.800  10.791  1.00  0.00     0.163 HD
ATOM     25  C   UNL     1      19.130  37.741  13.366  1.00  0.00     0.114 C 
ATOM     26  O   UNL     1      21.465  37.531  13.554  1.00  0.00    -0.275 OA
ENDBRANCH  13  22
ENDBRANCH   7   8
BRANCH   7  27
ATOM     27  O   UNL     1      21.012  34.801  10.232  1.00  0.00    -0.388 OA
ATOM     28  H   UNL     1      20.791  35.116  11.136  1.00  0.00     0.211 HD
ENDBRANCH   7  27
ENDBRANCH   6   7
BRANCH   6  29
ATOM     29  O   UNL     1      21.233  36.322   7.066  1.00  0.00    -0.388 OA
ATOM     30  H   UNL     1      20.575  37.035   6.837  1.00  0.00     0.211 HD
ENDBRANCH   6  29
ENDBRANCH   5   6
ENDBRANCH   1   5
BRANCH   2  31
ATOM     31  O   UNL     1      17.022  33.214  10.017  1.00  0.00    -0.443 OA
BRANCH  31  32
ATOM     32  C   UNL     1      17.365  33.077  11.359  1.00  0.00     0.294 C 
BRANCH  32  33
ATOM     33  C   UNL     1      18.365  32.008  11.593  1.00  0.00     0.121 A 
ATOM     34  C   UNL     1      19.684  32.090  11.970  1.00  0.00     0.144 A 
ATOM     35  N   UNL     1      18.117  30.693  11.463  1.00  0.00    -0.131 NA
ATOM     36  N   UNL     1      20.209  30.842  12.062  1.00  0.00    -0.220 N 
ATOM     37  N   UNL     1      19.230  30.014  11.747  1.00  0.00    -0.062 NA
BRANCH  36  38
ATOM     38  C   UNL     1      21.556  30.539  12.429  1.00  0.00     0.067 A 
ATOM     39  C   UNL     1      22.420  31.522  12.834  1.00  0.00     0.036 A 
ATOM     40  C   UNL     1      22.012  29.242  12.378  1.00  0.00     0.028 A 
ATOM     41  C   UNL     1      23.764  31.230  13.200  1.00  0.00    -0.023 A 
ATOM     42  C   UNL     1      23.287  28.896  12.715  1.00  0.00     0.003 A 
ATOM     43  C   UNL     1      24.158  29.920  13.129  1.00  0.00     0.008 A 
BRANCH  41  44
ATOM     44  C   UNL     1      24.599  32.287  13.652  1.00  0.00     0.015 C 
ATOM     45  C   UNL     1      25.017  33.424  13.254  1.00  0.00     0.094 C 
BRANCH  45  46
ATOM     46  C   UNL     1      24.839  34.228  12.111  1.00  0.00     0.328 C 
ATOM     47  O   UNL     1      25.924  34.587  11.427  1.00  0.00    -0.247 OA
BRANCH  46  48
ATOM     48  O   UNL     1      23.719  34.755  11.519  1.00  0.00    -0.478 OA
ATOM     49  H   UNL     1      22.811  34.318  11.554  1.00  0.00     0.297 HD
ENDBRANCH  46  48
ENDBRANCH  45  46
ENDBRANCH  41  44
ENDBRANCH  36  38
ENDBRANCH  32  33
ENDBRANCH  31  32
ENDBRANCH   2  31
TORSDOF 18
BEGIN_RES LYS A 131
REMARK  4 active torsions:
REMARK  status: ('A' for Active; 'I' for Inactive)
REMARK    1  A    between atoms: CA   and  CB  
REMARK    2  A    between atoms: CB   and  CG  
REMARK    3  A    between atoms: CG   and  CD  
REMARK    4  A    between atoms: CD   and  CE  
ROOT
ATOM      1  CA  LYS A 131      29.867  25.555  16.977  1.00 20.52     0.186 C 
ENDROOT
BRANCH   1   2
ATOM      2  CB  LYS A 131      28.345  25.722  17.026  1.00 20.94     0.034 C 
BRANCH   2   3
ATOM      3  CG  LYS A 131      27.601  24.402  16.894  1.00 22.96     0.005 C 
BRANCH   3   4
ATOM      4  CD  LYS A 131      26.233  24.458  17.515  1.00 24.33     0.041 C 
BRANCH   4   5
ATOM      5  CE  LYS A 131      26.134  25.682  18.420  1.00 26.91     0.338 C 
ATOM      6  NZ  LYS A 131      24.953  26.501  18.059  1.00 27.40     0.618 N 
ENDBRANCH   4   5
ENDBRANCH   3   4
ENDBRANCH   2   3
ENDBRANCH   1   2
END_RES LYS A 131
BEGIN_RES LYS A 135
REMARK  4 active torsions:
REMARK  status: ('A' for Active; 'I' for Inactive)
REMARK    5  A    between atoms: CA   and  CB  
REMARK    6  A    between atoms: CB   and  CG  
REMARK    7  A    between atoms: CG   and  CD  
REMARK    8  A    between atoms: CD   and  CE  
ROOT
ATOM      7  CA  LYS A 135      33.193  34.663   9.290  1.00 25.02     0.186 C 
ENDROOT
BRANCH   7   8
ATOM      8  CB  LYS A 135      32.060  35.360  10.034  1.00 26.63     0.034 C 
BRANCH   8   9
ATOM      9  CG  LYS A 135      30.877  35.689   9.160  1.00 29.45     0.005 C 
BRANCH   9  10
ATOM     10  CD  LYS A 135      30.291  34.424   8.553  1.00 32.00     0.041 C 
BRANCH  10  11
ATOM     11  CE  LYS A 135      28.882  34.677   8.051  1.00 34.25     0.338 C 
ATOM     12  NZ  LYS A 135      28.896  35.452   6.780  1.00 35.99     0.618 N 
ENDBRANCH  10  11
ENDBRANCH   9  10
ENDBRANCH   8   9
ENDBRANCH   7   8
END_RES LYS A 135
