REMARK VINA RESULT:    -4.778      4.935      9.420
REMARK INTER + INTRA:         -13.775
REMARK INTER:                  -8.549
REMARK INTRA:                  -5.226
REMARK UNBOUND:                -5.226
REMARK SMILES COc1ccc(-n2cc(COC(=O)NC[C@@H](O)C(O)[C@@H]3O[C@@](O)(C(=O)O)C[C@H](O)[C@H]3NC(C)=O)nn2)cc1
REMARK SMILES IDX 14 1 12 2 13 3 15 5 16 6 18 7 20 8 22 9 27 10 21 11 28 12
REMARK SMILES IDX 30 13 23 14 24 16 25 17 26 18 29 20 31 22 32 23 33 25 34 26
REMARK SMILES IDX 19 27 17 29 11 31 10 32 9 33 8 34 35 35 7 36 36 37 6 38 5 39
REMARK SMILES IDX 37 40 4 41 38 42 3 43 2 44 1 45
REMARK H PARENT 14 4 23 15 26 19 29 21 31 24 19 28 17 30
REMARK Flexibility Score: inf
ROOT
ATOM      1  N   UNL     1      29.654  30.826  17.262  1.00  0.00    -0.319 N 
ATOM      2  C   UNL     1      28.960  30.575  18.466  1.00  0.00     0.407 C 
ATOM      3  O   UNL     1      29.286  31.097  19.542  1.00  0.00    -0.225 OA
ATOM      4  H   UNL     1      29.280  30.287  16.416  1.00  0.00     0.167 HD
ENDROOT
BRANCH   1   5
ATOM      5  C   UNL     1      30.750  31.678  17.034  1.00  0.00     0.154 C 
BRANCH   5   6
ATOM      6  C   UNL     1      30.675  32.712  16.005  1.00  0.00     0.165 C 
BRANCH   6   7
ATOM      7  C   UNL     1      29.740  33.806  16.138  1.00  0.00     0.176 C 
BRANCH   7   8
ATOM      8  C   UNL     1      29.943  35.000  15.181  1.00  0.00     0.178 C 
ATOM      9  C   UNL     1      29.334  35.214  12.912  1.00  0.00     0.269 C 
ATOM     10  C   UNL     1      30.775  34.908  12.470  1.00  0.00     0.112 C 
ATOM     11  O   UNL     1      29.158  34.632  14.102  1.00  0.00    -0.332 OA
ATOM     12  C   UNL     1      31.653  35.623  13.423  1.00  0.00     0.145 C 
ATOM     13  C   UNL     1      31.334  35.330  14.900  1.00  0.00     0.142 C 
BRANCH   9  14
ATOM     14  O   UNL     1      28.556  34.452  11.998  1.00  0.00    -0.357 OA
ATOM     15  H   UNL     1      28.922  33.541  11.896  1.00  0.00     0.214 HD
ENDBRANCH   9  14
BRANCH   9  16
ATOM     16  C   UNL     1      28.959  36.605  12.760  1.00  0.00     0.364 C 
ATOM     17  O   UNL     1      29.082  37.179  11.649  1.00  0.00    -0.246 OA
BRANCH  16  18
ATOM     18  O   UNL     1      28.446  37.423  13.769  1.00  0.00    -0.477 OA
ATOM     19  H   UNL     1      28.174  38.394  13.601  1.00  0.00     0.296 HD
ENDBRANCH  16  18
ENDBRANCH   9  16
BRANCH  12  20
ATOM     20  O   UNL     1      33.018  35.341  13.254  1.00  0.00    -0.391 OA
ATOM     21  H   UNL     1      33.410  36.195  12.889  1.00  0.00     0.211 HD
ENDBRANCH  12  20
BRANCH  13  22
ATOM     22  N   UNL     1      31.895  36.472  15.556  1.00  0.00    -0.348 N 
ATOM     23  C   UNL     1      33.128  36.567  16.201  1.00  0.00     0.217 C 
ATOM     24  H   UNL     1      31.283  37.342  15.539  1.00  0.00     0.163 HD
ATOM     25  C   UNL     1      33.578  37.837  16.850  1.00  0.00     0.114 C 
ATOM     26  O   UNL     1      33.837  35.555  16.216  1.00  0.00    -0.275 OA
ENDBRANCH  13  22
ENDBRANCH   7   8
BRANCH   7  27
ATOM     27  O   UNL     1      28.433  33.336  16.059  1.00  0.00    -0.388 OA
ATOM     28  H   UNL     1      28.308  32.484  16.548  1.00  0.00     0.211 HD
ENDBRANCH   7  27
ENDBRANCH   6   7
BRANCH   6  29
ATOM     29  O   UNL     1      30.645  32.102  14.718  1.00  0.00    -0.388 OA
ATOM     30  H   UNL     1      31.437  31.514  14.605  1.00  0.00     0.211 HD
ENDBRANCH   6  29
ENDBRANCH   5   6
ENDBRANCH   1   5
BRANCH   2  31
ATOM     31  O   UNL     1      27.849  29.706  18.497  1.00  0.00    -0.443 OA
BRANCH  31  32
ATOM     32  C   UNL     1      26.549  30.241  18.486  1.00  0.00     0.294 C 
BRANCH  32  33
ATOM     33  C   UNL     1      26.063  30.336  17.100  1.00  0.00     0.121 A 
ATOM     34  C   UNL     1      24.856  29.778  16.664  1.00  0.00     0.144 A 
ATOM     35  N   UNL     1      26.584  30.914  16.021  1.00  0.00    -0.131 NA
ATOM     36  N   UNL     1      24.713  30.047  15.353  1.00  0.00    -0.220 N 
ATOM     37  N   UNL     1      25.791  30.743  14.998  1.00  0.00    -0.062 NA
BRANCH  36  38
ATOM     38  C   UNL     1      23.635  29.670  14.508  1.00  0.00     0.067 A 
ATOM     39  C   UNL     1      23.593  29.970  13.166  1.00  0.00     0.032 A 
ATOM     40  C   UNL     1      22.549  28.959  15.024  1.00  0.00     0.032 A 
ATOM     41  C   UNL     1      22.530  29.591  12.355  1.00  0.00     0.048 A 
ATOM     42  C   UNL     1      21.493  28.583  14.217  1.00  0.00     0.048 A 
ATOM     43  C   UNL     1      21.467  28.891  12.877  1.00  0.00     0.119 A 
BRANCH  43  44
ATOM     44  O   UNL     1      20.428  28.521  12.078  1.00  0.00    -0.497 OA
ATOM     45  C   UNL     1      19.388  29.435  11.806  1.00  0.00     0.278 C 
ENDBRANCH  43  44
ENDBRANCH  36  38
ENDBRANCH  32  33
ENDBRANCH  31  32
ENDBRANCH   2  31
TORSDOF 16
BEGIN_RES LYS A 131
REMARK  4 active torsions:
REMARK  status: ('A' for Active; 'I' for Inactive)
REMARK    1  A    between atoms: CA   and  CB  
REMARK    2  A    between atoms: CB   and  CG  
REMARK    3  A    between atoms: CG   and  CD  
REMARK    4  A    between atoms: CD   and  CE  
ROOT
ATOM      1  CA  LYS A 131      29.867  25.555  16.977  1.00 20.52     0.186 C 
ENDROOT
BRANCH   1   2
ATOM      2  CB  LYS A 131      28.345  25.722  17.026  1.00 20.94     0.034 C 
BRANCH   2   3
ATOM      3  CG  LYS A 131      27.601  24.404  16.874  1.00 22.96     0.005 C 
BRANCH   3   4
ATOM      4  CD  LYS A 131      26.172  24.505  17.332  1.00 24.33     0.041 C 
BRANCH   4   5
ATOM      5  CE  LYS A 131      25.964  23.612  18.551  1.00 26.91     0.338 C 
ATOM      6  NZ  LYS A 131      24.527  23.294  18.722  1.00 27.40     0.618 N 
ENDBRANCH   4   5
ENDBRANCH   3   4
ENDBRANCH   2   3
ENDBRANCH   1   2
END_RES LYS A 131
BEGIN_RES LYS A 135
REMARK  4 active torsions:
REMARK  status: ('A' for Active; 'I' for Inactive)
REMARK    5  A    between atoms: CA   and  CB  
REMARK    6  A    between atoms: CB   and  CG  
REMARK    7  A    between atoms: CG   and  CD  
REMARK    8  A    between atoms: CD   and  CE  
ROOT
ATOM      7  CA  LYS A 135      33.193  34.663   9.290  1.00 25.02     0.186 C 
ENDROOT
BRANCH   7   8
ATOM      8  CB  LYS A 135      32.060  35.360  10.034  1.00 26.63     0.034 C 
BRANCH   8   9
ATOM      9  CG  LYS A 135      30.840  35.602   9.184  1.00 29.45     0.005 C 
BRANCH   9  10
ATOM     10  CD  LYS A 135      30.172  34.285   8.817  1.00 32.00     0.041 C 
BRANCH  10  11
ATOM     11  CE  LYS A 135      28.737  34.518   8.385  1.00 34.25     0.338 C 
ATOM     12  NZ  LYS A 135      28.677  35.335   7.141  1.00 35.99     0.618 N 
ENDBRANCH  10  11
ENDBRANCH   9  10
ENDBRANCH   8   9
ENDBRANCH   7   8
END_RES LYS A 135
