REMARK VINA RESULT:    -5.577      1.915      3.148
REMARK INTER + INTRA:         -15.154
REMARK INTER:                  -9.223
REMARK INTRA:                  -5.931
REMARK UNBOUND:                -5.502
REMARK SMILES CC(=O)N[C@@H]1[C@@H](O)C[C@](O)(C(=O)O)O[C@H]1C(O)[C@H](O)CNC(=O)OCc1cn([C@@H]2C[C@H]3CC[C@@H](C2)N3C)nn1
REMARK SMILES IDX 20 1 18 2 16 3 15 4 9 5 8 6 14 7 6 8 5 9 10 10 11 12 12 13
REMARK SMILES IDX 13 14 7 16 4 18 2 19 1 21 3 22 17 23 19 25 21 27 22 28 23 30
REMARK SMILES IDX 24 31 25 32 26 33 27 34 39 35 28 36 38 37 29 38 35 39 30 40
REMARK SMILES IDX 34 41 31 42 36 43 33 44 32 45 37 46
REMARK H PARENT 10 11 13 15 7 17 4 20 17 24 19 26 21 29
REMARK Flexibility Score: inf
ROOT
ATOM      1  C   UNL     1      25.660  28.129  19.385  1.00  0.00     0.154 C 
ENDROOT
BRANCH   1   2
ATOM      2  C   UNL     1      26.332  28.175  20.726  1.00  0.00     0.165 C 
BRANCH   2   3
ATOM      3  C   UNL     1      27.432  27.124  20.815  1.00  0.00     0.176 C 
BRANCH   3   4
ATOM      4  C   UNL     1      28.676  27.802  21.386  1.00  0.00     0.178 C 
ATOM      5  C   UNL     1      30.980  27.713  20.994  1.00  0.00     0.269 C 
ATOM      6  C   UNL     1      31.312  27.284  22.389  1.00  0.00     0.112 C 
ATOM      7  O   UNL     1      29.705  27.491  20.591  1.00  0.00    -0.332 OA
ATOM      8  C   UNL     1      30.138  26.917  23.232  1.00  0.00     0.145 C 
ATOM      9  C   UNL     1      28.840  27.554  22.860  1.00  0.00     0.142 C 
BRANCH   5  10
ATOM     10  O   UNL     1      31.800  26.994  20.119  1.00  0.00    -0.357 OA
ATOM     11  H   UNL     1      32.689  26.800  20.503  1.00  0.00     0.214 HD
ENDBRANCH   5  10
BRANCH   5  12
ATOM     12  C   UNL     1      31.288  29.139  20.758  1.00  0.00     0.364 C 
ATOM     13  O   UNL     1      31.800  29.823  21.669  1.00  0.00    -0.246 OA
BRANCH  12  14
ATOM     14  O   UNL     1      31.039  29.798  19.558  1.00  0.00    -0.477 OA
ATOM     15  H   UNL     1      30.492  29.334  18.816  1.00  0.00     0.296 HD
ENDBRANCH  12  14
ENDBRANCH   5  12
BRANCH   8  16
ATOM     16  O   UNL     1      30.034  25.519  23.210  1.00  0.00    -0.391 OA
ATOM     17  H   UNL     1      30.346  25.143  24.067  1.00  0.00     0.211 HD
ENDBRANCH   8  16
BRANCH   9  18
ATOM     18  N   UNL     1      28.487  28.709  23.638  1.00  0.00    -0.348 N 
ATOM     19  C   UNL     1      27.344  28.788  24.467  1.00  0.00     0.217 C 
ATOM     20  H   UNL     1      29.101  29.567  23.608  1.00  0.00     0.163 HD
ATOM     21  C   UNL     1      26.961  29.965  25.274  1.00  0.00     0.114 C 
ATOM     22  O   UNL     1      26.627  27.758  24.491  1.00  0.00    -0.275 OA
ENDBRANCH   9  18
ENDBRANCH   3   4
BRANCH   3  23
ATOM     23  O   UNL     1      27.703  26.544  19.587  1.00  0.00    -0.388 OA
ATOM     24  H   UNL     1      27.966  25.601  19.748  1.00  0.00     0.211 HD
ENDBRANCH   3  23
ENDBRANCH   2   3
BRANCH   2  25
ATOM     25  O   UNL     1      25.471  27.973  21.767  1.00  0.00    -0.388 OA
ATOM     26  H   UNL     1      24.737  27.349  21.493  1.00  0.00     0.211 HD
ENDBRANCH   2  25
ENDBRANCH   1   2
BRANCH   1  27
ATOM     27  N   UNL     1      26.095  29.163  18.509  1.00  0.00    -0.319 N 
ATOM     28  C   UNL     1      26.879  28.977  17.358  1.00  0.00     0.407 C 
ATOM     29  H   UNL     1      25.813  30.171  18.728  1.00  0.00     0.167 HD
ATOM     30  O   UNL     1      27.285  27.858  16.993  1.00  0.00    -0.225 OA
BRANCH  28  31
ATOM     31  O   UNL     1      27.228  30.095  16.577  1.00  0.00    -0.443 OA
BRANCH  31  32
ATOM     32  C   UNL     1      28.395  30.025  15.784  1.00  0.00     0.294 C 
BRANCH  32  33
ATOM     33  C   UNL     1      29.390  30.995  16.241  1.00  0.00     0.120 A 
ATOM     34  C   UNL     1      30.107  31.862  15.425  1.00  0.00     0.138 A 
ATOM     35  N   UNL     1      29.789  31.222  17.492  1.00  0.00    -0.132 NA
ATOM     36  N   UNL     1      30.913  32.583  16.214  1.00  0.00    -0.249 N 
ATOM     37  N   UNL     1      30.700  32.177  17.447  1.00  0.00    -0.067 NA
BRANCH  36  38
ATOM     38  C   UNL     1      31.844  33.613  15.825  1.00  0.00     0.112 C 
ATOM     39  C   UNL     1      31.378  34.219  14.501  1.00  0.00     0.046 C 
ATOM     40  C   UNL     1      31.771  34.696  16.878  1.00  0.00     0.046 C 
ATOM     41  C   UNL     1      32.198  35.449  14.224  1.00  0.00     0.058 C 
ATOM     42  C   UNL     1      32.441  35.943  16.402  1.00  0.00     0.058 C 
ATOM     43  N   UNL     1      31.889  36.479  15.197  1.00  0.00    -0.300 NA
ATOM     44  C   UNL     1      33.662  35.178  14.518  1.00  0.00     0.021 C 
ATOM     45  C   UNL     1      33.855  35.549  15.956  1.00  0.00     0.021 C 
ATOM     46  C   UNL     1      30.487  36.774  15.277  1.00  0.00     0.105 C 
ENDBRANCH  36  38
ENDBRANCH  32  33
ENDBRANCH  31  32
ENDBRANCH  28  31
ENDBRANCH   1  27
TORSDOF 15
BEGIN_RES LYS A 131
REMARK  4 active torsions:
REMARK  status: ('A' for Active; 'I' for Inactive)
REMARK    1  A    between atoms: CA   and  CB  
REMARK    2  A    between atoms: CB   and  CG  
REMARK    3  A    between atoms: CG   and  CD  
REMARK    4  A    between atoms: CD   and  CE  
ROOT
ATOM      1  CA  LYS A 131      29.867  25.555  16.977  1.00 20.52     0.186 C 
ENDROOT
BRANCH   1   2
ATOM      2  CB  LYS A 131      28.345  25.722  17.026  1.00 20.94     0.034 C 
BRANCH   2   3
ATOM      3  CG  LYS A 131      27.599  24.466  16.602  1.00 22.96     0.005 C 
BRANCH   3   4
ATOM      4  CD  LYS A 131      27.155  23.646  17.781  1.00 24.33     0.041 C 
BRANCH   4   5
ATOM      5  CE  LYS A 131      25.668  23.334  17.654  1.00 26.91     0.338 C 
ATOM      6  NZ  LYS A 131      24.968  24.427  16.938  1.00 27.40     0.618 N 
ENDBRANCH   4   5
ENDBRANCH   3   4
ENDBRANCH   2   3
ENDBRANCH   1   2
END_RES LYS A 131
BEGIN_RES LYS A 135
REMARK  4 active torsions:
REMARK  status: ('A' for Active; 'I' for Inactive)
REMARK    5  A    between atoms: CA   and  CB  
REMARK    6  A    between atoms: CB   and  CG  
REMARK    7  A    between atoms: CG   and  CD  
REMARK    8  A    between atoms: CD   and  CE  
ROOT
ATOM      7  CA  LYS A 135      33.193  34.663   9.290  1.00 25.02     0.186 C 
ENDROOT
BRANCH   7   8
ATOM      8  CB  LYS A 135      32.060  35.360  10.034  1.00 26.63     0.034 C 
BRANCH   8   9
ATOM      9  CG  LYS A 135      30.799  35.497   9.220  1.00 29.45     0.005 C 
BRANCH   9  10
ATOM     10  CD  LYS A 135      29.975  34.221   9.288  1.00 32.00     0.041 C 
BRANCH  10  11
ATOM     11  CE  LYS A 135      28.599  34.444   8.690  1.00 34.25     0.338 C 
ATOM     12  NZ  LYS A 135      27.558  33.694   9.446  1.00 35.99     0.618 N 
ENDBRANCH  10  11
ENDBRANCH   9  10
ENDBRANCH   8   9
ENDBRANCH   7   8
END_RES LYS A 135
