REMARK VINA RESULT:    -4.895      3.836      6.824
REMARK INTER + INTRA:         -15.505
REMARK INTER:                  -9.387
REMARK INTRA:                  -6.118
REMARK UNBOUND:                -6.317
REMARK SMILES CC(=O)N[C@@H]1[C@@H](O)C[C@](O)(C(=O)O)O[C@H]1C(O)[C@H](O)CNC(=O)OCc1cn(-c2cccc(C=CC(=O)O)c2)nn1
REMARK SMILES IDX 21 1 22 2 23 3 20 5 18 6 16 7 15 8 9 9 8 10 14 11 6 12 5 13
REMARK SMILES IDX 10 14 11 16 12 17 13 18 7 20 4 22 2 23 1 25 3 26 17 27 19 29
REMARK SMILES IDX 24 31 25 32 26 33 27 34 41 35 28 36 40 37 29 38 39 39 30 40
REMARK SMILES IDX 33 41 31 42 32 43 34 44 35 45 36 46 37 47 38 48
REMARK H PARENT 21 4 10 15 13 19 7 21 4 24 17 28 19 30 38 49
REMARK Flexibility Score: inf
ROOT
ATOM      1  N   UNL     1      23.759  37.071  13.521  1.00  0.00    -0.319 N 
ATOM      2  C   UNL     1      24.273  36.423  14.667  1.00  0.00     0.407 C 
ATOM      3  O   UNL     1      23.583  36.199  15.683  1.00  0.00    -0.225 OA
ATOM      4  H   UNL     1      24.460  37.214  12.715  1.00  0.00     0.167 HD
ENDROOT
BRANCH   1   5
ATOM      5  C   UNL     1      22.415  37.542  13.344  1.00  0.00     0.154 C 
BRANCH   5   6
ATOM      6  C   UNL     1      21.681  36.715  12.338  1.00  0.00     0.165 C 
BRANCH   6   7
ATOM      7  C   UNL     1      22.537  36.260  11.172  1.00  0.00     0.176 C 
BRANCH   7   8
ATOM      8  C   UNL     1      21.795  36.372   9.890  1.00  0.00     0.178 C 
ATOM      9  C   UNL     1      20.237  35.542   8.403  1.00  0.00     0.269 C 
ATOM     10  C   UNL     1      20.534  36.833   7.693  1.00  0.00     0.112 C 
ATOM     11  O   UNL     1      20.823  35.453   9.650  1.00  0.00    -0.332 OA
ATOM     12  C   UNL     1      21.969  37.202   7.615  1.00  0.00     0.145 C 
ATOM     13  C   UNL     1      22.737  36.477   8.692  1.00  0.00     0.142 C 
BRANCH   9  14
ATOM     14  O   UNL     1      20.564  34.473   7.570  1.00  0.00    -0.357 OA
ATOM     15  H   UNL     1      20.736  34.753   6.645  1.00  0.00     0.214 HD
ENDBRANCH   9  14
BRANCH   9  16
ATOM     16  C   UNL     1      18.763  35.489   8.613  1.00  0.00     0.364 C 
ATOM     17  O   UNL     1      18.282  35.827   9.747  1.00  0.00    -0.246 OA
BRANCH  16  18
ATOM     18  O   UNL     1      17.886  35.083   7.617  1.00  0.00    -0.477 OA
ATOM     19  H   UNL     1      18.001  34.232   7.104  1.00  0.00     0.296 HD
ENDBRANCH  16  18
ENDBRANCH   9  16
BRANCH  12  20
ATOM     20  O   UNL     1      22.528  37.000   6.357  1.00  0.00    -0.391 OA
ATOM     21  H   UNL     1      22.070  36.271   5.907  1.00  0.00     0.211 HD
ENDBRANCH  12  20
BRANCH  13  22
ATOM     22  N   UNL     1      23.977  37.110   9.016  1.00  0.00    -0.348 N 
ATOM     23  C   UNL     1      25.191  36.389   9.158  1.00  0.00     0.217 C 
ATOM     24  H   UNL     1      24.039  38.161   9.164  1.00  0.00     0.163 HD
ATOM     25  C   UNL     1      26.447  37.087   9.492  1.00  0.00     0.114 C 
ATOM     26  O   UNL     1      25.218  35.143   9.002  1.00  0.00    -0.275 OA
ENDBRANCH  13  22
ENDBRANCH   7   8
BRANCH   7  27
ATOM     27  O   UNL     1      23.126  35.021  11.403  1.00  0.00    -0.388 OA
ATOM     28  H   UNL     1      22.520  34.330  11.057  1.00  0.00     0.211 HD
ENDBRANCH   7  27
ENDBRANCH   6   7
BRANCH   6  29
ATOM     29  O   UNL     1      20.563  37.381  11.833  1.00  0.00    -0.388 OA
ATOM     30  H   UNL     1      20.520  37.223  10.850  1.00  0.00     0.211 HD
ENDBRANCH   6  29
ENDBRANCH   5   6
ENDBRANCH   1   5
BRANCH   2  31
ATOM     31  O   UNL     1      25.616  35.993  14.715  1.00  0.00    -0.443 OA
BRANCH  31  32
ATOM     32  C   UNL     1      26.060  35.066  13.775  1.00  0.00     0.294 C 
BRANCH  32  33
ATOM     33  C   UNL     1      25.469  33.721  13.967  1.00  0.00     0.121 A 
ATOM     34  C   UNL     1      24.612  33.003  13.167  1.00  0.00     0.144 A 
ATOM     35  N   UNL     1      25.695  32.936  15.034  1.00  0.00    -0.131 NA
ATOM     36  N   UNL     1      24.337  31.810  13.752  1.00  0.00    -0.220 N 
ATOM     37  N   UNL     1      25.011  31.800  14.887  1.00  0.00    -0.062 NA
BRANCH  36  38
ATOM     38  C   UNL     1      23.482  30.803  13.208  1.00  0.00     0.067 A 
ATOM     39  C   UNL     1      22.146  31.035  13.011  1.00  0.00     0.036 A 
ATOM     40  C   UNL     1      23.991  29.570  12.872  1.00  0.00     0.028 A 
ATOM     41  C   UNL     1      21.287  30.038  12.471  1.00  0.00    -0.023 A 
ATOM     42  C   UNL     1      23.222  28.573  12.351  1.00  0.00     0.003 A 
ATOM     43  C   UNL     1      21.854  28.832  12.156  1.00  0.00     0.008 A 
BRANCH  41  44
ATOM     44  C   UNL     1      19.919  30.354  12.252  1.00  0.00     0.015 C 
ATOM     45  C   UNL     1      19.186  31.378  12.043  1.00  0.00     0.094 C 
BRANCH  45  46
ATOM     46  C   UNL     1      19.392  32.765  11.917  1.00  0.00     0.328 C 
ATOM     47  O   UNL     1      18.397  33.577  12.271  1.00  0.00    -0.247 OA
BRANCH  46  48
ATOM     48  O   UNL     1      20.462  33.503  11.478  1.00  0.00    -0.478 OA
ATOM     49  H   UNL     1      20.487  34.511  11.486  1.00  0.00     0.297 HD
ENDBRANCH  46  48
ENDBRANCH  45  46
ENDBRANCH  41  44
ENDBRANCH  36  38
ENDBRANCH  32  33
ENDBRANCH  31  32
ENDBRANCH   2  31
TORSDOF 18
BEGIN_RES LYS A 131
REMARK  4 active torsions:
REMARK  status: ('A' for Active; 'I' for Inactive)
REMARK    1  A    between atoms: CA   and  CB  
REMARK    2  A    between atoms: CB   and  CG  
REMARK    3  A    between atoms: CG   and  CD  
REMARK    4  A    between atoms: CD   and  CE  
ROOT
ATOM      1  CA  LYS A 131      29.867  25.555  16.977  1.00 20.52     0.186 C 
ENDROOT
BRANCH   1   2
ATOM      2  CB  LYS A 131      28.345  25.722  17.026  1.00 20.94     0.034 C 
BRANCH   2   3
ATOM      3  CG  LYS A 131      27.601  24.403  16.887  1.00 22.96     0.005 C 
BRANCH   3   4
ATOM      4  CD  LYS A 131      26.584  24.208  17.977  1.00 24.33     0.041 C 
BRANCH   4   5
ATOM      5  CE  LYS A 131      25.315  24.980  17.632  1.00 26.91     0.338 C 
ATOM      6  NZ  LYS A 131      24.403  24.143  16.817  1.00 27.40     0.618 N 
ENDBRANCH   4   5
ENDBRANCH   3   4
ENDBRANCH   2   3
ENDBRANCH   1   2
END_RES LYS A 131
BEGIN_RES LYS A 135
REMARK  4 active torsions:
REMARK  status: ('A' for Active; 'I' for Inactive)
REMARK    5  A    between atoms: CA   and  CB  
REMARK    6  A    between atoms: CB   and  CG  
REMARK    7  A    between atoms: CG   and  CD  
REMARK    8  A    between atoms: CD   and  CE  
ROOT
ATOM      7  CA  LYS A 135      33.193  34.663   9.290  1.00 25.02     0.186 C 
ENDROOT
BRANCH   7   8
ATOM      8  CB  LYS A 135      32.060  35.360  10.034  1.00 26.63     0.034 C 
BRANCH   8   9
ATOM      9  CG  LYS A 135      30.753  35.353   9.284  1.00 29.45     0.005 C 
BRANCH   9  10
ATOM     10  CD  LYS A 135      29.689  34.600  10.068  1.00 32.00     0.041 C 
BRANCH  10  11
ATOM     11  CE  LYS A 135      28.621  34.062   9.134  1.00 34.25     0.338 C 
ATOM     12  NZ  LYS A 135      28.647  34.770   7.825  1.00 35.99     0.618 N 
ENDBRANCH  10  11
ENDBRANCH   9  10
ENDBRANCH   8   9
ENDBRANCH   7   8
END_RES LYS A 135
