REMARK VINA RESULT:    -3.752      2.655      5.107
REMARK INTER + INTRA:         -13.905
REMARK INTER:                  -7.174
REMARK INTRA:                  -6.731
REMARK UNBOUND:                -6.753
REMARK SMILES COCC(C(N)=O)n1cc(COC(=O)NC[C@@H](O)C(O)[C@@H]2O[C@@](O)(C(=O)O)C[C@H](O)[C@H]2NC(C)=O)nn1
REMARK SMILES IDX 15 1 13 2 14 3 16 5 17 6 19 7 21 8 23 9 28 10 22 11 29 12
REMARK SMILES IDX 31 13 24 14 25 16 26 17 27 18 30 20 32 22 33 23 34 25 35 26
REMARK SMILES IDX 20 27 18 29 12 31 11 32 10 33 9 34 36 35 8 36 37 37 4 38
REMARK SMILES IDX 3 39 2 40 1 41 5 42 7 43 6 44
REMARK H PARENT 15 4 24 15 27 19 30 21 32 24 20 28 18 30 6 45 6 46
REMARK Flexibility Score: inf
ROOT
ATOM      1  N   UNL     1      29.835  35.669  16.108  1.00  0.00    -0.319 N 
ATOM      2  C   UNL     1      30.608  36.810  15.810  1.00  0.00     0.407 C 
ATOM      3  O   UNL     1      30.459  37.893  16.419  1.00  0.00    -0.225 OA
ATOM      4  H   UNL     1      30.039  34.805  15.544  1.00  0.00     0.167 HD
ENDROOT
BRANCH   1   5
ATOM      5  C   UNL     1      28.813  35.581  17.092  1.00  0.00     0.154 C 
BRANCH   5   6
ATOM      6  C   UNL     1      27.497  35.039  16.672  1.00  0.00     0.165 C 
BRANCH   6   7
ATOM      7  C   UNL     1      27.101  33.787  17.425  1.00  0.00     0.176 C 
BRANCH   7   8
ATOM      8  C   UNL     1      28.230  32.857  17.737  1.00  0.00     0.178 C 
ATOM      9  C   UNL     1      29.949  31.744  16.659  1.00  0.00     0.269 C 
ATOM     10  C   UNL     1      30.298  31.516  18.106  1.00  0.00     0.112 C 
ATOM     11  O   UNL     1      28.832  32.546  16.499  1.00  0.00    -0.332 OA
ATOM     12  C   UNL     1      29.178  30.968  18.916  1.00  0.00     0.145 C 
ATOM     13  C   UNL     1      27.866  31.564  18.383  1.00  0.00     0.142 C 
BRANCH   9  14
ATOM     14  O   UNL     1      29.832  30.519  16.028  1.00  0.00    -0.357 OA
ATOM     15  H   UNL     1      29.044  30.455  15.434  1.00  0.00     0.214 HD
ENDBRANCH   9  14
BRANCH   9  16
ATOM     16  C   UNL     1      31.097  32.459  16.038  1.00  0.00     0.364 C 
ATOM     17  O   UNL     1      31.721  33.373  16.646  1.00  0.00    -0.246 OA
BRANCH  16  18
ATOM     18  O   UNL     1      31.546  32.159  14.747  1.00  0.00    -0.477 OA
ATOM     19  H   UNL     1      31.726  31.207  14.456  1.00  0.00     0.296 HD
ENDBRANCH  16  18
ENDBRANCH   9  16
BRANCH  12  20
ATOM     20  O   UNL     1      29.119  29.576  18.907  1.00  0.00    -0.391 OA
ATOM     21  H   UNL     1      28.292  29.332  18.408  1.00  0.00     0.211 HD
ENDBRANCH  12  20
BRANCH  13  22
ATOM     22  N   UNL     1      26.978  31.611  19.493  1.00  0.00    -0.348 N 
ATOM     23  C   UNL     1      25.587  31.226  19.398  1.00  0.00     0.217 C 
ATOM     24  H   UNL     1      27.274  31.912  20.445  1.00  0.00     0.163 HD
ATOM     25  C   UNL     1      24.701  31.290  20.582  1.00  0.00     0.114 C 
ATOM     26  O   UNL     1      25.132  30.837  18.316  1.00  0.00    -0.275 OA
ENDBRANCH  13  22
ENDBRANCH   7   8
BRANCH   7  27
ATOM     27  O   UNL     1      26.291  33.073  16.488  1.00  0.00    -0.388 OA
ATOM     28  H   UNL     1      26.838  32.547  15.883  1.00  0.00     0.211 HD
ENDBRANCH   7  27
ENDBRANCH   6   7
BRANCH   6  29
ATOM     29  O   UNL     1      27.532  34.682  15.326  1.00  0.00    -0.388 OA
ATOM     30  H   UNL     1      27.079  35.369  14.784  1.00  0.00     0.211 HD
ENDBRANCH   6  29
ENDBRANCH   5   6
ENDBRANCH   1   5
BRANCH   2  31
ATOM     31  O   UNL     1      31.580  36.777  14.814  1.00  0.00    -0.443 OA
BRANCH  31  32
ATOM     32  C   UNL     1      31.673  35.710  13.907  1.00  0.00     0.294 C 
BRANCH  32  33
ATOM     33  C   UNL     1      30.374  35.456  13.258  1.00  0.00     0.120 A 
ATOM     34  C   UNL     1      29.610  36.343  12.524  1.00  0.00     0.139 A 
ATOM     35  N   UNL     1      29.713  34.279  13.288  1.00  0.00    -0.132 NA
ATOM     36  N   UNL     1      28.526  35.681  12.137  1.00  0.00    -0.237 N 
ATOM     37  N   UNL     1      28.589  34.462  12.590  1.00  0.00    -0.066 NA
BRANCH  36  38
ATOM     38  C   UNL     1      27.431  36.219  11.333  1.00  0.00     0.223 C 
BRANCH  38  39
ATOM     39  C   UNL     1      26.595  35.073  10.838  1.00  0.00     0.197 C 
BRANCH  39  40
ATOM     40  O   UNL     1      25.380  35.518  10.370  1.00  0.00    -0.382 OA
ATOM     41  C   UNL     1      25.335  35.752   9.012  1.00  0.00     0.195 C 
ENDBRANCH  39  40
ENDBRANCH  38  39
BRANCH  38  42
ATOM     42  C   UNL     1      26.577  37.089  12.206  1.00  0.00     0.244 C 
ATOM     43  O   UNL     1      26.396  38.283  11.928  1.00  0.00    -0.273 OA
ATOM     44  N   UNL     1      25.989  36.495  13.354  1.00  0.00    -0.368 N 
ATOM     45  H   UNL     1      25.121  36.924  13.749  1.00  0.00     0.159 HD
ATOM     46  H   UNL     1      26.402  35.662  13.790  1.00  0.00     0.159 HD
ENDBRANCH  38  42
ENDBRANCH  36  38
ENDBRANCH  32  33
ENDBRANCH  31  32
ENDBRANCH   2  31
TORSDOF 18
BEGIN_RES LYS A 131
REMARK  4 active torsions:
REMARK  status: ('A' for Active; 'I' for Inactive)
REMARK    1  A    between atoms: CA   and  CB  
REMARK    2  A    between atoms: CB   and  CG  
REMARK    3  A    between atoms: CG   and  CD  
REMARK    4  A    between atoms: CD   and  CE  
ROOT
ATOM      1  CA  LYS A 131      29.867  25.555  16.977  1.00 20.52     0.186 C 
ENDROOT
BRANCH   1   2
ATOM      2  CB  LYS A 131      28.345  25.722  17.026  1.00 20.94     0.034 C 
BRANCH   2   3
ATOM      3  CG  LYS A 131      27.601  24.401  16.898  1.00 22.96     0.005 C 
BRANCH   3   4
ATOM      4  CD  LYS A 131      26.560  24.231  17.969  1.00 24.33     0.041 C 
BRANCH   4   5
ATOM      5  CE  LYS A 131      25.977  25.593  18.333  1.00 26.91     0.338 C 
ATOM      6  NZ  LYS A 131      25.911  25.752  19.805  1.00 27.40     0.618 N 
ENDBRANCH   4   5
ENDBRANCH   3   4
ENDBRANCH   2   3
ENDBRANCH   1   2
END_RES LYS A 131
BEGIN_RES LYS A 135
REMARK  4 active torsions:
REMARK  status: ('A' for Active; 'I' for Inactive)
REMARK    5  A    between atoms: CA   and  CB  
REMARK    6  A    between atoms: CB   and  CG  
REMARK    7  A    between atoms: CG   and  CD  
REMARK    8  A    between atoms: CD   and  CE  
ROOT
ATOM      7  CA  LYS A 135      33.193  34.663   9.290  1.00 25.02     0.186 C 
ENDROOT
BRANCH   7   8
ATOM      8  CB  LYS A 135      32.060  35.360  10.034  1.00 26.63     0.034 C 
BRANCH   8   9
ATOM      9  CG  LYS A 135      30.818  35.548   9.201  1.00 29.45     0.005 C 
BRANCH   9  10
ATOM     10  CD  LYS A 135      30.067  34.233   9.054  1.00 32.00     0.041 C 
BRANCH  10  11
ATOM     11  CE  LYS A 135      28.785  34.437   8.270  1.00 34.25     0.338 C 
ATOM     12  NZ  LYS A 135      28.760  35.778   7.622  1.00 35.99     0.618 N 
ENDBRANCH  10  11
ENDBRANCH   9  10
ENDBRANCH   8   9
ENDBRANCH   7   8
END_RES LYS A 135
