REMARK VINA RESULT:    -5.327      1.901      3.677
REMARK INTER + INTRA:         -14.756
REMARK INTER:                  -9.142
REMARK INTRA:                  -5.614
REMARK UNBOUND:                -5.226
REMARK SMILES COc1ccc(-n2cc(COC(=O)NC[C@@H](O)C(O)[C@@H]3O[C@@](O)(C(=O)O)C[C@H](O)[C@H]3NC(C)=O)nn2)cc1
REMARK SMILES IDX 14 1 12 2 13 3 15 5 16 6 18 7 20 8 22 9 27 10 21 11 28 12
REMARK SMILES IDX 30 13 23 14 24 16 25 17 26 18 29 20 31 22 32 23 33 25 34 26
REMARK SMILES IDX 19 27 17 29 11 31 10 32 9 33 8 34 35 35 7 36 36 37 6 38 5 39
REMARK SMILES IDX 37 40 4 41 38 42 3 43 2 44 1 45
REMARK H PARENT 14 4 23 15 26 19 29 21 31 24 19 28 17 30
REMARK Flexibility Score: inf
ROOT
ATOM      1  N   UNL     1      29.491  27.005  20.283  1.00  0.00    -0.319 N 
ATOM      2  C   UNL     1      28.271  27.709  20.182  1.00  0.00     0.407 C 
ATOM      3  O   UNL     1      27.847  28.436  21.092  1.00  0.00    -0.225 OA
ATOM      4  H   UNL     1      29.720  26.395  19.433  1.00  0.00     0.167 HD
ENDROOT
BRANCH   1   5
ATOM      5  C   UNL     1      30.427  27.003  21.333  1.00  0.00     0.154 C 
BRANCH   5   6
ATOM      6  C   UNL     1      31.828  27.323  21.069  1.00  0.00     0.165 C 
BRANCH   6   7
ATOM      7  C   UNL     1      32.398  28.557  21.562  1.00  0.00     0.176 C 
BRANCH   7   8
ATOM      8  C   UNL     1      31.401  29.594  22.124  1.00  0.00     0.178 C 
ATOM      9  C   UNL     1      31.241  31.904  21.676  1.00  0.00     0.269 C 
ATOM     10  C   UNL     1      31.973  32.235  22.987  1.00  0.00     0.112 C 
ATOM     11  O   UNL     1      31.638  30.684  21.304  1.00  0.00    -0.332 OA
ATOM     12  C   UNL     1      31.443  31.294  23.998  1.00  0.00     0.145 C 
ATOM     13  C   UNL     1      31.496  29.818  23.561  1.00  0.00     0.142 C 
BRANCH   9  14
ATOM     14  O   UNL     1      31.840  32.798  20.747  1.00  0.00    -0.357 OA
ATOM     15  H   UNL     1      31.741  33.735  21.044  1.00  0.00     0.214 HD
ENDBRANCH   9  14
BRANCH   9  16
ATOM     16  C   UNL     1      29.820  32.189  21.711  1.00  0.00     0.364 C 
ATOM     17  O   UNL     1      29.407  33.308  22.106  1.00  0.00    -0.246 OA
BRANCH  16  18
ATOM     18  O   UNL     1      28.806  31.309  21.333  1.00  0.00    -0.477 OA
ATOM     19  H   UNL     1      27.866  31.352  21.733  1.00  0.00     0.296 HD
ENDBRANCH  16  18
ENDBRANCH   9  16
BRANCH  12  20
ATOM     20  O   UNL     1      32.105  31.359  25.234  1.00  0.00    -0.391 OA
ATOM     21  H   UNL     1      31.418  31.057  25.907  1.00  0.00     0.211 HD
ENDBRANCH  12  20
BRANCH  13  22
ATOM     22  N   UNL     1      30.498  29.225  24.396  1.00  0.00    -0.348 N 
ATOM     23  C   UNL     1      30.513  27.957  24.977  1.00  0.00     0.217 C 
ATOM     24  H   UNL     1      29.651  29.840  24.586  1.00  0.00     0.163 HD
ATOM     25  C   UNL     1      29.385  27.470  25.830  1.00  0.00     0.114 C 
ATOM     26  O   UNL     1      31.501  27.247  24.757  1.00  0.00    -0.275 OA
ENDBRANCH  13  22
ENDBRANCH   7   8
BRANCH   7  27
ATOM     27  O   UNL     1      33.397  28.290  22.492  1.00  0.00    -0.388 OA
ATOM     28  H   UNL     1      33.042  28.205  23.413  1.00  0.00     0.211 HD
ENDBRANCH   7  27
ENDBRANCH   6   7
BRANCH   6  29
ATOM     29  O   UNL     1      32.123  27.078  19.697  1.00  0.00    -0.388 OA
ATOM     30  H   UNL     1      31.286  26.872  19.205  1.00  0.00     0.211 HD
ENDBRANCH   6  29
ENDBRANCH   5   6
ENDBRANCH   1   5
BRANCH   2  31
ATOM     31  O   UNL     1      27.471  27.615  19.024  1.00  0.00    -0.443 OA
BRANCH  31  32
ATOM     32  C   UNL     1      26.803  28.757  18.547  1.00  0.00     0.294 C 
BRANCH  32  33
ATOM     33  C   UNL     1      27.646  29.450  17.561  1.00  0.00     0.121 A 
ATOM     34  C   UNL     1      28.500  30.511  17.883  1.00  0.00     0.144 A 
ATOM     35  N   UNL     1      27.802  29.270  16.252  1.00  0.00    -0.131 NA
ATOM     36  N   UNL     1      29.122  30.912  16.759  1.00  0.00    -0.220 N 
ATOM     37  N   UNL     1      28.668  30.128  15.784  1.00  0.00    -0.062 NA
BRANCH  36  38
ATOM     38  C   UNL     1      30.073  31.959  16.627  1.00  0.00     0.067 A 
ATOM     39  C   UNL     1      30.304  32.891  17.613  1.00  0.00     0.032 A 
ATOM     40  C   UNL     1      30.831  32.082  15.460  1.00  0.00     0.032 A 
ATOM     41  C   UNL     1      31.241  33.907  17.466  1.00  0.00     0.048 A 
ATOM     42  C   UNL     1      31.761  33.093  15.317  1.00  0.00     0.048 A 
ATOM     43  C   UNL     1      31.981  34.016  16.313  1.00  0.00     0.119 A 
BRANCH  43  44
ATOM     44  O   UNL     1      32.898  35.013  16.174  1.00  0.00    -0.497 OA
ATOM     45  C   UNL     1      33.523  35.228  14.927  1.00  0.00     0.278 C 
ENDBRANCH  43  44
ENDBRANCH  36  38
ENDBRANCH  32  33
ENDBRANCH  31  32
ENDBRANCH   2  31
TORSDOF 16
BEGIN_RES LYS A 131
REMARK  4 active torsions:
REMARK  status: ('A' for Active; 'I' for Inactive)
REMARK    1  A    between atoms: CA   and  CB  
REMARK    2  A    between atoms: CB   and  CG  
REMARK    3  A    between atoms: CG   and  CD  
REMARK    4  A    between atoms: CD   and  CE  
ROOT
ATOM      1  CA  LYS A 131      29.867  25.555  16.977  1.00 20.52     0.186 C 
ENDROOT
BRANCH   1   2
ATOM      2  CB  LYS A 131      28.345  25.722  17.026  1.00 20.94     0.034 C 
BRANCH   2   3
ATOM      3  CG  LYS A 131      27.601  24.404  16.872  1.00 22.96     0.005 C 
BRANCH   3   4
ATOM      4  CD  LYS A 131      26.755  24.088  18.074  1.00 24.33     0.041 C 
BRANCH   4   5
ATOM      5  CE  LYS A 131      25.280  24.167  17.695  1.00 26.91     0.338 C 
ATOM      6  NZ  LYS A 131      24.826  25.577  17.670  1.00 27.40     0.618 N 
ENDBRANCH   4   5
ENDBRANCH   3   4
ENDBRANCH   2   3
ENDBRANCH   1   2
END_RES LYS A 131
BEGIN_RES LYS A 135
REMARK  4 active torsions:
REMARK  status: ('A' for Active; 'I' for Inactive)
REMARK    5  A    between atoms: CA   and  CB  
REMARK    6  A    between atoms: CB   and  CG  
REMARK    7  A    between atoms: CG   and  CD  
REMARK    8  A    between atoms: CD   and  CE  
ROOT
ATOM      7  CA  LYS A 135      33.193  34.663   9.290  1.00 25.02     0.186 C 
ENDROOT
BRANCH   7   8
ATOM      8  CB  LYS A 135      32.060  35.360  10.034  1.00 26.63     0.034 C 
BRANCH   8   9
ATOM      9  CG  LYS A 135      30.719  34.700   9.844  1.00 29.45     0.005 C 
BRANCH   9  10
ATOM     10  CD  LYS A 135      30.438  34.471   8.367  1.00 32.00     0.041 C 
BRANCH  10  11
ATOM     11  CE  LYS A 135      29.419  35.472   7.857  1.00 34.25     0.338 C 
ATOM     12  NZ  LYS A 135      28.051  34.884   7.837  1.00 35.99     0.618 N 
ENDBRANCH  10  11
ENDBRANCH   9  10
ENDBRANCH   8   9
ENDBRANCH   7   8
END_RES LYS A 135
