REMARK VINA RESULT:    -5.057      4.333      7.754
REMARK INTER + INTRA:         -14.719
REMARK INTER:                  -9.309
REMARK INTRA:                  -5.410
REMARK UNBOUND:                -4.785
REMARK SMILES C=CCCCCn1cc(COC(=O)NC[C@@H](O)C(O)[C@@H]2O[C@@](O)(C(=O)O)C[C@H](O)[C@H]2NC(C)=O)nn1
REMARK SMILES IDX 11 1 12 2 14 3 13 5 15 6 16 7 18 8 20 9 22 10 27 11 21 12
REMARK SMILES IDX 28 13 30 14 23 15 24 17 25 18 26 19 29 21 31 23 32 24 33 26
REMARK SMILES IDX 34 27 19 28 17 30 10 32 9 33 8 34 35 35 7 36 36 37 6 38 5 39
REMARK SMILES IDX 4 40 3 41 2 42 1 43
REMARK H PARENT 14 4 23 16 26 20 29 22 31 25 19 29 17 31
REMARK Flexibility Score: inf
ROOT
ATOM      1  O   UNL     1      26.222  34.845  15.599  1.00  0.00    -0.443 OA
ENDROOT
BRANCH   1   2
ATOM      2  C   UNL     1      27.528  34.656  16.006  1.00  0.00     0.407 C 
ATOM      3  N   UNL     1      28.428  34.057  15.063  1.00  0.00    -0.319 N 
ATOM      4  H   UNL     1      28.062  33.796  14.128  1.00  0.00     0.167 HD
ATOM      5  O   UNL     1      27.926  34.996  17.167  1.00  0.00    -0.225 OA
BRANCH   3   6
ATOM      6  C   UNL     1      29.795  33.816  15.379  1.00  0.00     0.154 C 
BRANCH   6   7
ATOM      7  C   UNL     1      30.226  32.361  15.184  1.00  0.00     0.165 C 
BRANCH   7   8
ATOM      8  C   UNL     1      29.966  31.676  16.502  1.00  0.00     0.176 C 
BRANCH   8   9
ATOM      9  C   UNL     1      28.804  30.738  16.481  1.00  0.00     0.178 C 
ATOM     10  C   UNL     1      26.511  30.990  16.226  1.00  0.00     0.269 C 
ATOM     11  C   UNL     1      26.457  29.579  16.771  1.00  0.00     0.112 C 
ATOM     12  O   UNL     1      27.779  31.268  15.745  1.00  0.00    -0.332 OA
ATOM     13  C   UNL     1      27.243  29.564  18.063  1.00  0.00     0.145 C 
ATOM     14  C   UNL     1      28.401  30.527  17.948  1.00  0.00     0.142 C 
BRANCH  10  15
ATOM     15  O   UNL     1      26.091  31.913  17.179  1.00  0.00    -0.357 OA
ATOM     16  H   UNL     1      25.744  31.447  17.973  1.00  0.00     0.214 HD
ENDBRANCH  10  15
BRANCH  10  17
ATOM     17  C   UNL     1      25.543  31.054  15.102  1.00  0.00     0.364 C 
ATOM     18  O   UNL     1      24.907  30.044  14.704  1.00  0.00    -0.246 OA
BRANCH  17  19
ATOM     19  O   UNL     1      25.278  32.249  14.413  1.00  0.00    -0.477 OA
ATOM     20  H   UNL     1      24.564  32.223  13.690  1.00  0.00     0.296 HD
ENDBRANCH  17  19
ENDBRANCH  10  17
BRANCH  13  21
ATOM     21  O   UNL     1      26.429  30.006  19.089  1.00  0.00    -0.391 OA
ATOM     22  H   UNL     1      25.588  30.369  18.715  1.00  0.00     0.211 HD
ENDBRANCH  13  21
BRANCH  14  23
ATOM     23  N   UNL     1      29.572  30.047  18.659  1.00  0.00    -0.348 N 
ATOM     24  C   UNL     1      29.807  30.306  20.039  1.00  0.00     0.217 C 
ATOM     25  H   UNL     1      30.320  29.471  18.178  1.00  0.00     0.163 HD
ATOM     26  C   UNL     1      31.016  29.808  20.761  1.00  0.00     0.114 C 
ATOM     27  O   UNL     1      28.934  30.990  20.643  1.00  0.00    -0.275 OA
ENDBRANCH  14  23
ENDBRANCH   8   9
BRANCH   8  28
ATOM     28  O   UNL     1      29.814  32.702  17.449  1.00  0.00    -0.388 OA
ATOM     29  H   UNL     1      29.391  32.373  18.281  1.00  0.00     0.211 HD
ENDBRANCH   8  28
ENDBRANCH   7   8
BRANCH   7  30
ATOM     30  O   UNL     1      31.532  32.270  14.752  1.00  0.00    -0.388 OA
ATOM     31  H   UNL     1      32.098  33.032  14.961  1.00  0.00     0.211 HD
ENDBRANCH   7  30
ENDBRANCH   6   7
ENDBRANCH   3   6
ENDBRANCH   1   2
BRANCH   1  32
ATOM     32  C   UNL     1      25.851  36.019  14.925  1.00  0.00     0.294 C 
BRANCH  32  33
ATOM     33  C   UNL     1      25.503  35.620  13.522  1.00  0.00     0.120 A 
ATOM     34  C   UNL     1      26.124  36.136  12.396  1.00  0.00     0.138 A 
ATOM     35  N   UNL     1      24.595  34.754  13.072  1.00  0.00    -0.132 NA
ATOM     36  N   UNL     1      25.577  35.570  11.313  1.00  0.00    -0.252 N 
ATOM     37  N   UNL     1      24.653  34.737  11.752  1.00  0.00    -0.067 NA
BRANCH  36  38
ATOM     38  C   UNL     1      25.881  35.778   9.905  1.00  0.00     0.146 C 
BRANCH  38  39
ATOM     39  C   UNL     1      26.442  34.514   9.310  1.00  0.00     0.024 C 
BRANCH  39  40
ATOM     40  C   UNL     1      27.022  34.760   7.939  1.00  0.00     0.006 C 
BRANCH  40  41
ATOM     41  C   UNL     1      26.895  36.199   7.513  1.00  0.00     0.027 C 
BRANCH  41  42
ATOM     42  C   UNL     1      27.526  36.394   6.188  1.00  0.00    -0.035 C 
ATOM     43  C   UNL     1      28.817  36.583   6.034  1.00  0.00     0.004 C 
ENDBRANCH  41  42
ENDBRANCH  40  41
ENDBRANCH  39  40
ENDBRANCH  38  39
ENDBRANCH  36  38
ENDBRANCH  32  33
ENDBRANCH   1  32
TORSDOF 19
BEGIN_RES LYS A 131
REMARK  4 active torsions:
REMARK  status: ('A' for Active; 'I' for Inactive)
REMARK    1  A    between atoms: CA   and  CB  
REMARK    2  A    between atoms: CB   and  CG  
REMARK    3  A    between atoms: CG   and  CD  
REMARK    4  A    between atoms: CD   and  CE  
ROOT
ATOM      1  CA  LYS A 131      29.867  25.555  16.977  1.00 20.52     0.186 C 
ENDROOT
BRANCH   1   2
ATOM      2  CB  LYS A 131      28.345  25.722  17.026  1.00 20.94     0.034 C 
BRANCH   2   3
ATOM      3  CG  LYS A 131      27.602  24.400  16.912  1.00 22.96     0.005 C 
BRANCH   3   4
ATOM      4  CD  LYS A 131      26.172  24.514  17.363  1.00 24.33     0.041 C 
BRANCH   4   5
ATOM      5  CE  LYS A 131      25.990  25.801  18.161  1.00 26.91     0.338 C 
ATOM      6  NZ  LYS A 131      24.763  26.511  17.729  1.00 27.40     0.618 N 
ENDBRANCH   4   5
ENDBRANCH   3   4
ENDBRANCH   2   3
ENDBRANCH   1   2
END_RES LYS A 131
BEGIN_RES LYS A 135
REMARK  4 active torsions:
REMARK  status: ('A' for Active; 'I' for Inactive)
REMARK    5  A    between atoms: CA   and  CB  
REMARK    6  A    between atoms: CB   and  CG  
REMARK    7  A    between atoms: CG   and  CD  
REMARK    8  A    between atoms: CD   and  CE  
ROOT
ATOM      7  CA  LYS A 135      33.193  34.663   9.290  1.00 25.02     0.186 C 
ENDROOT
BRANCH   7   8
ATOM      8  CB  LYS A 135      32.060  35.360  10.034  1.00 26.63     0.034 C 
BRANCH   8   9
ATOM      9  CG  LYS A 135      30.754  35.357   9.282  1.00 29.45     0.005 C 
BRANCH   9  10
ATOM     10  CD  LYS A 135      29.614  35.799  10.186  1.00 32.00     0.041 C 
BRANCH  10  11
ATOM     11  CE  LYS A 135      29.797  35.243  11.585  1.00 34.25     0.338 C 
ATOM     12  NZ  LYS A 135      29.726  36.325  12.606  1.00 35.99     0.618 N 
ENDBRANCH  10  11
ENDBRANCH   9  10
ENDBRANCH   8   9
ENDBRANCH   7   8
END_RES LYS A 135
