REMARK VINA RESULT:    -5.227      1.678      2.331
REMARK INTER + INTRA:         -14.333
REMARK INTER:                  -8.358
REMARK INTRA:                  -5.975
REMARK UNBOUND:                -5.134
REMARK SMILES CC(=O)N[C@@H]1[C@@H](O)C[C@](O)(C(=O)O)O[C@H]1C(O)[C@H](O)CNC(=O)OCc1cn(-c2nc(C)nc(N)n2)nn1
REMARK SMILES IDX 21 1 22 2 23 3 20 5 18 6 16 7 15 8 9 9 8 10 14 11 6 12 5 13
REMARK SMILES IDX 10 14 11 16 12 17 13 18 7 20 4 22 2 23 1 25 3 26 17 27 19 29
REMARK SMILES IDX 24 31 25 32 26 33 27 34 38 35 28 36 37 37 29 38 36 39 30 40
REMARK SMILES IDX 34 41 31 42 33 43 32 44 35 45
REMARK H PARENT 21 4 10 15 13 19 7 21 4 24 17 28 19 30 35 46 35 47
REMARK Flexibility Score: inf
ROOT
ATOM      1  N   UNL     1      25.777  29.095  18.485  1.00  0.00    -0.319 N 
ATOM      2  C   UNL     1      26.466  28.773  17.299  1.00  0.00     0.407 C 
ATOM      3  O   UNL     1      27.252  27.806  17.184  1.00  0.00    -0.225 OA
ATOM      4  H   UNL     1      25.111  29.922  18.545  1.00  0.00     0.167 HD
ENDROOT
BRANCH   1   5
ATOM      5  C   UNL     1      25.971  28.285  19.669  1.00  0.00     0.154 C 
BRANCH   5   6
ATOM      6  C   UNL     1      27.170  28.789  20.408  1.00  0.00     0.165 C 
BRANCH   6   7
ATOM      7  C   UNL     1      28.118  27.645  20.709  1.00  0.00     0.176 C 
BRANCH   7   8
ATOM      8  C   UNL     1      29.200  28.170  21.640  1.00  0.00     0.178 C 
ATOM      9  C   UNL     1      30.663  29.707  20.616  1.00  0.00     0.269 C 
ATOM     10  C   UNL     1      31.723  28.661  20.468  1.00  0.00     0.112 C 
ATOM     11  O   UNL     1      29.540  29.399  21.256  1.00  0.00    -0.332 OA
ATOM     12  C   UNL     1      31.672  27.782  21.712  1.00  0.00     0.145 C 
ATOM     13  C   UNL     1      30.291  27.133  21.640  1.00  0.00     0.142 C 
BRANCH   9  14
ATOM     14  O   UNL     1      30.328  30.111  19.302  1.00  0.00    -0.357 OA
ATOM     15  H   UNL     1      30.098  31.068  19.267  1.00  0.00     0.214 HD
ENDBRANCH   9  14
BRANCH   9  16
ATOM     16  C   UNL     1      31.296  30.885  21.262  1.00  0.00     0.364 C 
ATOM     17  O   UNL     1      32.547  30.969  21.361  1.00  0.00    -0.246 OA
BRANCH  16  18
ATOM     18  O   UNL     1      30.550  31.931  21.779  1.00  0.00    -0.477 OA
ATOM     19  H   UNL     1      30.229  31.954  22.749  1.00  0.00     0.296 HD
ENDBRANCH  16  18
ENDBRANCH   9  16
BRANCH  12  20
ATOM     20  O   UNL     1      32.622  26.781  21.671  1.00  0.00    -0.391 OA
ATOM     21  H   UNL     1      33.007  26.700  22.590  1.00  0.00     0.211 HD
ENDBRANCH  12  20
BRANCH  13  22
ATOM     22  N   UNL     1      30.110  26.183  22.716  1.00  0.00    -0.348 N 
ATOM     23  C   UNL     1      30.066  26.607  24.068  1.00  0.00     0.217 C 
ATOM     24  H   UNL     1      30.016  25.181  22.432  1.00  0.00     0.163 HD
ATOM     25  C   UNL     1      29.879  25.585  25.121  1.00  0.00     0.114 C 
ATOM     26  O   UNL     1      30.180  27.809  24.394  1.00  0.00    -0.275 OA
ENDBRANCH  13  22
ENDBRANCH   7   8
BRANCH   7  27
ATOM     27  O   UNL     1      28.722  27.238  19.490  1.00  0.00    -0.388 OA
ATOM     28  H   UNL     1      29.190  26.387  19.728  1.00  0.00     0.211 HD
ENDBRANCH   7  27
ENDBRANCH   6   7
BRANCH   6  29
ATOM     29  O   UNL     1      26.748  29.417  21.589  1.00  0.00    -0.388 OA
ATOM     30  H   UNL     1      26.814  30.386  21.516  1.00  0.00     0.211 HD
ENDBRANCH   6  29
ENDBRANCH   5   6
ENDBRANCH   1   5
BRANCH   2  31
ATOM     31  O   UNL     1      26.264  29.581  16.167  1.00  0.00    -0.443 OA
BRANCH  31  32
ATOM     32  C   UNL     1      26.431  30.974  16.322  1.00  0.00     0.294 C 
BRANCH  32  33
ATOM     33  C   UNL     1      27.896  31.272  16.429  1.00  0.00     0.121 A 
ATOM     34  C   UNL     1      28.491  32.340  17.074  1.00  0.00     0.148 A 
ATOM     35  N   UNL     1      28.932  30.565  15.920  1.00  0.00    -0.131 NA
ATOM     36  N   UNL     1      29.831  32.262  16.949  1.00  0.00    -0.185 N 
ATOM     37  N   UNL     1      30.066  31.177  16.246  1.00  0.00    -0.059 NA
BRANCH  36  38
ATOM     38  C   UNL     1      30.792  33.180  17.481  1.00  0.00     0.257 A 
ATOM     39  N   UNL     1      31.033  33.269  18.802  1.00  0.00    -0.175 NA
ATOM     40  N   UNL     1      31.492  33.995  16.668  1.00  0.00    -0.196 NA
ATOM     41  C   UNL     1      31.925  34.116  19.340  1.00  0.00     0.225 A 
ATOM     42  C   UNL     1      32.407  34.874  17.151  1.00  0.00     0.133 A 
ATOM     43  N   UNL     1      32.604  34.916  18.472  1.00  0.00    -0.198 NA
ATOM     44  C   UNL     1      33.186  35.778  16.263  1.00  0.00     0.090 C 
BRANCH  41  45
ATOM     45  N   UNL     1      32.180  34.212  20.723  1.00  0.00    -0.368 N 
ATOM     46  H   UNL     1      32.241  35.134  21.174  1.00  0.00     0.159 HD
ATOM     47  H   UNL     1      32.307  33.355  21.280  1.00  0.00     0.159 HD
ENDBRANCH  41  45
ENDBRANCH  36  38
ENDBRANCH  32  33
ENDBRANCH  31  32
ENDBRANCH   2  31
TORSDOF 16
BEGIN_RES LYS A 131
REMARK  4 active torsions:
REMARK  status: ('A' for Active; 'I' for Inactive)
REMARK    1  A    between atoms: CA   and  CB  
REMARK    2  A    between atoms: CB   and  CG  
REMARK    3  A    between atoms: CG   and  CD  
REMARK    4  A    between atoms: CD   and  CE  
ROOT
ATOM      1  CA  LYS A 131      29.867  25.555  16.977  1.00 20.52     0.186 C 
ENDROOT
BRANCH   1   2
ATOM      2  CB  LYS A 131      28.345  25.722  17.026  1.00 20.94     0.034 C 
BRANCH   2   3
ATOM      3  CG  LYS A 131      27.601  24.405  16.866  1.00 22.96     0.005 C 
BRANCH   3   4
ATOM      4  CD  LYS A 131      26.162  24.513  17.290  1.00 24.33     0.041 C 
BRANCH   4   5
ATOM      5  CE  LYS A 131      26.089  24.672  18.805  1.00 26.91     0.338 C 
ATOM      6  NZ  LYS A 131      25.440  23.490  19.420  1.00 27.40     0.618 N 
ENDBRANCH   4   5
ENDBRANCH   3   4
ENDBRANCH   2   3
ENDBRANCH   1   2
END_RES LYS A 131
BEGIN_RES LYS A 135
REMARK  4 active torsions:
REMARK  status: ('A' for Active; 'I' for Inactive)
REMARK    5  A    between atoms: CA   and  CB  
REMARK    6  A    between atoms: CB   and  CG  
REMARK    7  A    between atoms: CG   and  CD  
REMARK    8  A    between atoms: CD   and  CE  
ROOT
ATOM      7  CA  LYS A 135      33.193  34.663   9.290  1.00 25.02     0.186 C 
ENDROOT
BRANCH   7   8
ATOM      8  CB  LYS A 135      32.060  35.360  10.034  1.00 26.63     0.034 C 
BRANCH   8   9
ATOM      9  CG  LYS A 135      30.803  35.508   9.216  1.00 29.45     0.005 C 
BRANCH   9  10
ATOM     10  CD  LYS A 135      30.133  34.158   9.011  1.00 32.00     0.041 C 
BRANCH  10  11
ATOM     11  CE  LYS A 135      28.674  34.338   8.642  1.00 34.25     0.338 C 
ATOM     12  NZ  LYS A 135      27.784  33.655   9.622  1.00 35.99     0.618 N 
ENDBRANCH  10  11
ENDBRANCH   9  10
ENDBRANCH   8   9
ENDBRANCH   7   8
END_RES LYS A 135
