REMARK VINA RESULT:    -4.286      2.472      6.418
REMARK INTER + INTRA:         -14.212
REMARK INTER:                  -8.641
REMARK INTRA:                  -5.571
REMARK UNBOUND:                -6.292
REMARK SMILES CC(=O)N[C@@H]1[C@@H](O)C[C@](O)(C(=O)O)O[C@H]1C(O)[C@H](O)CNC(=O)OCc1cn(CCC2OCCO2)nn1
REMARK SMILES IDX 21 1 22 2 23 3 20 5 18 6 16 7 15 8 9 9 8 10 14 11 6 12 5 13
REMARK SMILES IDX 10 14 11 16 12 17 13 18 7 20 4 22 2 23 1 25 3 26 17 27 19 29
REMARK SMILES IDX 24 31 25 32 26 33 27 34 37 35 28 36 36 37 29 38 30 39 31 40
REMARK SMILES IDX 32 41 35 42 33 43 34 44
REMARK H PARENT 21 4 10 15 13 19 7 21 4 24 17 28 19 30
REMARK Flexibility Score: inf
ROOT
ATOM      1  N   UNL     1      28.849  31.438  17.339  1.00  0.00    -0.319 N 
ATOM      2  C   UNL     1      27.742  30.562  17.452  1.00  0.00     0.407 C 
ATOM      3  O   UNL     1      27.750  29.464  16.799  1.00  0.00    -0.225 OA
ATOM      4  H   UNL     1      28.852  32.329  17.864  1.00  0.00     0.167 HD
ENDROOT
BRANCH   1   5
ATOM      5  C   UNL     1      29.947  31.083  16.504  1.00  0.00     0.154 C 
BRANCH   5   6
ATOM      6  C   UNL     1      30.746  32.262  16.020  1.00  0.00     0.165 C 
BRANCH   6   7
ATOM      7  C   UNL     1      29.891  33.428  15.622  1.00  0.00     0.176 C 
BRANCH   7   8
ATOM      8  C   UNL     1      30.675  34.390  14.757  1.00  0.00     0.178 C 
ATOM      9  C   UNL     1      32.686  35.558  14.762  1.00  0.00     0.269 C 
ATOM     10  C   UNL     1      31.958  36.740  14.191  1.00  0.00     0.112 C 
ATOM     11  O   UNL     1      31.884  34.622  15.359  1.00  0.00    -0.332 OA
ATOM     12  C   UNL     1      30.647  36.873  14.939  1.00  0.00     0.145 C 
ATOM     13  C   UNL     1      29.821  35.640  14.599  1.00  0.00     0.142 C 
BRANCH   9  14
ATOM     14  O   UNL     1      33.548  36.052  15.769  1.00  0.00    -0.357 OA
ATOM     15  H   UNL     1      33.052  36.390  16.539  1.00  0.00     0.214 HD
ENDBRANCH   9  14
BRANCH   9  16
ATOM     16  C   UNL     1      33.595  34.967  13.729  1.00  0.00     0.364 C 
ATOM     17  O   UNL     1      34.713  34.467  13.985  1.00  0.00    -0.246 OA
BRANCH  16  18
ATOM     18  O   UNL     1      33.153  34.986  12.414  1.00  0.00    -0.477 OA
ATOM     19  H   UNL     1      32.183  34.866  12.139  1.00  0.00     0.296 HD
ENDBRANCH  16  18
ENDBRANCH   9  16
BRANCH  12  20
ATOM     20  O   UNL     1      30.922  36.856  16.314  1.00  0.00    -0.391 OA
ATOM     21  H   UNL     1      30.319  37.450  16.821  1.00  0.00     0.211 HD
ENDBRANCH  12  20
BRANCH  13  22
ATOM     22  N   UNL     1      29.335  35.783  13.235  1.00  0.00    -0.348 N 
ATOM     23  C   UNL     1      27.944  35.945  13.012  1.00  0.00     0.217 C 
ATOM     24  H   UNL     1      30.005  35.767  12.414  1.00  0.00     0.163 HD
ATOM     25  C   UNL     1      27.351  36.097  11.659  1.00  0.00     0.114 C 
ATOM     26  O   UNL     1      27.181  35.960  14.021  1.00  0.00    -0.275 OA
ENDBRANCH  13  22
ENDBRANCH   7   8
BRANCH   7  27
ATOM     27  O   UNL     1      28.710  33.004  15.014  1.00  0.00    -0.388 OA
ATOM     28  H   UNL     1      28.790  32.865  14.046  1.00  0.00     0.211 HD
ENDBRANCH   7  27
ENDBRANCH   6   7
BRANCH   6  29
ATOM     29  O   UNL     1      31.526  31.868  14.943  1.00  0.00    -0.388 OA
ATOM     30  H   UNL     1      31.896  32.609  14.429  1.00  0.00     0.211 HD
ENDBRANCH   6  29
ENDBRANCH   5   6
ENDBRANCH   1   5
BRANCH   2  31
ATOM     31  O   UNL     1      26.639  30.802  18.221  1.00  0.00    -0.443 OA
BRANCH  31  32
ATOM     32  C   UNL     1      25.647  31.780  17.975  1.00  0.00     0.294 C 
BRANCH  32  33
ATOM     33  C   UNL     1      25.479  32.063  16.530  1.00  0.00     0.120 A 
ATOM     34  C   UNL     1      24.767  31.311  15.624  1.00  0.00     0.138 A 
ATOM     35  N   UNL     1      25.986  33.095  15.837  1.00  0.00    -0.132 NA
ATOM     36  N   UNL     1      24.862  31.905  14.415  1.00  0.00    -0.252 N 
ATOM     37  N   UNL     1      25.607  32.983  14.573  1.00  0.00    -0.067 NA
BRANCH  36  38
ATOM     38  C   UNL     1      24.275  31.486  13.148  1.00  0.00     0.151 C 
BRANCH  38  39
ATOM     39  C   UNL     1      23.922  30.015  13.186  1.00  0.00     0.086 C 
BRANCH  39  40
ATOM     40  C   UNL     1      22.449  29.813  13.291  1.00  0.00     0.251 C 
ATOM     41  O   UNL     1      22.074  28.784  14.145  1.00  0.00    -0.350 OA
ATOM     42  O   UNL     1      21.819  29.574  12.078  1.00  0.00    -0.350 OA
ATOM     43  C   UNL     1      20.797  28.393  13.751  1.00  0.00     0.192 C 
ATOM     44  C   UNL     1      20.673  28.858  12.330  1.00  0.00     0.192 C 
ENDBRANCH  39  40
ENDBRANCH  38  39
ENDBRANCH  36  38
ENDBRANCH  32  33
ENDBRANCH  31  32
ENDBRANCH   2  31
TORSDOF 17
BEGIN_RES LYS A 131
REMARK  4 active torsions:
REMARK  status: ('A' for Active; 'I' for Inactive)
REMARK    1  A    between atoms: CA   and  CB  
REMARK    2  A    between atoms: CB   and  CG  
REMARK    3  A    between atoms: CG   and  CD  
REMARK    4  A    between atoms: CD   and  CE  
ROOT
ATOM      1  CA  LYS A 131      29.867  25.555  16.977  1.00 20.52     0.186 C 
ENDROOT
BRANCH   1   2
ATOM      2  CB  LYS A 131      28.345  25.722  17.026  1.00 20.94     0.034 C 
BRANCH   2   3
ATOM      3  CG  LYS A 131      27.601  24.406  16.862  1.00 22.96     0.005 C 
BRANCH   3   4
ATOM      4  CD  LYS A 131      26.527  24.229  17.900  1.00 24.33     0.041 C 
BRANCH   4   5
ATOM      5  CE  LYS A 131      26.120  25.593  18.449  1.00 26.91     0.338 C 
ATOM      6  NZ  LYS A 131      24.645  25.730  18.454  1.00 27.40     0.618 N 
ENDBRANCH   4   5
ENDBRANCH   3   4
ENDBRANCH   2   3
ENDBRANCH   1   2
END_RES LYS A 131
BEGIN_RES LYS A 135
REMARK  4 active torsions:
REMARK  status: ('A' for Active; 'I' for Inactive)
REMARK    5  A    between atoms: CA   and  CB  
REMARK    6  A    between atoms: CB   and  CG  
REMARK    7  A    between atoms: CG   and  CD  
REMARK    8  A    between atoms: CD   and  CE  
ROOT
ATOM      7  CA  LYS A 135      33.193  34.663   9.290  1.00 25.02     0.186 C 
ENDROOT
BRANCH   7   8
ATOM      8  CB  LYS A 135      32.060  35.360  10.034  1.00 26.63     0.034 C 
BRANCH   8   9
ATOM      9  CG  LYS A 135      30.713  34.720   9.816  1.00 29.45     0.005 C 
BRANCH   9  10
ATOM     10  CD  LYS A 135      30.481  34.447   8.338  1.00 32.00     0.041 C 
BRANCH  10  11
ATOM     11  CE  LYS A 135      29.242  35.172   7.850  1.00 34.25     0.338 C 
ATOM     12  NZ  LYS A 135      28.004  34.529   8.371  1.00 35.99     0.618 N 
ENDBRANCH  10  11
ENDBRANCH   9  10
ENDBRANCH   8   9
ENDBRANCH   7   8
END_RES LYS A 135
