REMARK VINA RESULT:    -4.136      7.720     13.641
REMARK INTER + INTRA:         -15.607
REMARK INTER:                  -9.887
REMARK INTRA:                  -5.720
REMARK UNBOUND:                -7.118
REMARK SMILES CC(=O)N[C@@H]1[C@@H](O)C[C@](O)(C(=O)O)O[C@H]1C(O)[C@H](O)CNC(=O)OCc1cn(C[C@H](CC(=O)O)CC(C)C)nn1
REMARK SMILES IDX 24 1 22 2 21 3 23 5 20 6 18 7 16 8 15 9 9 10 8 11 14 12 6 13
REMARK SMILES IDX 5 14 10 15 11 17 12 18 13 19 7 21 4 23 2 24 1 26 3 27 17 28
REMARK SMILES IDX 19 30 25 32 26 33 27 34 40 35 28 36 39 37 29 38 30 39 31 40
REMARK SMILES IDX 32 41 33 42 34 43 35 45 36 46 37 47 38 48
REMARK H PARENT 21 4 10 16 13 20 7 22 4 25 17 29 19 31 34 44
REMARK Flexibility Score: inf
ROOT
ATOM      1  O   UNL     1      24.363  39.358   8.863  1.00  0.00    -0.443 OA
ENDROOT
BRANCH   1   2
ATOM      2  C   UNL     1      24.758  39.883   7.620  1.00  0.00     0.407 C 
ATOM      3  N   UNL     1      26.123  40.096   7.311  1.00  0.00    -0.319 N 
ATOM      4  H   UNL     1      26.822  39.831   8.075  1.00  0.00     0.167 HD
ATOM      5  O   UNL     1      23.859  40.158   6.790  1.00  0.00    -0.225 OA
BRANCH   3   6
ATOM      6  C   UNL     1      26.585  40.636   6.053  1.00  0.00     0.154 C 
BRANCH   6   7
ATOM      7  C   UNL     1      27.421  39.621   5.352  1.00  0.00     0.165 C 
BRANCH   7   8
ATOM      8  C   UNL     1      28.900  39.970   5.314  1.00  0.00     0.176 C 
BRANCH   8   9
ATOM      9  C   UNL     1      29.656  39.288   6.411  1.00  0.00     0.178 C 
ATOM     10  C   UNL     1      29.402  39.891   8.639  1.00  0.00     0.269 C 
ATOM     11  C   UNL     1      30.854  39.662   8.982  1.00  0.00     0.112 C 
ATOM     12  O   UNL     1      28.974  39.109   7.578  1.00  0.00    -0.332 OA
ATOM     13  C   UNL     1      31.640  39.159   7.790  1.00  0.00     0.145 C 
ATOM     14  C   UNL     1      31.046  39.894   6.581  1.00  0.00     0.142 C 
BRANCH  10  15
ATOM     15  O   UNL     1      29.148  41.249   8.424  1.00  0.00    -0.357 OA
ATOM     16  H   UNL     1      29.135  41.776   9.245  1.00  0.00     0.214 HD
ENDBRANCH  10  15
BRANCH  10  17
ATOM     17  C   UNL     1      28.601  39.487   9.825  1.00  0.00     0.364 C 
ATOM     18  O   UNL     1      29.039  39.767  10.983  1.00  0.00    -0.246 OA
BRANCH  17  19
ATOM     19  O   UNL     1      27.398  38.819   9.742  1.00  0.00    -0.477 OA
ATOM     20  H   UNL     1      27.259  37.964  10.303  1.00  0.00     0.296 HD
ENDBRANCH  17  19
ENDBRANCH  10  17
BRANCH  13  21
ATOM     21  O   UNL     1      32.993  39.357   7.907  1.00  0.00    -0.391 OA
ATOM     22  H   UNL     1      33.159  39.674   8.847  1.00  0.00     0.211 HD
ENDBRANCH  13  21
BRANCH  14  23
ATOM     23  N   UNL     1      31.817  39.633   5.391  1.00  0.00    -0.348 N 
ATOM     24  C   UNL     1      32.815  40.556   4.951  1.00  0.00     0.217 C 
ATOM     25  H   UNL     1      31.692  38.775   4.799  1.00  0.00     0.163 HD
ATOM     26  C   UNL     1      33.621  40.319   3.739  1.00  0.00     0.114 C 
ATOM     27  O   UNL     1      33.017  41.605   5.612  1.00  0.00    -0.275 OA
ENDBRANCH  14  23
ENDBRANCH   8   9
BRANCH   8  28
ATOM     28  O   UNL     1      29.080  41.332   5.256  1.00  0.00    -0.388 OA
ATOM     29  H   UNL     1      30.017  41.521   5.039  1.00  0.00     0.211 HD
ENDBRANCH   8  28
ENDBRANCH   7   8
BRANCH   7  30
ATOM     30  O   UNL     1      26.985  39.543   4.007  1.00  0.00    -0.388 OA
ATOM     31  H   UNL     1      26.937  40.437   3.598  1.00  0.00     0.211 HD
ENDBRANCH   7  30
ENDBRANCH   6   7
ENDBRANCH   3   6
ENDBRANCH   1   2
BRANCH   1  32
ATOM     32  C   UNL     1      23.908  38.028   8.891  1.00  0.00     0.294 C 
BRANCH  32  33
ATOM     33  C   UNL     1      25.009  37.054   8.781  1.00  0.00     0.120 A 
ATOM     34  C   UNL     1      25.416  36.065   9.663  1.00  0.00     0.138 A 
ATOM     35  N   UNL     1      25.850  36.958   7.744  1.00  0.00    -0.132 NA
ATOM     36  N   UNL     1      26.469  35.416   9.138  1.00  0.00    -0.252 N 
ATOM     37  N   UNL     1      26.712  35.975   7.979  1.00  0.00    -0.067 NA
BRANCH  36  38
ATOM     38  C   UNL     1      27.186  34.286   9.791  1.00  0.00     0.150 C 
BRANCH  38  39
ATOM     39  C   UNL     1      28.587  34.689  10.092  1.00  0.00     0.022 C 
BRANCH  39  40
ATOM     40  C   UNL     1      29.498  33.961   9.118  1.00  0.00     0.128 C 
BRANCH  40  41
ATOM     41  C   UNL     1      30.404  34.943   8.470  1.00  0.00     0.303 C 
ATOM     42  O   UNL     1      30.140  36.159   8.474  1.00  0.00    -0.252 OA
BRANCH  41  43
ATOM     43  O   UNL     1      31.558  34.445   7.858  1.00  0.00    -0.481 OA
ATOM     44  H   UNL     1      31.524  33.564   7.384  1.00  0.00     0.296 HD
ENDBRANCH  41  43
ENDBRANCH  40  41
ENDBRANCH  39  40
BRANCH  39  45
ATOM     45  C   UNL     1      28.954  34.534  11.510  1.00  0.00     0.009 C 
BRANCH  45  46
ATOM     46  C   UNL     1      28.134  35.230  12.529  1.00  0.00    -0.017 C 
ATOM     47  C   UNL     1      28.797  34.893  13.895  1.00  0.00     0.007 C 
ATOM     48  C   UNL     1      28.053  36.715  12.443  1.00  0.00     0.007 C 
ENDBRANCH  45  46
ENDBRANCH  39  45
ENDBRANCH  38  39
ENDBRANCH  36  38
ENDBRANCH  32  33
ENDBRANCH   1  32
TORSDOF 21
BEGIN_RES LYS A 131
REMARK  4 active torsions:
REMARK  status: ('A' for Active; 'I' for Inactive)
REMARK    1  A    between atoms: CA   and  CB  
REMARK    2  A    between atoms: CB   and  CG  
REMARK    3  A    between atoms: CG   and  CD  
REMARK    4  A    between atoms: CD   and  CE  
ROOT
ATOM      1  CA  LYS A 131      29.867  25.555  16.977  1.00 20.52     0.186 C 
ENDROOT
BRANCH   1   2
ATOM      2  CB  LYS A 131      28.345  25.722  17.026  1.00 20.94     0.034 C 
BRANCH   2   3
ATOM      3  CG  LYS A 131      27.600  24.409  16.843  1.00 22.96     0.005 C 
BRANCH   3   4
ATOM      4  CD  LYS A 131      26.781  24.049  18.051  1.00 24.33     0.041 C 
BRANCH   4   5
ATOM      5  CE  LYS A 131      26.077  25.295  18.578  1.00 26.91     0.338 C 
ATOM      6  NZ  LYS A 131      25.533  25.049  19.934  1.00 27.40     0.618 N 
ENDBRANCH   4   5
ENDBRANCH   3   4
ENDBRANCH   2   3
ENDBRANCH   1   2
END_RES LYS A 131
BEGIN_RES LYS A 135
REMARK  4 active torsions:
REMARK  status: ('A' for Active; 'I' for Inactive)
REMARK    5  A    between atoms: CA   and  CB  
REMARK    6  A    between atoms: CB   and  CG  
REMARK    7  A    between atoms: CG   and  CD  
REMARK    8  A    between atoms: CD   and  CE  
ROOT
ATOM      7  CA  LYS A 135      33.193  34.663   9.290  1.00 25.02     0.186 C 
ENDROOT
BRANCH   7   8
ATOM      8  CB  LYS A 135      32.060  35.360  10.034  1.00 26.63     0.034 C 
BRANCH   8   9
ATOM      9  CG  LYS A 135      32.391  35.684  11.468  1.00 29.45     0.005 C 
BRANCH   9  10
ATOM     10  CD  LYS A 135      31.792  37.024  11.867  1.00 32.00     0.041 C 
BRANCH  10  11
ATOM     11  CE  LYS A 135      31.754  37.162  13.377  1.00 34.25     0.338 C 
ATOM     12  NZ  LYS A 135      30.978  38.365  13.787  1.00 35.99     0.618 N 
ENDBRANCH  10  11
ENDBRANCH   9  10
ENDBRANCH   8   9
ENDBRANCH   7   8
END_RES LYS A 135
