REMARK VINA RESULT:    -4.184      3.142      6.844
REMARK INTER + INTRA:         -14.339
REMARK INTER:                  -7.699
REMARK INTRA:                  -6.641
REMARK UNBOUND:                -5.875
REMARK SMILES CC[N+](C)(CC)CCCn1cc(COC(=O)NC[C@@H](O)C(O)[C@@H]2O[C@@](O)(C(=O)O)C[C@H](O)[C@H]2NC(C)=O)nn1
REMARK SMILES IDX 14 1 15 2 17 3 16 5 18 6 19 7 21 8 23 9 25 10 30 11 24 12
REMARK SMILES IDX 31 13 33 14 26 15 27 17 28 18 29 19 32 21 34 23 35 24 36 26
REMARK SMILES IDX 37 27 22 28 20 30 13 32 12 33 11 34 38 35 10 36 39 37 9 38
REMARK SMILES IDX 8 39 7 40 3 41 4 42 2 43 1 44 5 45 6 46
REMARK H PARENT 17 4 26 16 29 20 32 22 34 25 22 29 20 31
REMARK Flexibility Score: inf
ROOT
ATOM      1  O   UNL     1      30.265  32.347  18.804  1.00  0.00    -0.443 OA
ENDROOT
BRANCH   1   2
ATOM      2  C   UNL     1      30.762  31.524  19.794  1.00  0.00     0.407 C 
ATOM      3  N   UNL     1      30.835  30.103  19.639  1.00  0.00    -0.319 N 
ATOM      4  H   UNL     1      30.504  29.731  18.742  1.00  0.00     0.167 HD
ATOM      5  O   UNL     1      31.161  32.042  20.863  1.00  0.00    -0.225 OA
BRANCH   3   6
ATOM      6  C   UNL     1      31.358  29.325  20.701  1.00  0.00     0.154 C 
BRANCH   6   7
ATOM      7  C   UNL     1      31.045  27.866  20.683  1.00  0.00     0.165 C 
BRANCH   7   8
ATOM      8  C   UNL     1      29.943  27.426  21.595  1.00  0.00     0.176 C 
BRANCH   8   9
ATOM      9  C   UNL     1      28.584  27.365  20.965  1.00  0.00     0.178 C 
ATOM     10  C   UNL     1      27.241  28.434  19.436  1.00  0.00     0.269 C 
ATOM     11  C   UNL     1      26.464  27.147  19.643  1.00  0.00     0.112 C 
ATOM     12  O   UNL     1      28.442  28.425  20.103  1.00  0.00    -0.332 OA
ATOM     13  C   UNL     1      26.185  26.926  21.097  1.00  0.00     0.145 C 
ATOM     14  C   UNL     1      27.432  27.292  21.905  1.00  0.00     0.142 C 
BRANCH  10  15
ATOM     15  O   UNL     1      26.453  29.477  19.957  1.00  0.00    -0.357 OA
ATOM     16  H   UNL     1      26.043  29.116  20.785  1.00  0.00     0.214 HD
ENDBRANCH  10  15
BRANCH  10  17
ATOM     17  C   UNL     1      27.439  28.671  17.997  1.00  0.00     0.364 C 
ATOM     18  O   UNL     1      26.767  28.024  17.146  1.00  0.00    -0.246 OA
BRANCH  17  19
ATOM     19  O   UNL     1      28.352  29.596  17.535  1.00  0.00    -0.477 OA
ATOM     20  H   UNL     1      28.808  29.481  16.650  1.00  0.00     0.296 HD
ENDBRANCH  17  19
ENDBRANCH  10  17
BRANCH  13  21
ATOM     21  O   UNL     1      25.105  27.736  21.475  1.00  0.00    -0.391 OA
ATOM     22  H   UNL     1      24.425  27.725  20.766  1.00  0.00     0.211 HD
ENDBRANCH  13  21
BRANCH  14  23
ATOM     23  N   UNL     1      27.578  26.189  22.861  1.00  0.00    -0.348 N 
ATOM     24  C   UNL     1      27.118  26.328  24.192  1.00  0.00     0.217 C 
ATOM     25  H   UNL     1      28.027  25.300  22.543  1.00  0.00     0.163 HD
ATOM     26  C   UNL     1      27.277  25.194  25.157  1.00  0.00     0.114 C 
ATOM     27  O   UNL     1      26.563  27.383  24.629  1.00  0.00    -0.275 OA
ENDBRANCH  14  23
ENDBRANCH   8   9
BRANCH   8  28
ATOM     28  O   UNL     1      30.281  26.182  22.149  1.00  0.00    -0.388 OA
ATOM     29  H   UNL     1      29.650  25.511  21.769  1.00  0.00     0.211 HD
ENDBRANCH   8  28
ENDBRANCH   7   8
BRANCH   7  30
ATOM     30  O   UNL     1      32.241  27.193  21.016  1.00  0.00    -0.388 OA
ATOM     31  H   UNL     1      33.029  27.611  20.614  1.00  0.00     0.211 HD
ENDBRANCH   7  30
ENDBRANCH   6   7
ENDBRANCH   3   6
ENDBRANCH   1   2
BRANCH   1  32
ATOM     32  C   UNL     1      29.176  33.208  19.108  1.00  0.00     0.294 C 
BRANCH  32  33
ATOM     33  C   UNL     1      27.965  32.765  18.381  1.00  0.00     0.120 A 
ATOM     34  C   UNL     1      27.628  32.914  17.053  1.00  0.00     0.138 A 
ATOM     35  N   UNL     1      26.920  32.104  18.924  1.00  0.00    -0.132 NA
ATOM     36  N   UNL     1      26.422  32.359  16.818  1.00  0.00    -0.252 N 
ATOM     37  N   UNL     1      26.029  31.880  17.980  1.00  0.00    -0.067 NA
BRANCH  36  38
ATOM     38  C   UNL     1      25.684  32.283  15.600  1.00  0.00     0.152 C 
BRANCH  38  39
ATOM     39  C   UNL     1      25.590  30.920  15.030  1.00  0.00     0.085 C 
BRANCH  39  40
ATOM     40  C   UNL     1      24.369  30.540  14.301  1.00  0.00     0.265 C 
BRANCH  40  41
ATOM     41  N   UNL     1      23.299  29.910  14.958  1.00  0.00    -0.326 N 
ATOM     42  C   UNL     1      22.278  30.759  15.510  1.00  0.00     0.334 C 
BRANCH  41  43
ATOM     43  C   UNL     1      22.602  29.118  13.925  1.00  0.00     0.260 C 
ATOM     44  C   UNL     1      23.378  28.915  12.682  1.00  0.00     0.071 C 
ENDBRANCH  41  43
BRANCH  41  45
ATOM     45  C   UNL     1      23.703  28.974  15.970  1.00  0.00     0.260 C 
ATOM     46  C   UNL     1      23.312  29.334  17.357  1.00  0.00     0.071 C 
ENDBRANCH  41  45
ENDBRANCH  40  41
ENDBRANCH  39  40
ENDBRANCH  38  39
ENDBRANCH  36  38
ENDBRANCH  32  33
ENDBRANCH   1  32
TORSDOF 20
BEGIN_RES LYS A 131
REMARK  4 active torsions:
REMARK  status: ('A' for Active; 'I' for Inactive)
REMARK    1  A    between atoms: CA   and  CB  
REMARK    2  A    between atoms: CB   and  CG  
REMARK    3  A    between atoms: CG   and  CD  
REMARK    4  A    between atoms: CD   and  CE  
ROOT
ATOM      1  CA  LYS A 131      29.867  25.555  16.977  1.00 20.52     0.186 C 
ENDROOT
BRANCH   1   2
ATOM      2  CB  LYS A 131      28.345  25.722  17.026  1.00 20.94     0.034 C 
BRANCH   2   3
ATOM      3  CG  LYS A 131      27.601  24.403  16.888  1.00 22.96     0.005 C 
BRANCH   3   4
ATOM      4  CD  LYS A 131      26.152  24.527  17.270  1.00 24.33     0.041 C 
BRANCH   4   5
ATOM      5  CE  LYS A 131      25.790  23.423  18.257  1.00 26.91     0.338 C 
ATOM      6  NZ  LYS A 131      24.905  22.422  17.615  1.00 27.40     0.618 N 
ENDBRANCH   4   5
ENDBRANCH   3   4
ENDBRANCH   2   3
ENDBRANCH   1   2
END_RES LYS A 131
BEGIN_RES LYS A 135
REMARK  4 active torsions:
REMARK  status: ('A' for Active; 'I' for Inactive)
REMARK    5  A    between atoms: CA   and  CB  
REMARK    6  A    between atoms: CB   and  CG  
REMARK    7  A    between atoms: CG   and  CD  
REMARK    8  A    between atoms: CD   and  CE  
ROOT
ATOM      7  CA  LYS A 135      33.193  34.663   9.290  1.00 25.02     0.186 C 
ENDROOT
BRANCH   7   8
ATOM      8  CB  LYS A 135      32.060  35.360  10.034  1.00 26.63     0.034 C 
BRANCH   8   9
ATOM      9  CG  LYS A 135      30.790  35.471   9.230  1.00 29.45     0.005 C 
BRANCH   9  10
ATOM     10  CD  LYS A 135      30.206  34.094   8.956  1.00 32.00     0.041 C 
BRANCH  10  11
ATOM     11  CE  LYS A 135      28.692  34.133   9.029  1.00 34.25     0.338 C 
ATOM     12  NZ  LYS A 135      28.227  34.290  10.435  1.00 35.99     0.618 N 
ENDBRANCH  10  11
ENDBRANCH   9  10
ENDBRANCH   8   9
ENDBRANCH   7   8
END_RES LYS A 135
