REMARK VINA RESULT:    -4.612      5.287      9.730
REMARK INTER + INTRA:         -13.900
REMARK INTER:                  -8.740
REMARK INTRA:                  -5.160
REMARK UNBOUND:                -5.917
REMARK SMILES CC(=O)N[C@@H]1[C@@H](O)C[C@](O)(C(=O)O)O[C@H]1C(O)[C@H](O)CNC(=O)OCc1cn(-c2c(C)cc(C)cc2C)nn1
REMARK SMILES IDX 20 1 18 2 16 3 15 4 9 5 8 6 14 7 6 8 5 9 10 10 11 12 12 13
REMARK SMILES IDX 13 14 7 16 4 18 2 19 1 21 3 22 17 23 19 25 21 27 22 28 23 30
REMARK SMILES IDX 24 31 25 32 26 33 27 34 39 35 28 36 38 37 29 38 30 39 36 40
REMARK SMILES IDX 31 41 32 42 35 43 37 44 33 45 34 46
REMARK H PARENT 10 11 13 15 7 17 4 20 17 24 19 26 21 29
REMARK Flexibility Score: inf
ROOT
ATOM      1  C   UNL     1      30.078  31.479  16.840  1.00  0.00     0.154 C 
ENDROOT
BRANCH   1   2
ATOM      2  C   UNL     1      31.242  32.266  16.358  1.00  0.00     0.165 C 
BRANCH   2   3
ATOM      3  C   UNL     1      31.342  33.660  16.888  1.00  0.00     0.176 C 
BRANCH   3   4
ATOM      4  C   UNL     1      30.821  34.734  16.009  1.00  0.00     0.178 C 
ATOM      5  C   UNL     1      29.766  34.861  13.926  1.00  0.00     0.269 C 
ATOM      6  C   UNL     1      30.048  36.334  13.847  1.00  0.00     0.112 C 
ATOM      7  O   UNL     1      29.818  34.328  15.179  1.00  0.00    -0.332 OA
ATOM      8  C   UNL     1      31.116  36.794  14.781  1.00  0.00     0.145 C 
ATOM      9  C   UNL     1      31.862  35.556  15.311  1.00  0.00     0.142 C 
BRANCH   5  10
ATOM     10  O   UNL     1      30.658  34.211  13.075  1.00  0.00    -0.357 OA
ATOM     11  H   UNL     1      31.569  34.583  13.253  1.00  0.00     0.214 HD
ENDBRANCH   5  10
BRANCH   5  12
ATOM     12  C   UNL     1      28.389  34.660  13.402  1.00  0.00     0.364 C 
ATOM     13  O   UNL     1      28.121  34.909  12.209  1.00  0.00    -0.246 OA
BRANCH  12  14
ATOM     14  O   UNL     1      27.366  34.190  14.236  1.00  0.00    -0.477 OA
ATOM     15  H   UNL     1      27.050  34.794  15.009  1.00  0.00     0.296 HD
ENDBRANCH  12  14
ENDBRANCH   5  12
BRANCH   8  16
ATOM     16  O   UNL     1      31.984  37.726  14.248  1.00  0.00    -0.391 OA
ATOM     17  H   UNL     1      32.401  38.216  15.017  1.00  0.00     0.211 HD
ENDBRANCH   8  16
BRANCH   9  18
ATOM     18  N   UNL     1      32.846  36.078  16.223  1.00  0.00    -0.348 N 
ATOM     19  C   UNL     1      34.215  35.794  15.974  1.00  0.00     0.217 C 
ATOM     20  H   UNL     1      32.589  36.658  17.060  1.00  0.00     0.163 HD
ATOM     21  C   UNL     1      35.306  36.284  16.856  1.00  0.00     0.114 C 
ATOM     22  O   UNL     1      34.551  35.104  14.979  1.00  0.00    -0.275 OA
ENDBRANCH   9  18
ENDBRANCH   3   4
BRANCH   3  23
ATOM     23  O   UNL     1      30.682  33.700  18.114  1.00  0.00    -0.388 OA
ATOM     24  H   UNL     1      30.075  32.920  18.155  1.00  0.00     0.211 HD
ENDBRANCH   3  23
ENDBRANCH   2   3
BRANCH   2  25
ATOM     25  O   UNL     1      31.351  32.213  14.966  1.00  0.00    -0.388 OA
ATOM     26  H   UNL     1      30.659  31.633  14.562  1.00  0.00     0.211 HD
ENDBRANCH   2  25
ENDBRANCH   1   2
BRANCH   1  27
ATOM     27  N   UNL     1      28.805  32.037  16.430  1.00  0.00    -0.319 N 
ATOM     28  C   UNL     1      27.716  31.240  15.978  1.00  0.00     0.407 C 
ATOM     29  H   UNL     1      28.612  33.082  16.446  1.00  0.00     0.167 HD
ATOM     30  O   UNL     1      27.828  30.001  15.917  1.00  0.00    -0.225 OA
BRANCH  28  31
ATOM     31  O   UNL     1      26.506  31.823  15.594  1.00  0.00    -0.443 OA
BRANCH  31  32
ATOM     32  C   UNL     1      25.433  31.891  16.547  1.00  0.00     0.294 C 
BRANCH  32  33
ATOM     33  C   UNL     1      24.378  30.933  16.126  1.00  0.00     0.121 A 
ATOM     34  C   UNL     1      23.500  31.117  15.071  1.00  0.00     0.144 A 
ATOM     35  N   UNL     1      24.073  29.755  16.650  1.00  0.00    -0.131 NA
ATOM     36  N   UNL     1      22.691  30.059  14.979  1.00  0.00    -0.220 N 
ATOM     37  N   UNL     1      23.082  29.244  15.974  1.00  0.00    -0.062 NA
BRANCH  36  38
ATOM     38  C   UNL     1      21.637  29.787  14.065  1.00  0.00     0.072 A 
ATOM     39  C   UNL     1      20.339  30.119  14.384  1.00  0.00    -0.025 A 
ATOM     40  C   UNL     1      21.869  29.187  12.838  1.00  0.00    -0.025 A 
ATOM     41  C   UNL     1      20.064  30.762  15.688  1.00  0.00     0.047 C 
ATOM     42  C   UNL     1      19.303  29.849  13.481  1.00  0.00     0.009 A 
ATOM     43  C   UNL     1      20.841  28.926  11.954  1.00  0.00     0.009 A 
ATOM     44  C   UNL     1      23.295  28.832  12.507  1.00  0.00     0.047 C 
ATOM     45  C   UNL     1      19.537  29.252  12.260  1.00  0.00    -0.050 A 
ATOM     46  C   UNL     1      18.415  28.976  11.315  1.00  0.00     0.044 C 
ENDBRANCH  36  38
ENDBRANCH  32  33
ENDBRANCH  31  32
ENDBRANCH  28  31
ENDBRANCH   1  27
TORSDOF 15
BEGIN_RES LYS A 131
REMARK  4 active torsions:
REMARK  status: ('A' for Active; 'I' for Inactive)
REMARK    1  A    between atoms: CA   and  CB  
REMARK    2  A    between atoms: CB   and  CG  
REMARK    3  A    between atoms: CG   and  CD  
REMARK    4  A    between atoms: CD   and  CE  
ROOT
ATOM      1  CA  LYS A 131      29.867  25.555  16.977  1.00 20.52     0.186 C 
ENDROOT
BRANCH   1   2
ATOM      2  CB  LYS A 131      28.345  25.722  17.026  1.00 20.94     0.034 C 
BRANCH   2   3
ATOM      3  CG  LYS A 131      27.602  24.398  16.937  1.00 22.96     0.005 C 
BRANCH   3   4
ATOM      4  CD  LYS A 131      26.138  24.548  17.242  1.00 24.33     0.041 C 
BRANCH   4   5
ATOM      5  CE  LYS A 131      25.576  23.212  17.716  1.00 26.91     0.338 C 
ATOM      6  NZ  LYS A 131      25.534  23.163  19.197  1.00 27.40     0.618 N 
ENDBRANCH   4   5
ENDBRANCH   3   4
ENDBRANCH   2   3
ENDBRANCH   1   2
END_RES LYS A 131
BEGIN_RES LYS A 135
REMARK  4 active torsions:
REMARK  status: ('A' for Active; 'I' for Inactive)
REMARK    5  A    between atoms: CA   and  CB  
REMARK    6  A    between atoms: CB   and  CG  
REMARK    7  A    between atoms: CG   and  CD  
REMARK    8  A    between atoms: CD   and  CE  
ROOT
ATOM      7  CA  LYS A 135      33.193  34.663   9.290  1.00 25.02     0.186 C 
ENDROOT
BRANCH   7   8
ATOM      8  CB  LYS A 135      32.060  35.360  10.034  1.00 26.63     0.034 C 
BRANCH   8   9
ATOM      9  CG  LYS A 135      30.706  34.751   9.777  1.00 29.45     0.005 C 
BRANCH   9  10
ATOM     10  CD  LYS A 135      30.426  34.675   8.284  1.00 32.00     0.041 C 
BRANCH  10  11
ATOM     11  CE  LYS A 135      29.038  35.204   7.976  1.00 34.25     0.338 C 
ATOM     12  NZ  LYS A 135      28.902  35.543   6.532  1.00 35.99     0.618 N 
ENDBRANCH  10  11
ENDBRANCH   9  10
ENDBRANCH   8   9
ENDBRANCH   7   8
END_RES LYS A 135
