REMARK VINA RESULT:    -3.951      5.364      9.495
REMARK INTER + INTRA:         -14.496
REMARK INTER:                  -9.807
REMARK INTRA:                  -4.688
REMARK UNBOUND:                -7.311
REMARK SMILES CC(=O)N[C@@H]1[C@@H](O)C[C@](O)(C(=O)O)O[C@H]1C(O)[C@H](O)CNC(=O)OCc1cn(-c2ccc(O)c([N+](=O)[O-])c2)nn1
REMARK SMILES IDX 21 1 22 2 23 3 20 5 18 6 16 7 15 8 9 9 8 10 14 11 6 12 5 13
REMARK SMILES IDX 10 14 11 16 12 17 13 18 7 20 4 22 2 23 1 25 3 26 17 27 19 29
REMARK SMILES IDX 24 31 25 32 26 33 27 34 40 35 28 36 39 37 29 38 30 39 38 40
REMARK SMILES IDX 31 41 34 42 32 43 35 44 36 45 37 46 33 47
REMARK H PARENT 21 4 10 15 13 19 7 21 4 24 17 28 19 30 33 48
REMARK Flexibility Score: inf
ROOT
ATOM      1  N   UNL     1      25.810  37.695   6.828  1.00  0.00    -0.319 N 
ATOM      2  C   UNL     1      27.207  37.951   6.848  1.00  0.00     0.407 C 
ATOM      3  O   UNL     1      27.700  38.940   7.487  1.00  0.00    -0.225 OA
ATOM      4  H   UNL     1      25.453  36.881   6.305  1.00  0.00     0.167 HD
ENDROOT
BRANCH   1   5
ATOM      5  C   UNL     1      24.929  38.569   7.546  1.00  0.00     0.154 C 
BRANCH   5   6
ATOM      6  C   UNL     1      23.615  38.003   7.951  1.00  0.00     0.165 C 
BRANCH   6   7
ATOM      7  C   UNL     1      23.662  36.978   9.055  1.00  0.00     0.176 C 
BRANCH   7   8
ATOM      8  C   UNL     1      22.339  36.362   9.388  1.00  0.00     0.178 C 
ATOM      9  C   UNL     1      20.078  36.418   8.991  1.00  0.00     0.269 C 
ATOM     10  C   UNL     1      20.206  35.062   9.648  1.00  0.00     0.112 C 
ATOM     11  O   UNL     1      21.286  37.077   8.844  1.00  0.00    -0.332 OA
ATOM     12  C   UNL     1      20.862  35.218  10.979  1.00  0.00     0.145 C 
ATOM     13  C   UNL     1      22.187  35.970  10.811  1.00  0.00     0.142 C 
BRANCH   9  14
ATOM     14  O   UNL     1      19.241  37.179   9.794  1.00  0.00    -0.357 OA
ATOM     15  H   UNL     1      19.815  37.604  10.488  1.00  0.00     0.214 HD
ENDBRANCH   9  14
BRANCH   9  16
ATOM     16  C   UNL     1      19.411  36.213   7.681  1.00  0.00     0.364 C 
ATOM     17  O   UNL     1      18.735  37.127   7.142  1.00  0.00    -0.246 OA
BRANCH  16  18
ATOM     18  O   UNL     1      19.520  35.003   7.023  1.00  0.00    -0.477 OA
ATOM     19  H   UNL     1      20.199  34.816   6.309  1.00  0.00     0.296 HD
ENDBRANCH  16  18
ENDBRANCH   9  16
BRANCH  12  20
ATOM     20  O   UNL     1      19.970  35.936  11.797  1.00  0.00    -0.391 OA
ATOM     21  H   UNL     1      20.123  35.597  12.730  1.00  0.00     0.211 HD
ENDBRANCH  12  20
BRANCH  13  22
ATOM     22  N   UNL     1      23.263  35.010  11.105  1.00  0.00    -0.348 N 
ATOM     23  C   UNL     1      24.040  35.070  12.281  1.00  0.00     0.217 C 
ATOM     24  H   UNL     1      23.456  34.252  10.409  1.00  0.00     0.163 HD
ATOM     25  C   UNL     1      25.116  34.084  12.538  1.00  0.00     0.114 C 
ATOM     26  O   UNL     1      23.824  35.960  13.113  1.00  0.00    -0.275 OA
ENDBRANCH  13  22
ENDBRANCH   7   8
BRANCH   7  27
ATOM     27  O   UNL     1      24.552  35.949   8.751  1.00  0.00    -0.388 OA
ATOM     28  H   UNL     1      25.343  35.936   9.315  1.00  0.00     0.211 HD
ENDBRANCH   7  27
ENDBRANCH   6   7
BRANCH   6  29
ATOM     29  O   UNL     1      23.052  37.434   6.800  1.00  0.00    -0.388 OA
ATOM     30  H   UNL     1      22.943  36.456   6.978  1.00  0.00     0.211 HD
ENDBRANCH   6  29
ENDBRANCH   5   6
ENDBRANCH   1   5
BRANCH   2  31
ATOM     31  O   UNL     1      28.033  37.100   6.152  1.00  0.00    -0.443 OA
BRANCH  31  32
ATOM     32  C   UNL     1      27.984  35.729   6.401  1.00  0.00     0.294 C 
BRANCH  32  33
ATOM     33  C   UNL     1      27.824  35.393   7.841  1.00  0.00     0.121 A 
ATOM     34  C   UNL     1      28.509  35.921   8.926  1.00  0.00     0.144 A 
ATOM     35  N   UNL     1      26.973  34.503   8.383  1.00  0.00    -0.131 NA
ATOM     36  N   UNL     1      28.074  35.358  10.063  1.00  0.00    -0.220 N 
ATOM     37  N   UNL     1      27.137  34.496   9.707  1.00  0.00    -0.062 NA
BRANCH  36  38
ATOM     38  C   UNL     1      28.497  35.599  11.400  1.00  0.00     0.073 A 
ATOM     39  C   UNL     1      28.161  36.779  12.031  1.00  0.00     0.033 A 
ATOM     40  C   UNL     1      29.245  34.692  12.122  1.00  0.00     0.118 A 
ATOM     41  C   UNL     1      28.562  37.034  13.332  1.00  0.00     0.056 A 
ATOM     42  C   UNL     1      29.669  34.903  13.424  1.00  0.00     0.312 A 
ATOM     43  C   UNL     1      29.307  36.107  14.021  1.00  0.00     0.194 A 
BRANCH  42  44
ATOM     44  N   UNL     1      30.433  33.965  14.148  1.00  0.00     0.066 N 
ATOM     45  O   UNL     1      29.927  32.891  14.473  1.00  0.00    -0.258 OA
ATOM     46  O   UNL     1      31.720  34.249  14.481  1.00  0.00    -0.258 OA
ENDBRANCH  42  44
BRANCH  43  47
ATOM     47  O   UNL     1      29.735  36.317  15.330  1.00  0.00    -0.502 OA
ATOM     48  H   UNL     1      30.267  35.565  15.791  1.00  0.00     0.293 HD
ENDBRANCH  43  47
ENDBRANCH  36  38
ENDBRANCH  32  33
ENDBRANCH  31  32
ENDBRANCH   2  31
TORSDOF 17
BEGIN_RES LYS A 131
REMARK  4 active torsions:
REMARK  status: ('A' for Active; 'I' for Inactive)
REMARK    1  A    between atoms: CA   and  CB  
REMARK    2  A    between atoms: CB   and  CG  
REMARK    3  A    between atoms: CG   and  CD  
REMARK    4  A    between atoms: CD   and  CE  
ROOT
ATOM      1  CA  LYS A 131      29.867  25.555  16.977  1.00 20.52     0.186 C 
ENDROOT
BRANCH   1   2
ATOM      2  CB  LYS A 131      28.345  25.722  17.026  1.00 20.94     0.034 C 
BRANCH   2   3
ATOM      3  CG  LYS A 131      27.602  24.400  16.912  1.00 22.96     0.005 C 
BRANCH   3   4
ATOM      4  CD  LYS A 131      26.153  24.531  17.292  1.00 24.33     0.041 C 
BRANCH   4   5
ATOM      5  CE  LYS A 131      25.789  23.441  18.295  1.00 26.91     0.338 C 
ATOM      6  NZ  LYS A 131      25.085  22.326  17.618  1.00 27.40     0.618 N 
ENDBRANCH   4   5
ENDBRANCH   3   4
ENDBRANCH   2   3
ENDBRANCH   1   2
END_RES LYS A 131
BEGIN_RES LYS A 135
REMARK  4 active torsions:
REMARK  status: ('A' for Active; 'I' for Inactive)
REMARK    5  A    between atoms: CA   and  CB  
REMARK    6  A    between atoms: CB   and  CG  
REMARK    7  A    between atoms: CG   and  CD  
REMARK    8  A    between atoms: CD   and  CE  
ROOT
ATOM      7  CA  LYS A 135      33.193  34.663   9.290  1.00 25.02     0.186 C 
ENDROOT
BRANCH   7   8
ATOM      8  CB  LYS A 135      32.060  35.360  10.034  1.00 26.63     0.034 C 
BRANCH   8   9
ATOM      9  CG  LYS A 135      32.497  36.018  11.317  1.00 29.45     0.005 C 
BRANCH   9  10
ATOM     10  CD  LYS A 135      31.880  37.402  11.448  1.00 32.00     0.041 C 
BRANCH  10  11
ATOM     11  CE  LYS A 135      31.374  37.889  10.103  1.00 34.25     0.338 C 
ATOM     12  NZ  LYS A 135      32.200  39.019   9.596  1.00 35.99     0.618 N 
ENDBRANCH  10  11
ENDBRANCH   9  10
ENDBRANCH   8   9
ENDBRANCH   7   8
END_RES LYS A 135
