REMARK VINA RESULT:    -4.806      4.094      5.332
REMARK INTER + INTRA:         -14.317
REMARK INTER:                  -8.739
REMARK INTRA:                  -5.578
REMARK UNBOUND:                -5.578
REMARK SMILES CC(=O)N[C@@H]1[C@@H](O)C[C@](O)(C(=O)O)O[C@H]1C(O)[C@H](O)CNC(=O)OCc1cn(C(C)(C)C(=O)O)nn1
REMARK SMILES IDX 21 1 22 2 23 3 20 5 18 6 16 7 15 8 9 9 8 10 14 11 6 12 5 13
REMARK SMILES IDX 10 14 11 16 12 17 13 18 7 20 4 22 2 23 1 25 3 26 17 27 19 29
REMARK SMILES IDX 24 31 25 32 26 33 27 34 36 35 28 36 35 37 29 38 30 39 31 40
REMARK SMILES IDX 32 41 33 42 34 43
REMARK H PARENT 21 4 10 15 13 19 7 21 4 24 17 28 19 30 34 44
REMARK Flexibility Score: inf
ROOT
ATOM      1  N   UNL     1      29.879  30.873  18.007  1.00  0.00    -0.319 N 
ATOM      2  C   UNL     1      28.517  30.915  18.389  1.00  0.00     0.407 C 
ATOM      3  O   UNL     1      27.601  31.094  17.515  1.00  0.00    -0.225 OA
ATOM      4  H   UNL     1      30.615  30.724  18.722  1.00  0.00     0.167 HD
ENDROOT
BRANCH   1   5
ATOM      5  C   UNL     1      30.195  31.035  16.610  1.00  0.00     0.154 C 
BRANCH   5   6
ATOM      6  C   UNL     1      30.946  32.272  16.267  1.00  0.00     0.165 C 
BRANCH   6   7
ATOM      7  C   UNL     1      30.072  33.496  16.152  1.00  0.00     0.176 C 
BRANCH   7   8
ATOM      8  C   UNL     1      30.688  34.414  15.088  1.00  0.00     0.178 C 
ATOM      9  C   UNL     1      32.539  35.803  14.860  1.00  0.00     0.269 C 
ATOM     10  C   UNL     1      31.676  36.909  14.294  1.00  0.00     0.112 C 
ATOM     11  O   UNL     1      31.851  34.922  15.657  1.00  0.00    -0.332 OA
ATOM     12  C   UNL     1      30.319  36.881  14.935  1.00  0.00     0.145 C 
ATOM     13  C   UNL     1      29.706  35.509  14.734  1.00  0.00     0.142 C 
BRANCH   9  14
ATOM     14  O   UNL     1      33.482  36.433  15.688  1.00  0.00    -0.357 OA
ATOM     15  H   UNL     1      34.153  35.789  15.979  1.00  0.00     0.214 HD
ENDBRANCH   9  14
BRANCH   9  16
ATOM     16  C   UNL     1      33.275  35.112  13.779  1.00  0.00     0.364 C 
ATOM     17  O   UNL     1      34.362  34.550  14.023  1.00  0.00    -0.246 OA
BRANCH  16  18
ATOM     18  O   UNL     1      32.796  35.062  12.478  1.00  0.00    -0.477 OA
ATOM     19  H   UNL     1      33.064  35.737  11.777  1.00  0.00     0.296 HD
ENDBRANCH  16  18
ENDBRANCH   9  16
BRANCH  12  20
ATOM     20  O   UNL     1      30.332  37.264  16.254  1.00  0.00    -0.391 OA
ATOM     21  H   UNL     1      31.141  37.744  16.537  1.00  0.00     0.211 HD
ENDBRANCH  12  20
BRANCH  13  22
ATOM     22  N   UNL     1      29.321  35.428  13.327  1.00  0.00    -0.348 N 
ATOM     23  C   UNL     1      28.024  34.990  12.939  1.00  0.00     0.217 C 
ATOM     24  H   UNL     1      30.000  35.692  12.583  1.00  0.00     0.163 HD
ATOM     25  C   UNL     1      27.615  34.901  11.506  1.00  0.00     0.114 C 
ATOM     26  O   UNL     1      27.232  34.679  13.884  1.00  0.00    -0.275 OA
ENDBRANCH  13  22
ENDBRANCH   7   8
BRANCH   7  27
ATOM     27  O   UNL     1      28.753  33.249  15.897  1.00  0.00    -0.388 OA
ATOM     28  H   UNL     1      28.433  33.786  15.148  1.00  0.00     0.211 HD
ENDBRANCH   7  27
ENDBRANCH   6   7
BRANCH   6  29
ATOM     29  O   UNL     1      31.547  32.025  15.006  1.00  0.00    -0.388 OA
ATOM     30  H   UNL     1      32.529  31.900  15.148  1.00  0.00     0.211 HD
ENDBRANCH   6  29
ENDBRANCH   5   6
ENDBRANCH   1   5
BRANCH   2  31
ATOM     31  O   UNL     1      28.081  30.774  19.690  1.00  0.00    -0.443 OA
BRANCH  31  32
ATOM     32  C   UNL     1      27.582  29.517  20.181  1.00  0.00     0.294 C 
BRANCH  32  33
ATOM     33  C   UNL     1      28.735  28.765  20.740  1.00  0.00     0.120 A 
ATOM     34  C   UNL     1      29.651  29.259  21.655  1.00  0.00     0.139 A 
ATOM     35  N   UNL     1      29.137  27.502  20.501  1.00  0.00    -0.132 NA
ATOM     36  N   UNL     1      30.564  28.303  21.941  1.00  0.00    -0.235 N 
ATOM     37  N   UNL     1      30.220  27.251  21.222  1.00  0.00    -0.066 NA
BRANCH  36  38
ATOM     38  C   UNL     1      31.678  28.443  22.856  1.00  0.00     0.155 C 
ATOM     39  C   UNL     1      31.336  29.435  23.949  1.00  0.00     0.049 C 
ATOM     40  C   UNL     1      31.996  27.096  23.470  1.00  0.00     0.049 C 
BRANCH  38  41
ATOM     41  C   UNL     1      32.884  28.972  22.153  1.00  0.00     0.331 C 
ATOM     42  O   UNL     1      33.826  29.401  22.866  1.00  0.00    -0.250 OA
BRANCH  41  43
ATOM     43  O   UNL     1      32.984  28.998  20.776  1.00  0.00    -0.479 OA
ATOM     44  H   UNL     1      33.915  28.930  20.375  1.00  0.00     0.296 HD
ENDBRANCH  41  43
ENDBRANCH  38  41
ENDBRANCH  36  38
ENDBRANCH  32  33
ENDBRANCH  31  32
ENDBRANCH   2  31
TORSDOF 17
BEGIN_RES LYS A 131
REMARK  4 active torsions:
REMARK  status: ('A' for Active; 'I' for Inactive)
REMARK    1  A    between atoms: CA   and  CB  
REMARK    2  A    between atoms: CB   and  CG  
REMARK    3  A    between atoms: CG   and  CD  
REMARK    4  A    between atoms: CD   and  CE  
ROOT
ATOM      1  CA  LYS A 131      29.867  25.555  16.977  1.00 20.52     0.186 C 
ENDROOT
BRANCH   1   2
ATOM      2  CB  LYS A 131      28.345  25.722  17.026  1.00 20.94     0.034 C 
BRANCH   2   3
ATOM      3  CG  LYS A 131      27.602  24.398  16.934  1.00 22.96     0.005 C 
BRANCH   3   4
ATOM      4  CD  LYS A 131      26.609  24.227  18.050  1.00 24.33     0.041 C 
BRANCH   4   5
ATOM      5  CE  LYS A 131      26.212  25.596  18.592  1.00 26.91     0.338 C 
ATOM      6  NZ  LYS A 131      25.682  25.475  19.971  1.00 27.40     0.618 N 
ENDBRANCH   4   5
ENDBRANCH   3   4
ENDBRANCH   2   3
ENDBRANCH   1   2
END_RES LYS A 131
BEGIN_RES LYS A 135
REMARK  4 active torsions:
REMARK  status: ('A' for Active; 'I' for Inactive)
REMARK    5  A    between atoms: CA   and  CB  
REMARK    6  A    between atoms: CB   and  CG  
REMARK    7  A    between atoms: CG   and  CD  
REMARK    8  A    between atoms: CD   and  CE  
ROOT
ATOM      7  CA  LYS A 135      33.193  34.663   9.290  1.00 25.02     0.186 C 
ENDROOT
BRANCH   7   8
ATOM      8  CB  LYS A 135      32.060  35.360  10.034  1.00 26.63     0.034 C 
BRANCH   8   9
ATOM      9  CG  LYS A 135      30.705  34.753   9.774  1.00 29.45     0.005 C 
BRANCH   9  10
ATOM     10  CD  LYS A 135      30.477  34.570   8.281  1.00 32.00     0.041 C 
BRANCH  10  11
ATOM     11  CE  LYS A 135      29.033  34.864   7.923  1.00 34.25     0.338 C 
ATOM     12  NZ  LYS A 135      28.940  35.595   6.629  1.00 35.99     0.618 N 
ENDBRANCH  10  11
ENDBRANCH   9  10
ENDBRANCH   8   9
ENDBRANCH   7   8
END_RES LYS A 135
