REMARK VINA RESULT:    -4.861      0.000      0.000
REMARK INTER + INTRA:         -15.708
REMARK INTER:                  -9.139
REMARK INTRA:                  -6.569
REMARK UNBOUND:                -5.875
REMARK SMILES CC[N+](C)(CC)CCCn1cc(COC(=O)NC[C@@H](O)C(O)[C@@H]2O[C@@](O)(C(=O)O)C[C@H](O)[C@H]2NC(C)=O)nn1
REMARK SMILES IDX 14 1 15 2 17 3 16 5 18 6 19 7 21 8 23 9 25 10 30 11 24 12
REMARK SMILES IDX 31 13 33 14 26 15 27 17 28 18 29 19 32 21 34 23 35 24 36 26
REMARK SMILES IDX 37 27 22 28 20 30 13 32 12 33 11 34 38 35 10 36 39 37 9 38
REMARK SMILES IDX 8 39 7 40 3 41 4 42 2 43 1 44 5 45 6 46
REMARK H PARENT 17 4 26 16 29 20 32 22 34 25 22 29 20 31
REMARK Flexibility Score: inf
ROOT
ATOM      1  O   UNL     1      27.223  28.373  18.684  1.00  0.00    -0.443 OA
ENDROOT
BRANCH   1   2
ATOM      2  C   UNL     1      27.959  28.170  19.834  1.00  0.00     0.407 C 
ATOM      3  N   UNL     1      29.142  27.364  19.850  1.00  0.00    -0.319 N 
ATOM      4  H   UNL     1      29.418  26.953  18.952  1.00  0.00     0.167 HD
ATOM      5  O   UNL     1      27.575  28.709  20.897  1.00  0.00    -0.225 OA
BRANCH   3   6
ATOM      6  C   UNL     1      29.843  27.202  21.070  1.00  0.00     0.154 C 
BRANCH   6   7
ATOM      7  C   UNL     1      31.217  27.780  21.138  1.00  0.00     0.165 C 
BRANCH   7   8
ATOM      8  C   UNL     1      31.313  29.256  20.907  1.00  0.00     0.176 C 
BRANCH   8   9
ATOM      9  C   UNL     1      32.548  29.906  21.455  1.00  0.00     0.178 C 
ATOM     10  C   UNL     1      34.217  29.615  23.010  1.00  0.00     0.269 C 
ATOM     11  C   UNL     1      34.782  30.766  22.200  1.00  0.00     0.112 C 
ATOM     12  O   UNL     1      33.052  29.127  22.468  1.00  0.00    -0.332 OA
ATOM     13  C   UNL     1      33.799  31.893  22.125  1.00  0.00     0.145 C 
ATOM     14  C   UNL     1      32.399  31.319  21.899  1.00  0.00     0.142 C 
BRANCH  10  15
ATOM     15  O   UNL     1      33.932  30.116  24.293  1.00  0.00    -0.357 OA
ATOM     16  H   UNL     1      33.156  30.724  24.178  1.00  0.00     0.214 HD
ENDBRANCH  10  15
BRANCH  10  17
ATOM     17  C   UNL     1      35.225  28.551  23.135  1.00  0.00     0.364 C 
ATOM     18  O   UNL     1      36.436  28.840  23.344  1.00  0.00    -0.246 OA
BRANCH  17  19
ATOM     19  O   UNL     1      34.887  27.217  23.031  1.00  0.00    -0.477 OA
ATOM     20  H   UNL     1      34.243  26.791  23.670  1.00  0.00     0.296 HD
ENDBRANCH  17  19
ENDBRANCH  10  17
BRANCH  13  21
ATOM     21  O   UNL     1      33.845  32.609  23.329  1.00  0.00    -0.391 OA
ATOM     22  H   UNL     1      33.179  33.330  23.306  1.00  0.00     0.211 HD
ENDBRANCH  13  21
BRANCH  14  23
ATOM     23  N   UNL     1      31.829  32.164  20.845  1.00  0.00    -0.348 N 
ATOM     24  C   UNL     1      31.252  33.417  21.164  1.00  0.00     0.217 C 
ATOM     25  H   UNL     1      31.855  31.827  19.856  1.00  0.00     0.163 HD
ATOM     26  C   UNL     1      30.671  34.267  20.077  1.00  0.00     0.114 C 
ATOM     27  O   UNL     1      31.197  33.876  22.346  1.00  0.00    -0.275 OA
ENDBRANCH  14  23
ENDBRANCH   8   9
BRANCH   8  28
ATOM     28  O   UNL     1      31.198  29.508  19.531  1.00  0.00    -0.388 OA
ATOM     29  H   UNL     1      31.865  28.927  19.071  1.00  0.00     0.211 HD
ENDBRANCH   8  28
ENDBRANCH   7   8
BRANCH   7  30
ATOM     30  O   UNL     1      31.993  27.092  20.180  1.00  0.00    -0.388 OA
ATOM     31  H   UNL     1      31.640  26.201  19.984  1.00  0.00     0.211 HD
ENDBRANCH   7  30
ENDBRANCH   6   7
ENDBRANCH   3   6
ENDBRANCH   1   2
BRANCH   1  32
ATOM     32  C   UNL     1      26.911  29.703  18.294  1.00  0.00     0.294 C 
BRANCH  32  33
ATOM     33  C   UNL     1      28.149  30.418  17.905  1.00  0.00     0.120 A 
ATOM     34  C   UNL     1      28.734  30.562  16.667  1.00  0.00     0.138 A 
ATOM     35  N   UNL     1      28.964  31.088  18.747  1.00  0.00    -0.132 NA
ATOM     36  N   UNL     1      29.861  31.294  16.772  1.00  0.00    -0.252 N 
ATOM     37  N   UNL     1      29.963  31.593  18.050  1.00  0.00    -0.067 NA
BRANCH  36  38
ATOM     38  C   UNL     1      30.782  31.685  15.755  1.00  0.00     0.152 C 
BRANCH  38  39
ATOM     39  C   UNL     1      31.521  32.934  16.052  1.00  0.00     0.085 C 
BRANCH  39  40
ATOM     40  C   UNL     1      31.487  34.027  15.067  1.00  0.00     0.265 C 
BRANCH  40  41
ATOM     41  N   UNL     1      32.512  34.988  15.016  1.00  0.00    -0.326 N 
ATOM     42  C   UNL     1      33.701  34.638  14.286  1.00  0.00     0.334 C 
BRANCH  41  43
ATOM     43  C   UNL     1      31.950  36.137  14.277  1.00  0.00     0.260 C 
ATOM     44  C   UNL     1      31.122  35.767  13.108  1.00  0.00     0.071 C 
ENDBRANCH  41  43
BRANCH  41  45
ATOM     45  C   UNL     1      32.903  35.496  16.301  1.00  0.00     0.260 C 
ATOM     46  C   UNL     1      32.001  36.527  16.874  1.00  0.00     0.071 C 
ENDBRANCH  41  45
ENDBRANCH  40  41
ENDBRANCH  39  40
ENDBRANCH  38  39
ENDBRANCH  36  38
ENDBRANCH  32  33
ENDBRANCH   1  32
TORSDOF 20
BEGIN_RES LYS A 131
REMARK  4 active torsions:
REMARK  status: ('A' for Active; 'I' for Inactive)
REMARK    1  A    between atoms: CA   and  CB  
REMARK    2  A    between atoms: CB   and  CG  
REMARK    3  A    between atoms: CG   and  CD  
REMARK    4  A    between atoms: CD   and  CE  
ROOT
ATOM      1  CA  LYS A 131      29.867  25.555  16.977  1.00 20.52     0.186 C 
ENDROOT
BRANCH   1   2
ATOM      2  CB  LYS A 131      28.345  25.722  17.026  1.00 20.94     0.034 C 
BRANCH   2   3
ATOM      3  CG  LYS A 131      27.601  24.401  16.902  1.00 22.96     0.005 C 
BRANCH   3   4
ATOM      4  CD  LYS A 131      26.582  24.220  17.992  1.00 24.33     0.041 C 
BRANCH   4   5
ATOM      5  CE  LYS A 131      25.523  23.220  17.538  1.00 26.91     0.338 C 
ATOM      6  NZ  LYS A 131      24.384  23.923  16.902  1.00 27.40     0.618 N 
ENDBRANCH   4   5
ENDBRANCH   3   4
ENDBRANCH   2   3
ENDBRANCH   1   2
END_RES LYS A 131
BEGIN_RES LYS A 135
REMARK  4 active torsions:
REMARK  status: ('A' for Active; 'I' for Inactive)
REMARK    5  A    between atoms: CA   and  CB  
REMARK    6  A    between atoms: CB   and  CG  
REMARK    7  A    between atoms: CG   and  CD  
REMARK    8  A    between atoms: CD   and  CE  
ROOT
ATOM      7  CA  LYS A 135      33.193  34.663   9.290  1.00 25.02     0.186 C 
ENDROOT
BRANCH   7   8
ATOM      8  CB  LYS A 135      32.060  35.360  10.034  1.00 26.63     0.034 C 
BRANCH   8   9
ATOM      9  CG  LYS A 135      30.791  35.474   9.229  1.00 29.45     0.005 C 
BRANCH   9  10
ATOM     10  CD  LYS A 135      30.131  34.113   9.072  1.00 32.00     0.041 C 
BRANCH  10  11
ATOM     11  CE  LYS A 135      28.668  34.269   8.706  1.00 34.25     0.338 C 
ATOM     12  NZ  LYS A 135      28.501  35.180   7.539  1.00 35.99     0.618 N 
ENDBRANCH  10  11
ENDBRANCH   9  10
ENDBRANCH   8   9
ENDBRANCH   7   8
END_RES LYS A 135
