REMARK VINA RESULT:    -4.220      4.332      6.333
REMARK INTER + INTRA:         -14.787
REMARK INTER:                  -9.549
REMARK INTRA:                  -5.238
REMARK UNBOUND:                -7.237
REMARK SMILES CC(=O)N[C@@H]1[C@@H](O)C[C@](O)(C(=O)O)O[C@H]1C(O)[C@H](O)CNC(=O)OCc1cn(-c2ccccc2C(C)C)nn1
REMARK SMILES IDX 21 1 22 2 23 3 20 5 18 6 16 7 15 8 9 9 8 10 14 11 6 12 5 13
REMARK SMILES IDX 10 14 11 16 12 17 13 18 7 20 4 22 2 23 1 25 3 26 17 27 19 29
REMARK SMILES IDX 24 31 25 32 26 33 27 34 39 35 28 36 38 37 29 38 34 39 30 40
REMARK SMILES IDX 33 41 31 42 32 43 35 44 36 45 37 46
REMARK H PARENT 21 4 10 15 13 19 7 21 4 24 17 28 19 30
REMARK Flexibility Score: inf
ROOT
ATOM      1  N   UNL     1      29.146  37.485  12.625  1.00  0.00    -0.319 N 
ATOM      2  C   UNL     1      30.336  38.234  12.549  1.00  0.00     0.407 C 
ATOM      3  O   UNL     1      30.379  39.323  11.941  1.00  0.00    -0.225 OA
ATOM      4  H   UNL     1      29.167  36.577  13.164  1.00  0.00     0.167 HD
ENDROOT
BRANCH   1   5
ATOM      5  C   UNL     1      27.936  37.910  12.012  1.00  0.00     0.154 C 
BRANCH   5   6
ATOM      6  C   UNL     1      27.583  37.167  10.725  1.00  0.00     0.165 C 
BRANCH   6   7
ATOM      7  C   UNL     1      27.617  38.270   9.664  1.00  0.00     0.176 C 
BRANCH   7   8
ATOM      8  C   UNL     1      28.461  37.918   8.481  1.00  0.00     0.178 C 
ATOM      9  C   UNL     1      29.680  39.300   7.073  1.00  0.00     0.269 C 
ATOM     10  C   UNL     1      29.416  38.420   5.903  1.00  0.00     0.112 C 
ATOM     11  O   UNL     1      29.480  38.795   8.323  1.00  0.00    -0.332 OA
ATOM     12  C   UNL     1      28.239  37.478   6.044  1.00  0.00     0.145 C 
ATOM     13  C   UNL     1      27.514  37.892   7.291  1.00  0.00     0.142 C 
BRANCH   9  14
ATOM     14  O   UNL     1      29.008  40.537   6.898  1.00  0.00    -0.357 OA
ATOM     15  H   UNL     1      28.800  40.737   5.967  1.00  0.00     0.214 HD
ENDBRANCH   9  14
BRANCH   9  16
ATOM     16  C   UNL     1      31.148  39.643   7.016  1.00  0.00     0.364 C 
ATOM     17  O   UNL     1      31.667  40.185   8.016  1.00  0.00    -0.246 OA
BRANCH  16  18
ATOM     18  O   UNL     1      31.945  39.377   5.911  1.00  0.00    -0.477 OA
ATOM     19  H   UNL     1      31.796  38.602   5.268  1.00  0.00     0.296 HD
ENDBRANCH  16  18
ENDBRANCH   9  16
BRANCH  12  20
ATOM     20  O   UNL     1      27.379  37.680   4.920  1.00  0.00    -0.391 OA
ATOM     21  H   UNL     1      27.365  38.630   4.655  1.00  0.00     0.211 HD
ENDBRANCH  12  20
BRANCH  13  22
ATOM     22  N   UNL     1      26.310  37.238   7.623  1.00  0.00    -0.348 N 
ATOM     23  C   UNL     1      25.021  37.825   7.582  1.00  0.00     0.217 C 
ATOM     24  H   UNL     1      26.345  36.209   7.938  1.00  0.00     0.163 HD
ATOM     25  C   UNL     1      23.780  37.125   7.933  1.00  0.00     0.114 C 
ATOM     26  O   UNL     1      24.992  39.074   7.208  1.00  0.00    -0.275 OA
ENDBRANCH  13  22
ENDBRANCH   7   8
BRANCH   7  27
ATOM     27  O   UNL     1      28.065  39.405  10.345  1.00  0.00    -0.388 OA
ATOM     28  H   UNL     1      27.964  40.175   9.725  1.00  0.00     0.211 HD
ENDBRANCH   7  27
ENDBRANCH   6   7
BRANCH   6  29
ATOM     29  O   UNL     1      26.363  36.573  10.740  1.00  0.00    -0.388 OA
ATOM     30  H   UNL     1      26.224  35.944  10.036  1.00  0.00     0.211 HD
ENDBRANCH   6  29
ENDBRANCH   5   6
ENDBRANCH   1   5
BRANCH   2  31
ATOM     31  O   UNL     1      31.508  37.777  13.155  1.00  0.00    -0.443 OA
BRANCH  31  32
ATOM     32  C   UNL     1      32.233  36.750  12.495  1.00  0.00     0.294 C 
BRANCH  32  33
ATOM     33  C   UNL     1      32.478  35.712  13.527  1.00  0.00     0.121 A 
ATOM     34  C   UNL     1      31.488  35.222  14.389  1.00  0.00     0.144 A 
ATOM     35  N   UNL     1      33.588  34.994  13.757  1.00  0.00    -0.131 NA
ATOM     36  N   UNL     1      32.076  34.226  15.079  1.00  0.00    -0.220 N 
ATOM     37  N   UNL     1      33.280  34.126  14.684  1.00  0.00    -0.062 NA
BRANCH  36  38
ATOM     38  C   UNL     1      31.381  33.374  15.969  1.00  0.00     0.070 A 
ATOM     39  C   UNL     1      31.346  33.643  17.283  1.00  0.00    -0.020 A 
ATOM     40  C   UNL     1      30.883  32.156  15.482  1.00  0.00     0.029 A 
ATOM     41  C   UNL     1      30.807  32.698  18.155  1.00  0.00     0.006 A 
ATOM     42  C   UNL     1      30.359  31.233  16.309  1.00  0.00     0.002 A 
ATOM     43  C   UNL     1      30.307  31.480  17.674  1.00  0.00     0.000 A 
BRANCH  39  44
ATOM     44  C   UNL     1      31.728  34.943  17.796  1.00  0.00     0.015 C 
ATOM     45  C   UNL     1      32.254  34.879  19.222  1.00  0.00     0.012 C 
ATOM     46  C   UNL     1      30.350  35.697  18.066  1.00  0.00     0.012 C 
ENDBRANCH  39  44
ENDBRANCH  36  38
ENDBRANCH  32  33
ENDBRANCH  31  32
ENDBRANCH   2  31
TORSDOF 16
BEGIN_RES LYS A 131
REMARK  4 active torsions:
REMARK  status: ('A' for Active; 'I' for Inactive)
REMARK    1  A    between atoms: CA   and  CB  
REMARK    2  A    between atoms: CB   and  CG  
REMARK    3  A    between atoms: CG   and  CD  
REMARK    4  A    between atoms: CD   and  CE  
ROOT
ATOM      1  CA  LYS A 131      29.867  25.555  16.977  1.00 20.52     0.186 C 
ENDROOT
BRANCH   1   2
ATOM      2  CB  LYS A 131      28.345  25.722  17.026  1.00 20.94     0.034 C 
BRANCH   2   3
ATOM      3  CG  LYS A 131      27.602  24.398  16.934  1.00 22.96     0.005 C 
BRANCH   3   4
ATOM      4  CD  LYS A 131      26.178  24.514  17.403  1.00 24.33     0.041 C 
BRANCH   4   5
ATOM      5  CE  LYS A 131      26.151  25.102  18.810  1.00 26.91     0.338 C 
ATOM      6  NZ  LYS A 131      25.225  24.334  19.675  1.00 27.40     0.618 N 
ENDBRANCH   4   5
ENDBRANCH   3   4
ENDBRANCH   2   3
ENDBRANCH   1   2
END_RES LYS A 131
BEGIN_RES LYS A 135
REMARK  4 active torsions:
REMARK  status: ('A' for Active; 'I' for Inactive)
REMARK    5  A    between atoms: CA   and  CB  
REMARK    6  A    between atoms: CB   and  CG  
REMARK    7  A    between atoms: CG   and  CD  
REMARK    8  A    between atoms: CD   and  CE  
ROOT
ATOM      7  CA  LYS A 135      33.193  34.663   9.290  1.00 25.02     0.186 C 
ENDROOT
BRANCH   7   8
ATOM      8  CB  LYS A 135      32.060  35.360  10.034  1.00 26.63     0.034 C 
BRANCH   8   9
ATOM      9  CG  LYS A 135      30.734  34.654   9.911  1.00 29.45     0.005 C 
BRANCH   9  10
ATOM     10  CD  LYS A 135      30.334  34.515   8.450  1.00 32.00     0.041 C 
BRANCH  10  11
ATOM     11  CE  LYS A 135      28.824  34.501   8.310  1.00 34.25     0.338 C 
ATOM     12  NZ  LYS A 135      28.188  33.761   9.434  1.00 35.99     0.618 N 
ENDBRANCH  10  11
ENDBRANCH   9  10
ENDBRANCH   8   9
ENDBRANCH   7   8
END_RES LYS A 135
