REMARK VINA RESULT:    -3.939      2.747      5.944
REMARK INTER + INTRA:         -13.844
REMARK INTER:                  -9.128
REMARK INTRA:                  -4.717
REMARK UNBOUND:                -5.875
REMARK SMILES CC[N+](C)(CC)CCCn1cc(COC(=O)NC[C@@H](O)C(O)[C@@H]2O[C@@](O)(C(=O)O)C[C@H](O)[C@H]2NC(C)=O)nn1
REMARK SMILES IDX 14 1 15 2 17 3 16 5 18 6 19 7 21 8 23 9 25 10 30 11 24 12
REMARK SMILES IDX 31 13 33 14 26 15 27 17 28 18 29 19 32 21 34 23 35 24 36 26
REMARK SMILES IDX 37 27 22 28 20 30 13 32 12 33 11 34 38 35 10 36 39 37 9 38
REMARK SMILES IDX 8 39 7 40 3 41 4 42 2 43 1 44 5 45 6 46
REMARK H PARENT 17 4 26 16 29 20 32 22 34 25 22 29 20 31
REMARK Flexibility Score: inf
ROOT
ATOM      1  O   UNL     1      32.254  33.393  15.414  1.00  0.00    -0.443 OA
ENDROOT
BRANCH   1   2
ATOM      2  C   UNL     1      31.375  33.302  16.474  1.00  0.00     0.407 C 
ATOM      3  N   UNL     1      30.159  32.550  16.394  1.00  0.00    -0.319 N 
ATOM      4  H   UNL     1      29.983  32.074  15.502  1.00  0.00     0.167 HD
ATOM      5  O   UNL     1      31.654  33.899  17.540  1.00  0.00    -0.225 OA
BRANCH   3   6
ATOM      6  C   UNL     1      29.308  32.504  17.524  1.00  0.00     0.154 C 
BRANCH   6   7
ATOM      7  C   UNL     1      29.357  31.264  18.354  1.00  0.00     0.165 C 
BRANCH   7   8
ATOM      8  C   UNL     1      29.625  31.469  19.812  1.00  0.00     0.176 C 
BRANCH   8   9
ATOM      9  C   UNL     1      30.046  30.239  20.559  1.00  0.00     0.178 C 
ATOM     10  C   UNL     1      31.884  28.942  21.033  1.00  0.00     0.269 C 
ATOM     11  C   UNL     1      30.882  28.387  22.028  1.00  0.00     0.112 C 
ATOM     12  O   UNL     1      31.387  30.026  20.351  1.00  0.00    -0.332 OA
ATOM     13  C   UNL     1      29.626  27.961  21.333  1.00  0.00     0.145 C 
ATOM     14  C   UNL     1      29.265  29.004  20.273  1.00  0.00     0.142 C 
BRANCH  10  15
ATOM     15  O   UNL     1      32.150  27.919  20.105  1.00  0.00    -0.357 OA
ATOM     16  H   UNL     1      31.273  27.688  19.702  1.00  0.00     0.214 HD
ENDBRANCH  10  15
BRANCH  10  17
ATOM     17  C   UNL     1      33.137  29.284  21.725  1.00  0.00     0.364 C 
ATOM     18  O   UNL     1      33.608  30.453  21.650  1.00  0.00    -0.246 OA
BRANCH  17  19
ATOM     19  O   UNL     1      33.829  28.353  22.471  1.00  0.00    -0.477 OA
ATOM     20  H   UNL     1      34.359  28.622  23.278  1.00  0.00     0.296 HD
ENDBRANCH  17  19
ENDBRANCH  10  17
BRANCH  13  21
ATOM     21  O   UNL     1      29.847  26.713  20.734  1.00  0.00    -0.391 OA
ATOM     22  H   UNL     1      30.212  26.091  21.400  1.00  0.00     0.211 HD
ENDBRANCH  13  21
BRANCH  14  23
ATOM     23  N   UNL     1      27.825  29.216  20.453  1.00  0.00    -0.348 N 
ATOM     24  C   UNL     1      26.890  28.429  19.741  1.00  0.00     0.217 C 
ATOM     25  H   UNL     1      27.502  29.958  21.115  1.00  0.00     0.163 HD
ATOM     26  C   UNL     1      25.422  28.660  19.933  1.00  0.00     0.114 C 
ATOM     27  O   UNL     1      27.227  27.514  18.928  1.00  0.00    -0.275 OA
ENDBRANCH  14  23
ENDBRANCH   8   9
BRANCH   8  28
ATOM     28  O   UNL     1      30.584  32.483  19.959  1.00  0.00    -0.388 OA
ATOM     29  H   UNL     1      30.574  32.758  20.917  1.00  0.00     0.211 HD
ENDBRANCH   8  28
ENDBRANCH   7   8
BRANCH   7  30
ATOM     30  O   UNL     1      30.358  30.443  17.792  1.00  0.00    -0.388 OA
ATOM     31  H   UNL     1      31.162  30.945  17.549  1.00  0.00     0.211 HD
ENDBRANCH   7  30
ENDBRANCH   6   7
ENDBRANCH   3   6
ENDBRANCH   1   2
BRANCH   1  32
ATOM     32  C   UNL     1      32.427  34.648  14.770  1.00  0.00     0.294 C 
BRANCH  32  33
ATOM     33  C   UNL     1      31.186  35.023  14.055  1.00  0.00     0.120 A 
ATOM     34  C   UNL     1      30.685  36.270  13.749  1.00  0.00     0.138 A 
ATOM     35  N   UNL     1      30.278  34.160  13.554  1.00  0.00    -0.132 NA
ATOM     36  N   UNL     1      29.518  36.147  13.087  1.00  0.00    -0.252 N 
ATOM     37  N   UNL     1      29.308  34.851  12.991  1.00  0.00    -0.067 NA
BRANCH  36  38
ATOM     38  C   UNL     1      28.653  37.164  12.584  1.00  0.00     0.152 C 
BRANCH  38  39
ATOM     39  C   UNL     1      27.957  36.804  11.328  1.00  0.00     0.085 C 
BRANCH  39  40
ATOM     40  C   UNL     1      26.929  37.716  10.800  1.00  0.00     0.265 C 
BRANCH  40  41
ATOM     41  N   UNL     1      25.872  37.237  10.009  1.00  0.00    -0.326 N 
ATOM     42  C   UNL     1      25.897  35.842   9.660  1.00  0.00     0.334 C 
BRANCH  41  43
ATOM     43  C   UNL     1      24.654  37.391  10.828  1.00  0.00     0.260 C 
ATOM     44  C   UNL     1      24.383  38.778  11.268  1.00  0.00     0.071 C 
ENDBRANCH  41  43
BRANCH  41  45
ATOM     45  C   UNL     1      25.644  37.998   8.812  1.00  0.00     0.260 C 
ATOM     46  C   UNL     1      25.450  37.192   7.579  1.00  0.00     0.071 C 
ENDBRANCH  41  45
ENDBRANCH  40  41
ENDBRANCH  39  40
ENDBRANCH  38  39
ENDBRANCH  36  38
ENDBRANCH  32  33
ENDBRANCH   1  32
TORSDOF 20
BEGIN_RES LYS A 131
REMARK  4 active torsions:
REMARK  status: ('A' for Active; 'I' for Inactive)
REMARK    1  A    between atoms: CA   and  CB  
REMARK    2  A    between atoms: CB   and  CG  
REMARK    3  A    between atoms: CG   and  CD  
REMARK    4  A    between atoms: CD   and  CE  
ROOT
ATOM      1  CA  LYS A 131      29.867  25.555  16.977  1.00 20.52     0.186 C 
ENDROOT
BRANCH   1   2
ATOM      2  CB  LYS A 131      28.345  25.722  17.026  1.00 20.94     0.034 C 
BRANCH   2   3
ATOM      3  CG  LYS A 131      27.601  24.403  16.888  1.00 22.96     0.005 C 
BRANCH   3   4
ATOM      4  CD  LYS A 131      26.569  24.219  17.966  1.00 24.33     0.041 C 
BRANCH   4   5
ATOM      5  CE  LYS A 131      25.201  23.998  17.328  1.00 26.91     0.338 C 
ATOM      6  NZ  LYS A 131      24.766  22.592  17.507  1.00 27.40     0.618 N 
ENDBRANCH   4   5
ENDBRANCH   3   4
ENDBRANCH   2   3
ENDBRANCH   1   2
END_RES LYS A 131
BEGIN_RES LYS A 135
REMARK  4 active torsions:
REMARK  status: ('A' for Active; 'I' for Inactive)
REMARK    5  A    between atoms: CA   and  CB  
REMARK    6  A    between atoms: CB   and  CG  
REMARK    7  A    between atoms: CG   and  CD  
REMARK    8  A    between atoms: CD   and  CE  
ROOT
ATOM      7  CA  LYS A 135      33.193  34.663   9.290  1.00 25.02     0.186 C 
ENDROOT
BRANCH   7   8
ATOM      8  CB  LYS A 135      32.060  35.360  10.034  1.00 26.63     0.034 C 
BRANCH   8   9
ATOM      9  CG  LYS A 135      30.704  34.761   9.764  1.00 29.45     0.005 C 
BRANCH   9  10
ATOM     10  CD  LYS A 135      30.493  34.560   8.271  1.00 32.00     0.041 C 
BRANCH  10  11
ATOM     11  CE  LYS A 135      29.088  34.967   7.872  1.00 34.25     0.338 C 
ATOM     12  NZ  LYS A 135      29.019  36.420   7.554  1.00 35.99     0.618 N 
ENDBRANCH  10  11
ENDBRANCH   9  10
ENDBRANCH   8   9
ENDBRANCH   7   8
END_RES LYS A 135
