REMARK VINA RESULT:    -4.168      4.178      7.628
REMARK INTER + INTRA:         -15.266
REMARK INTER:                  -8.354
REMARK INTRA:                  -6.912
REMARK UNBOUND:                -7.565
REMARK SMILES CC(=O)N[C@@H]1[C@@H](O)C[C@](O)(C(=O)O)O[C@H]1C(O)[C@H](O)CNC(=O)OCc1cn(CC(=O)Nc2ncccn2)nn1
REMARK SMILES IDX 21 1 22 2 23 3 20 5 18 6 16 7 15 8 9 9 8 10 14 11 6 12 5 13
REMARK SMILES IDX 10 14 11 16 12 17 13 18 7 20 4 22 2 23 1 25 3 26 17 27 19 29
REMARK SMILES IDX 24 31 25 32 26 33 27 34 40 35 28 36 39 37 29 38 30 39 31 40
REMARK SMILES IDX 32 41 33 43 34 44 38 45 35 46 37 47 36 48
REMARK H PARENT 21 4 10 15 13 19 7 21 4 24 17 28 19 30 32 42
REMARK Flexibility Score: inf
ROOT
ATOM      1  N   UNL     1      27.561  25.972  22.873  1.00  0.00    -0.319 N 
ATOM      2  C   UNL     1      26.528  26.938  22.618  1.00  0.00     0.407 C 
ATOM      3  O   UNL     1      26.400  27.955  23.343  1.00  0.00    -0.225 OA
ATOM      4  H   UNL     1      27.652  25.142  22.263  1.00  0.00     0.167 HD
ENDROOT
BRANCH   1   5
ATOM      5  C   UNL     1      28.439  26.210  23.985  1.00  0.00     0.154 C 
BRANCH   5   6
ATOM      6  C   UNL     1      29.856  26.525  23.573  1.00  0.00     0.165 C 
BRANCH   6   7
ATOM      7  C   UNL     1      30.110  27.974  23.911  1.00  0.00     0.176 C 
BRANCH   7   8
ATOM      8  C   UNL     1      30.639  28.741  22.696  1.00  0.00     0.178 C 
ATOM      9  C   UNL     1      30.056  29.541  20.668  1.00  0.00     0.269 C 
ATOM     10  C   UNL     1      31.471  29.434  20.230  1.00  0.00     0.112 C 
ATOM     11  O   UNL     1      29.758  28.638  21.647  1.00  0.00    -0.332 OA
ATOM     12  C   UNL     1      32.264  28.307  20.847  1.00  0.00     0.145 C 
ATOM     13  C   UNL     1      31.977  28.132  22.312  1.00  0.00     0.142 C 
BRANCH   9  14
ATOM     14  O   UNL     1      29.209  29.171  19.569  1.00  0.00    -0.357 OA
ATOM     15  H   UNL     1      28.547  29.902  19.425  1.00  0.00     0.214 HD
ENDBRANCH   9  14
BRANCH   9  16
ATOM     16  C   UNL     1      29.665  30.946  20.979  1.00  0.00     0.364 C 
ATOM     17  O   UNL     1      30.512  31.835  21.074  1.00  0.00    -0.246 OA
BRANCH  16  18
ATOM     18  O   UNL     1      28.329  31.307  21.175  1.00  0.00    -0.477 OA
ATOM     19  H   UNL     1      27.964  32.191  20.869  1.00  0.00     0.296 HD
ENDBRANCH  16  18
ENDBRANCH   9  16
BRANCH  12  20
ATOM     20  O   UNL     1      31.951  27.152  20.126  1.00  0.00    -0.391 OA
ATOM     21  H   UNL     1      32.582  26.406  20.333  1.00  0.00     0.211 HD
ENDBRANCH  12  20
BRANCH  13  22
ATOM     22  N   UNL     1      32.980  28.632  23.186  1.00  0.00    -0.348 N 
ATOM     23  C   UNL     1      33.876  27.831  23.939  1.00  0.00     0.217 C 
ATOM     24  H   UNL     1      33.089  29.669  23.305  1.00  0.00     0.163 HD
ATOM     25  C   UNL     1      34.906  28.426  24.846  1.00  0.00     0.114 C 
ATOM     26  O   UNL     1      33.780  26.596  23.826  1.00  0.00    -0.275 OA
ENDBRANCH  13  22
ENDBRANCH   7   8
BRANCH   7  27
ATOM     27  O   UNL     1      28.986  28.591  24.426  1.00  0.00    -0.388 OA
ATOM     28  H   UNL     1      29.115  29.585  24.349  1.00  0.00     0.211 HD
ENDBRANCH   7  27
ENDBRANCH   6   7
BRANCH   6  29
ATOM     29  O   UNL     1      29.962  26.290  22.204  1.00  0.00    -0.388 OA
ATOM     30  H   UNL     1      30.540  27.008  21.830  1.00  0.00     0.211 HD
ENDBRANCH   6  29
ENDBRANCH   5   6
ENDBRANCH   1   5
BRANCH   2  31
ATOM     31  O   UNL     1      25.647  26.781  21.573  1.00  0.00    -0.443 OA
BRANCH  31  32
ATOM     32  C   UNL     1      24.818  27.770  21.036  1.00  0.00     0.294 C 
BRANCH  32  33
ATOM     33  C   UNL     1      25.530  28.514  19.976  1.00  0.00     0.120 A 
ATOM     34  C   UNL     1      25.763  28.144  18.668  1.00  0.00     0.138 A 
ATOM     35  N   UNL     1      26.079  29.730  20.136  1.00  0.00    -0.132 NA
ATOM     36  N   UNL     1      26.436  29.138  18.090  1.00  0.00    -0.243 N 
ATOM     37  N   UNL     1      26.610  30.078  19.002  1.00  0.00    -0.067 NA
BRANCH  36  38
ATOM     38  C   UNL     1      26.870  29.144  16.689  1.00  0.00     0.246 C 
BRANCH  38  39
ATOM     39  C   UNL     1      27.731  30.337  16.433  1.00  0.00     0.248 C 
ATOM     40  O   UNL     1      27.360  31.345  15.810  1.00  0.00    -0.272 OA
ATOM     41  N   UNL     1      29.071  30.314  16.939  1.00  0.00    -0.293 N 
ATOM     42  H   UNL     1      29.410  29.477  17.466  1.00  0.00     0.173 HD
BRANCH  41  43
ATOM     43  C   UNL     1      29.959  31.398  16.753  1.00  0.00     0.229 A 
ATOM     44  N   UNL     1      30.667  31.592  15.624  1.00  0.00    -0.221 NA
ATOM     45  N   UNL     1      30.132  32.305  17.734  1.00  0.00    -0.221 NA
ATOM     46  C   UNL     1      31.506  32.636  15.473  1.00  0.00     0.117 A 
ATOM     47  C   UNL     1      30.943  33.356  17.648  1.00  0.00     0.117 A 
ATOM     48  C   UNL     1      31.669  33.554  16.490  1.00  0.00     0.040 A 
ENDBRANCH  41  43
ENDBRANCH  38  39
ENDBRANCH  36  38
ENDBRANCH  32  33
ENDBRANCH  31  32
ENDBRANCH   2  31
TORSDOF 17
BEGIN_RES LYS A 131
REMARK  4 active torsions:
REMARK  status: ('A' for Active; 'I' for Inactive)
REMARK    1  A    between atoms: CA   and  CB  
REMARK    2  A    between atoms: CB   and  CG  
REMARK    3  A    between atoms: CG   and  CD  
REMARK    4  A    between atoms: CD   and  CE  
ROOT
ATOM      1  CA  LYS A 131      29.867  25.555  16.977  1.00 20.52     0.186 C 
ENDROOT
BRANCH   1   2
ATOM      2  CB  LYS A 131      28.345  25.722  17.026  1.00 20.94     0.034 C 
BRANCH   2   3
ATOM      3  CG  LYS A 131      27.601  24.400  16.907  1.00 22.96     0.005 C 
BRANCH   3   4
ATOM      4  CD  LYS A 131      26.471  24.296  17.893  1.00 24.33     0.041 C 
BRANCH   4   5
ATOM      5  CE  LYS A 131      25.717  22.990  17.666  1.00 26.91     0.338 C 
ATOM      6  NZ  LYS A 131      24.773  22.735  18.781  1.00 27.40     0.618 N 
ENDBRANCH   4   5
ENDBRANCH   3   4
ENDBRANCH   2   3
ENDBRANCH   1   2
END_RES LYS A 131
BEGIN_RES LYS A 135
REMARK  4 active torsions:
REMARK  status: ('A' for Active; 'I' for Inactive)
REMARK    5  A    between atoms: CA   and  CB  
REMARK    6  A    between atoms: CB   and  CG  
REMARK    7  A    between atoms: CG   and  CD  
REMARK    8  A    between atoms: CD   and  CE  
ROOT
ATOM      7  CA  LYS A 135      33.193  34.663   9.290  1.00 25.02     0.186 C 
ENDROOT
BRANCH   7   8
ATOM      8  CB  LYS A 135      32.060  35.360  10.034  1.00 26.63     0.034 C 
BRANCH   8   9
ATOM      9  CG  LYS A 135      30.702  34.770   9.754  1.00 29.45     0.005 C 
BRANCH   9  10
ATOM     10  CD  LYS A 135      30.538  34.482   8.269  1.00 32.00     0.041 C 
BRANCH  10  11
ATOM     11  CE  LYS A 135      29.254  35.097   7.746  1.00 34.25     0.338 C 
ATOM     12  NZ  LYS A 135      28.064  34.511   8.424  1.00 35.99     0.618 N 
ENDBRANCH  10  11
ENDBRANCH   9  10
ENDBRANCH   8   9
ENDBRANCH   7   8
END_RES LYS A 135
