REMARK VINA RESULT:    -4.387      6.469     11.321
REMARK INTER + INTRA:         -14.892
REMARK INTER:                  -8.303
REMARK INTRA:                  -6.588
REMARK UNBOUND:                -7.042
REMARK SMILES CC(=O)N[C@@H]1[C@@H](O)C[C@](O)(C(=O)O)O[C@H]1C(O)[C@H](O)CNC(=O)OCc1cn(-c2ncccc2C#N)nn1
REMARK SMILES IDX 21 1 22 2 23 3 20 5 18 6 16 7 15 8 9 9 8 10 14 11 6 12 5 13
REMARK SMILES IDX 10 14 11 16 12 17 13 18 7 20 4 22 2 23 1 25 3 26 17 27 19 29
REMARK SMILES IDX 24 31 25 32 26 33 27 34 38 35 28 36 37 37 29 38 30 39 34 40
REMARK SMILES IDX 31 41 33 42 32 43 35 44 36 45
REMARK H PARENT 21 4 10 15 13 19 7 21 4 24 17 28 19 30
REMARK Flexibility Score: inf
ROOT
ATOM      1  N   UNL     1      27.834  28.256  18.350  1.00  0.00    -0.319 N 
ATOM      2  C   UNL     1      26.856  28.738  17.416  1.00  0.00     0.407 C 
ATOM      3  O   UNL     1      25.726  28.242  17.349  1.00  0.00    -0.225 OA
ATOM      4  H   UNL     1      28.757  28.804  18.303  1.00  0.00     0.167 HD
ENDROOT
BRANCH   1   5
ATOM      5  C   UNL     1      27.633  27.235  19.263  1.00  0.00     0.154 C 
BRANCH   5   6
ATOM      6  C   UNL     1      27.591  27.600  20.768  1.00  0.00     0.165 C 
BRANCH   6   7
ATOM      7  C   UNL     1      28.982  28.001  21.078  1.00  0.00     0.176 C 
BRANCH   7   8
ATOM      8  C   UNL     1      29.272  29.395  21.503  1.00  0.00     0.178 C 
ATOM      9  C   UNL     1      29.253  31.096  19.878  1.00  0.00     0.269 C 
ATOM     10  C   UNL     1      30.103  32.040  20.692  1.00  0.00     0.112 C 
ATOM     11  O   UNL     1      28.485  30.253  20.686  1.00  0.00    -0.332 OA
ATOM     12  C   UNL     1      30.580  31.346  21.984  1.00  0.00     0.145 C 
ATOM     13  C   UNL     1      30.656  29.855  21.574  1.00  0.00     0.142 C 
BRANCH   9  14
ATOM     14  O   UNL     1      30.027  30.429  18.941  1.00  0.00    -0.357 OA
ATOM     15  H   UNL     1      30.047  30.838  18.063  1.00  0.00     0.214 HD
ENDBRANCH   9  14
BRANCH   9  16
ATOM     16  C   UNL     1      28.254  31.942  19.194  1.00  0.00     0.364 C 
ATOM     17  O   UNL     1      27.089  31.871  19.112  1.00  0.00    -0.246 OA
BRANCH  16  18
ATOM     18  O   UNL     1      28.886  33.084  18.499  1.00  0.00    -0.477 OA
ATOM     19  H   UNL     1      28.328  33.502  17.750  1.00  0.00     0.296 HD
ENDBRANCH  16  18
ENDBRANCH   9  16
BRANCH  12  20
ATOM     20  O   UNL     1      31.801  31.825  22.383  1.00  0.00    -0.391 OA
ATOM     21  H   UNL     1      32.507  31.589  21.755  1.00  0.00     0.211 HD
ENDBRANCH  12  20
BRANCH  13  22
ATOM     22  N   UNL     1      31.459  29.179  22.603  1.00  0.00    -0.348 N 
ATOM     23  C   UNL     1      32.803  28.890  22.320  1.00  0.00     0.217 C 
ATOM     24  H   UNL     1      31.047  28.953  23.488  1.00  0.00     0.163 HD
ATOM     25  C   UNL     1      33.883  28.303  23.023  1.00  0.00     0.114 C 
ATOM     26  O   UNL     1      33.083  29.313  21.054  1.00  0.00    -0.275 OA
ENDBRANCH  13  22
ENDBRANCH   7   8
BRANCH   7  27
ATOM     27  O   UNL     1      29.669  26.998  21.698  1.00  0.00    -0.388 OA
ATOM     28  H   UNL     1      29.781  26.196  21.123  1.00  0.00     0.211 HD
ENDBRANCH   7  27
ENDBRANCH   6   7
BRANCH   6  29
ATOM     29  O   UNL     1      27.073  26.499  21.389  1.00  0.00    -0.388 OA
ATOM     30  H   UNL     1      26.483  26.784  22.131  1.00  0.00     0.211 HD
ENDBRANCH   6  29
ENDBRANCH   5   6
ENDBRANCH   1   5
BRANCH   2  31
ATOM     31  O   UNL     1      27.200  29.795  16.572  1.00  0.00    -0.443 OA
BRANCH  31  32
ATOM     32  C   UNL     1      28.419  29.762  15.800  1.00  0.00     0.294 C 
BRANCH  32  33
ATOM     33  C   UNL     1      28.728  31.226  15.604  1.00  0.00     0.121 A 
ATOM     34  C   UNL     1      29.904  31.757  15.163  1.00  0.00     0.146 A 
ATOM     35  N   UNL     1      27.848  32.215  15.755  1.00  0.00    -0.131 NA
ATOM     36  N   UNL     1      29.681  33.103  15.052  1.00  0.00    -0.201 N 
ATOM     37  N   UNL     1      28.414  33.339  15.423  1.00  0.00    -0.060 NA
BRANCH  36  38
ATOM     38  C   UNL     1      30.578  34.071  14.612  1.00  0.00     0.173 A 
ATOM     39  N   UNL     1      30.618  34.437  13.263  1.00  0.00    -0.236 NA
ATOM     40  C   UNL     1      31.550  34.678  15.378  1.00  0.00     0.097 A 
ATOM     41  C   UNL     1      31.495  35.251  12.848  1.00  0.00     0.113 A 
ATOM     42  C   UNL     1      32.462  35.525  14.930  1.00  0.00     0.025 A 
ATOM     43  C   UNL     1      32.526  35.914  13.561  1.00  0.00     0.022 A 
BRANCH  40  44
ATOM     44  C   UNL     1      31.633  34.289  16.839  1.00  0.00     0.103 C 
ATOM     45  N   UNL     1      31.705  34.035  17.815  1.00  0.00    -0.192 NA
ENDBRANCH  40  44
ENDBRANCH  36  38
ENDBRANCH  32  33
ENDBRANCH  31  32
ENDBRANCH   2  31
TORSDOF 16
BEGIN_RES LYS A 131
REMARK  4 active torsions:
REMARK  status: ('A' for Active; 'I' for Inactive)
REMARK    1  A    between atoms: CA   and  CB  
REMARK    2  A    between atoms: CB   and  CG  
REMARK    3  A    between atoms: CG   and  CD  
REMARK    4  A    between atoms: CD   and  CE  
ROOT
ATOM      1  CA  LYS A 131      29.867  25.555  16.977  1.00 20.52     0.186 C 
ENDROOT
BRANCH   1   2
ATOM      2  CB  LYS A 131      28.345  25.722  17.026  1.00 20.94     0.034 C 
BRANCH   2   3
ATOM      3  CG  LYS A 131      27.601  24.406  16.862  1.00 22.96     0.005 C 
BRANCH   3   4
ATOM      4  CD  LYS A 131      26.153  24.521  17.254  1.00 24.33     0.041 C 
BRANCH   4   5
ATOM      5  CE  LYS A 131      25.964  23.980  18.667  1.00 26.91     0.338 C 
ATOM      6  NZ  LYS A 131      24.877  24.711  19.361  1.00 27.40     0.618 N 
ENDBRANCH   4   5
ENDBRANCH   3   4
ENDBRANCH   2   3
ENDBRANCH   1   2
END_RES LYS A 131
BEGIN_RES LYS A 135
REMARK  4 active torsions:
REMARK  status: ('A' for Active; 'I' for Inactive)
REMARK    5  A    between atoms: CA   and  CB  
REMARK    6  A    between atoms: CB   and  CG  
REMARK    7  A    between atoms: CG   and  CD  
REMARK    8  A    between atoms: CD   and  CE  
ROOT
ATOM      7  CA  LYS A 135      33.193  34.663   9.290  1.00 25.02     0.186 C 
ENDROOT
BRANCH   7   8
ATOM      8  CB  LYS A 135      32.060  35.360  10.034  1.00 26.63     0.034 C 
BRANCH   8   9
ATOM      9  CG  LYS A 135      30.787  35.462   9.234  1.00 29.45     0.005 C 
BRANCH   9  10
ATOM     10  CD  LYS A 135      30.183  34.084   9.009  1.00 32.00     0.041 C 
BRANCH  10  11
ATOM     11  CE  LYS A 135      28.746  34.047   9.492  1.00 34.25     0.338 C 
ATOM     12  NZ  LYS A 135      27.813  34.541   8.442  1.00 35.99     0.618 N 
ENDBRANCH  10  11
ENDBRANCH   9  10
ENDBRANCH   8   9
ENDBRANCH   7   8
END_RES LYS A 135
