REMARK VINA RESULT:    -4.276      5.257     10.989
REMARK INTER + INTRA:         -14.888
REMARK INTER:                  -8.508
REMARK INTRA:                  -6.381
REMARK UNBOUND:                -7.237
REMARK SMILES CC(=O)N[C@@H]1[C@@H](O)C[C@](O)(C(=O)O)O[C@H]1C(O)[C@H](O)CNC(=O)OCc1cn(-c2ccccc2C(C)C)nn1
REMARK SMILES IDX 21 1 22 2 23 3 20 5 18 6 16 7 15 8 9 9 8 10 14 11 6 12 5 13
REMARK SMILES IDX 10 14 11 16 12 17 13 18 7 20 4 22 2 23 1 25 3 26 17 27 19 29
REMARK SMILES IDX 24 31 25 32 26 33 27 34 39 35 28 36 38 37 29 38 34 39 30 40
REMARK SMILES IDX 33 41 31 42 32 43 35 44 36 45 37 46
REMARK H PARENT 21 4 10 15 13 19 7 21 4 24 17 28 19 30
REMARK Flexibility Score: inf
ROOT
ATOM      1  N   UNL     1      28.859  29.728  19.613  1.00  0.00    -0.319 N 
ATOM      2  C   UNL     1      30.191  30.067  19.921  1.00  0.00     0.407 C 
ATOM      3  O   UNL     1      30.854  29.403  20.745  1.00  0.00    -0.225 OA
ATOM      4  H   UNL     1      28.352  30.319  18.899  1.00  0.00     0.167 HD
ENDROOT
BRANCH   1   5
ATOM      5  C   UNL     1      28.190  28.632  20.221  1.00  0.00     0.154 C 
BRANCH   5   6
ATOM      6  C   UNL     1      27.764  27.532  19.250  1.00  0.00     0.165 C 
BRANCH   6   7
ATOM      7  C   UNL     1      26.291  27.854  18.983  1.00  0.00     0.176 C 
BRANCH   7   8
ATOM      8  C   UNL     1      26.036  28.305  17.581  1.00  0.00     0.178 C 
ATOM      9  C   UNL     1      26.291  30.407  16.636  1.00  0.00     0.269 C 
ATOM     10  C   UNL     1      25.131  30.193  15.730  1.00  0.00     0.112 C 
ATOM     11  O   UNL     1      26.859  29.321  17.231  1.00  0.00    -0.332 OA
ATOM     12  C   UNL     1      24.169  29.101  16.145  1.00  0.00     0.145 C 
ATOM     13  C   UNL     1      24.566  28.693  17.533  1.00  0.00     0.142 C 
BRANCH   9  14
ATOM     14  O   UNL     1      25.972  31.413  17.585  1.00  0.00    -0.357 OA
ATOM     15  H   UNL     1      26.074  31.121  18.509  1.00  0.00     0.214 HD
ENDBRANCH   9  14
BRANCH   9  16
ATOM     16  C   UNL     1      27.383  31.007  15.786  1.00  0.00     0.364 C 
ATOM     17  O   UNL     1      27.267  32.199  15.430  1.00  0.00    -0.246 OA
BRANCH  16  18
ATOM     18  O   UNL     1      28.509  30.297  15.389  1.00  0.00    -0.477 OA
ATOM     19  H   UNL     1      29.035  30.482  14.538  1.00  0.00     0.296 HD
ENDBRANCH  16  18
ENDBRANCH   9  16
BRANCH  12  20
ATOM     20  O   UNL     1      22.857  29.665  16.185  1.00  0.00    -0.391 OA
ATOM     21  H   UNL     1      22.650  30.133  15.342  1.00  0.00     0.211 HD
ENDBRANCH  12  20
BRANCH  13  22
ATOM     22  N   UNL     1      23.775  27.743  18.213  1.00  0.00    -0.348 N 
ATOM     23  C   UNL     1      22.674  28.045  19.051  1.00  0.00     0.217 C 
ATOM     24  H   UNL     1      24.007  26.698  18.104  1.00  0.00     0.163 HD
ATOM     25  C   UNL     1      21.864  27.040  19.749  1.00  0.00     0.114 C 
ATOM     26  O   UNL     1      22.408  29.315  19.183  1.00  0.00    -0.275 OA
ENDBRANCH  13  22
ENDBRANCH   7   8
BRANCH   7  27
ATOM     27  O   UNL     1      25.957  28.814  19.943  1.00  0.00    -0.388 OA
ATOM     28  H   UNL     1      26.666  29.509  19.919  1.00  0.00     0.211 HD
ENDBRANCH   7  27
ENDBRANCH   6   7
BRANCH   6  29
ATOM     29  O   UNL     1      27.884  26.274  19.743  1.00  0.00    -0.388 OA
ATOM     30  H   UNL     1      27.524  25.595  19.178  1.00  0.00     0.211 HD
ENDBRANCH   6  29
ENDBRANCH   5   6
ENDBRANCH   1   5
BRANCH   2  31
ATOM     31  O   UNL     1      30.811  31.159  19.311  1.00  0.00    -0.443 OA
BRANCH  31  32
ATOM     32  C   UNL     1      29.988  32.249  18.922  1.00  0.00     0.294 C 
BRANCH  32  33
ATOM     33  C   UNL     1      30.253  32.450  17.476  1.00  0.00     0.121 A 
ATOM     34  C   UNL     1      30.073  33.671  16.815  1.00  0.00     0.144 A 
ATOM     35  N   UNL     1      30.792  31.600  16.589  1.00  0.00    -0.131 NA
ATOM     36  N   UNL     1      30.529  33.471  15.564  1.00  0.00    -0.220 N 
ATOM     37  N   UNL     1      30.935  32.270  15.476  1.00  0.00    -0.062 NA
BRANCH  36  38
ATOM     38  C   UNL     1      30.651  34.500  14.600  1.00  0.00     0.070 A 
ATOM     39  C   UNL     1      31.778  35.223  14.512  1.00  0.00    -0.020 A 
ATOM     40  C   UNL     1      29.517  34.865  13.859  1.00  0.00     0.029 A 
ATOM     41  C   UNL     1      31.806  36.338  13.676  1.00  0.00     0.006 A 
ATOM     42  C   UNL     1      29.526  35.938  13.048  1.00  0.00     0.002 A 
ATOM     43  C   UNL     1      30.676  36.707  12.935  1.00  0.00     0.000 A 
BRANCH  39  44
ATOM     44  C   UNL     1      33.002  34.792  15.158  1.00  0.00     0.015 C 
ATOM     45  C   UNL     1      33.673  35.906  15.946  1.00  0.00     0.012 C 
ATOM     46  C   UNL     1      34.058  34.642  13.975  1.00  0.00     0.012 C 
ENDBRANCH  39  44
ENDBRANCH  36  38
ENDBRANCH  32  33
ENDBRANCH  31  32
ENDBRANCH   2  31
TORSDOF 16
BEGIN_RES LYS A 131
REMARK  4 active torsions:
REMARK  status: ('A' for Active; 'I' for Inactive)
REMARK    1  A    between atoms: CA   and  CB  
REMARK    2  A    between atoms: CB   and  CG  
REMARK    3  A    between atoms: CG   and  CD  
REMARK    4  A    between atoms: CD   and  CE  
ROOT
ATOM      1  CA  LYS A 131      29.867  25.555  16.977  1.00 20.52     0.186 C 
ENDROOT
BRANCH   1   2
ATOM      2  CB  LYS A 131      28.345  25.722  17.026  1.00 20.94     0.034 C 
BRANCH   2   3
ATOM      3  CG  LYS A 131      27.601  24.406  16.863  1.00 22.96     0.005 C 
BRANCH   3   4
ATOM      4  CD  LYS A 131      26.155  24.519  17.262  1.00 24.33     0.041 C 
BRANCH   4   5
ATOM      5  CE  LYS A 131      25.878  23.591  18.440  1.00 26.91     0.338 C 
ATOM      6  NZ  LYS A 131      24.628  22.827  18.216  1.00 27.40     0.618 N 
ENDBRANCH   4   5
ENDBRANCH   3   4
ENDBRANCH   2   3
ENDBRANCH   1   2
END_RES LYS A 131
BEGIN_RES LYS A 135
REMARK  4 active torsions:
REMARK  status: ('A' for Active; 'I' for Inactive)
REMARK    5  A    between atoms: CA   and  CB  
REMARK    6  A    between atoms: CB   and  CG  
REMARK    7  A    between atoms: CG   and  CD  
REMARK    8  A    between atoms: CD   and  CE  
ROOT
ATOM      7  CA  LYS A 135      33.193  34.663   9.290  1.00 25.02     0.186 C 
ENDROOT
BRANCH   7   8
ATOM      8  CB  LYS A 135      32.060  35.360  10.034  1.00 26.63     0.034 C 
BRANCH   8   9
ATOM      9  CG  LYS A 135      30.714  34.717   9.821  1.00 29.45     0.005 C 
BRANCH   9  10
ATOM     10  CD  LYS A 135      30.432  34.540   8.337  1.00 32.00     0.041 C 
BRANCH  10  11
ATOM     11  CE  LYS A 135      28.971  34.815   8.036  1.00 34.25     0.338 C 
ATOM     12  NZ  LYS A 135      28.083  34.116   9.005  1.00 35.99     0.618 N 
ENDBRANCH  10  11
ENDBRANCH   9  10
ENDBRANCH   8   9
ENDBRANCH   7   8
END_RES LYS A 135
