REMARK VINA RESULT:    -4.836      8.548     12.954
REMARK INTER + INTRA:         -15.393
REMARK INTER:                  -8.869
REMARK INTRA:                  -6.524
REMARK UNBOUND:                -6.317
REMARK SMILES CC(=O)N[C@@H]1[C@@H](O)C[C@](O)(C(=O)O)O[C@H]1C(O)[C@H](O)CNC(=O)OCc1cn(-c2cccc(C=CC(=O)O)c2)nn1
REMARK SMILES IDX 21 1 22 2 23 3 20 5 18 6 16 7 15 8 9 9 8 10 14 11 6 12 5 13
REMARK SMILES IDX 10 14 11 16 12 17 13 18 7 20 4 22 2 23 1 25 3 26 17 27 19 29
REMARK SMILES IDX 24 31 25 32 26 33 27 34 41 35 28 36 40 37 29 38 39 39 30 40
REMARK SMILES IDX 33 41 31 42 32 43 34 44 35 45 36 46 37 47 38 48
REMARK H PARENT 21 4 10 15 13 19 7 21 4 24 17 28 19 30 38 49
REMARK Flexibility Score: inf
ROOT
ATOM      1  N   UNL     1      31.143  36.872  20.704  1.00  0.00    -0.319 N 
ATOM      2  C   UNL     1      32.231  36.580  21.559  1.00  0.00     0.407 C 
ATOM      3  O   UNL     1      32.468  35.430  21.982  1.00  0.00    -0.225 OA
ATOM      4  H   UNL     1      31.041  37.906  20.418  1.00  0.00     0.167 HD
ENDROOT
BRANCH   1   5
ATOM      5  C   UNL     1      30.187  35.930  20.196  1.00  0.00     0.154 C 
BRANCH   5   6
ATOM      6  C   UNL     1      30.489  35.565  18.778  1.00  0.00     0.165 C 
BRANCH   6   7
ATOM      7  C   UNL     1      31.664  34.620  18.622  1.00  0.00     0.176 C 
BRANCH   7   8
ATOM      8  C   UNL     1      31.712  34.050  17.252  1.00  0.00     0.178 C 
ATOM      9  C   UNL     1      31.907  34.342  14.970  1.00  0.00     0.269 C 
ATOM     10  C   UNL     1      31.900  32.839  14.987  1.00  0.00     0.112 C 
ATOM     11  O   UNL     1      31.975  34.905  16.229  1.00  0.00    -0.332 OA
ATOM     12  C   UNL     1      30.895  32.216  15.884  1.00  0.00     0.145 C 
ATOM     13  C   UNL     1      30.474  33.210  16.939  1.00  0.00     0.142 C 
BRANCH   9  14
ATOM     14  O   UNL     1      30.819  34.800  14.227  1.00  0.00    -0.357 OA
ATOM     15  H   UNL     1      30.560  34.177  13.515  1.00  0.00     0.214 HD
ENDBRANCH   9  14
BRANCH   9  16
ATOM     16  C   UNL     1      33.135  34.764  14.241  1.00  0.00     0.364 C 
ATOM     17  O   UNL     1      34.154  35.154  14.906  1.00  0.00    -0.246 OA
BRANCH  16  18
ATOM     18  O   UNL     1      33.217  34.751  12.855  1.00  0.00    -0.477 OA
ATOM     19  H   UNL     1      33.078  35.567  12.294  1.00  0.00     0.296 HD
ENDBRANCH  16  18
ENDBRANCH   9  16
BRANCH  12  20
ATOM     20  O   UNL     1      29.800  31.684  15.211  1.00  0.00    -0.391 OA
ATOM     21  H   UNL     1      29.939  30.735  15.056  1.00  0.00     0.211 HD
ENDBRANCH  12  20
BRANCH  13  22
ATOM     22  N   UNL     1      29.918  32.589  18.100  1.00  0.00    -0.348 N 
ATOM     23  C   UNL     1      28.526  32.358  18.251  1.00  0.00     0.217 C 
ATOM     24  H   UNL     1      30.534  32.272  18.906  1.00  0.00     0.163 HD
ATOM     25  C   UNL     1      27.998  31.712  19.468  1.00  0.00     0.114 C 
ATOM     26  O   UNL     1      27.718  32.699  17.352  1.00  0.00    -0.275 OA
ENDBRANCH  13  22
ENDBRANCH   7   8
BRANCH   7  27
ATOM     27  O   UNL     1      31.726  33.684  19.650  1.00  0.00    -0.388 OA
ATOM     28  H   UNL     1      32.620  33.277  19.633  1.00  0.00     0.211 HD
ENDBRANCH   7  27
ENDBRANCH   6   7
BRANCH   6  29
ATOM     29  O   UNL     1      30.721  36.694  17.989  1.00  0.00    -0.388 OA
ATOM     30  H   UNL     1      30.891  36.394  17.054  1.00  0.00     0.211 HD
ENDBRANCH   6  29
ENDBRANCH   5   6
ENDBRANCH   1   5
BRANCH   2  31
ATOM     31  O   UNL     1      33.113  37.597  21.980  1.00  0.00    -0.443 OA
BRANCH  31  32
ATOM     32  C   UNL     1      33.706  38.415  21.021  1.00  0.00     0.294 C 
BRANCH  32  33
ATOM     33  C   UNL     1      34.290  37.651  19.892  1.00  0.00     0.121 A 
ATOM     34  C   UNL     1      35.445  36.911  19.822  1.00  0.00     0.144 A 
ATOM     35  N   UNL     1      33.737  37.558  18.671  1.00  0.00    -0.131 NA
ATOM     36  N   UNL     1      35.574  36.387  18.577  1.00  0.00    -0.220 N 
ATOM     37  N   UNL     1      34.518  36.800  17.901  1.00  0.00    -0.062 NA
BRANCH  36  38
ATOM     38  C   UNL     1      36.654  35.562  18.137  1.00  0.00     0.067 A 
ATOM     39  C   UNL     1      37.118  35.625  16.849  1.00  0.00     0.036 A 
ATOM     40  C   UNL     1      37.250  34.680  19.008  1.00  0.00     0.028 A 
ATOM     41  C   UNL     1      38.192  34.806  16.403  1.00  0.00    -0.023 A 
ATOM     42  C   UNL     1      38.282  33.868  18.643  1.00  0.00     0.003 A 
ATOM     43  C   UNL     1      38.744  33.949  17.318  1.00  0.00     0.008 A 
BRANCH  41  44
ATOM     44  C   UNL     1      38.656  34.948  15.067  1.00  0.00     0.015 C 
ATOM     45  C   UNL     1      38.392  34.502  13.901  1.00  0.00     0.094 C 
BRANCH  45  46
ATOM     46  C   UNL     1      37.457  33.607  13.344  1.00  0.00     0.328 C 
ATOM     47  O   UNL     1      37.916  32.462  12.841  1.00  0.00    -0.247 OA
BRANCH  46  48
ATOM     48  O   UNL     1      36.095  33.668  13.197  1.00  0.00    -0.478 OA
ATOM     49  H   UNL     1      35.595  33.235  12.436  1.00  0.00     0.297 HD
ENDBRANCH  46  48
ENDBRANCH  45  46
ENDBRANCH  41  44
ENDBRANCH  36  38
ENDBRANCH  32  33
ENDBRANCH  31  32
ENDBRANCH   2  31
TORSDOF 18
BEGIN_RES LYS A 131
REMARK  4 active torsions:
REMARK  status: ('A' for Active; 'I' for Inactive)
REMARK    1  A    between atoms: CA   and  CB  
REMARK    2  A    between atoms: CB   and  CG  
REMARK    3  A    between atoms: CG   and  CD  
REMARK    4  A    between atoms: CD   and  CE  
ROOT
ATOM      1  CA  LYS A 131      29.867  25.555  16.977  1.00 20.52     0.186 C 
ENDROOT
BRANCH   1   2
ATOM      2  CB  LYS A 131      28.345  25.722  17.026  1.00 20.94     0.034 C 
BRANCH   2   3
ATOM      3  CG  LYS A 131      27.602  24.399  16.919  1.00 22.96     0.005 C 
BRANCH   3   4
ATOM      4  CD  LYS A 131      26.158  24.527  17.320  1.00 24.33     0.041 C 
BRANCH   4   5
ATOM      5  CE  LYS A 131      25.950  25.843  18.061  1.00 26.91     0.338 C 
ATOM      6  NZ  LYS A 131      25.126  25.632  19.274  1.00 27.40     0.618 N 
ENDBRANCH   4   5
ENDBRANCH   3   4
ENDBRANCH   2   3
ENDBRANCH   1   2
END_RES LYS A 131
BEGIN_RES LYS A 135
REMARK  4 active torsions:
REMARK  status: ('A' for Active; 'I' for Inactive)
REMARK    5  A    between atoms: CA   and  CB  
REMARK    6  A    between atoms: CB   and  CG  
REMARK    7  A    between atoms: CG   and  CD  
REMARK    8  A    between atoms: CD   and  CE  
ROOT
ATOM      7  CA  LYS A 135      33.193  34.663   9.290  1.00 25.02     0.186 C 
ENDROOT
BRANCH   7   8
ATOM      8  CB  LYS A 135      32.060  35.360  10.034  1.00 26.63     0.034 C 
BRANCH   8   9
ATOM      9  CG  LYS A 135      30.709  34.737   9.795  1.00 29.45     0.005 C 
BRANCH   9  10
ATOM     10  CD  LYS A 135      30.481  34.502   8.310  1.00 32.00     0.041 C 
BRANCH  10  11
ATOM     11  CE  LYS A 135      29.059  34.861   7.926  1.00 34.25     0.338 C 
ATOM     12  NZ  LYS A 135      28.083  34.309   8.906  1.00 35.99     0.618 N 
ENDBRANCH  10  11
ENDBRANCH   9  10
ENDBRANCH   8   9
ENDBRANCH   7   8
END_RES LYS A 135
