REMARK VINA RESULT:    -4.921      5.689     12.173
REMARK INTER + INTRA:         -15.914
REMARK INTER:                 -10.494
REMARK INTRA:                  -5.420
REMARK UNBOUND:                -7.109
REMARK SMILES CC(=O)N[C@@H]1[C@@H](O)C[C@](O)(C(=O)O)O[C@H]1C(O)[C@H](O)CNC(=O)OCc1cn(-c2ncn3c2c(=O)n(C(C)C)c2ccccc23)nn1
REMARK SMILES IDX 21 1 22 2 23 3 20 5 18 6 16 7 15 8 9 9 8 10 14 11 6 12 5 13
REMARK SMILES IDX 10 14 11 16 12 17 13 18 7 20 4 22 2 23 1 25 3 26 17 27 19 29
REMARK SMILES IDX 24 31 25 32 26 33 27 34 47 35 28 36 46 37 29 38 30 39 33 40
REMARK SMILES IDX 31 41 32 42 34 43 45 44 36 45 35 46 44 47 40 48 43 49 41 50
REMARK SMILES IDX 42 51 37 52 38 53 39 54
REMARK H PARENT 21 4 10 15 13 19 7 21 4 24 17 28 19 30
REMARK Flexibility Score: inf
ROOT
ATOM      1  N   UNL     1      27.702  38.123   8.449  1.00  0.00    -0.319 N 
ATOM      2  C   UNL     1      27.815  39.511   8.368  1.00  0.00     0.407 C 
ATOM      3  O   UNL     1      27.451  40.177   7.398  1.00  0.00    -0.225 OA
ATOM      4  H   UNL     1      28.040  37.676   9.390  1.00  0.00     0.167 HD
ENDROOT
BRANCH   1   5
ATOM      5  C   UNL     1      27.202  37.255   7.453  1.00  0.00     0.154 C 
BRANCH   5   6
ATOM      6  C   UNL     1      25.891  36.652   7.695  1.00  0.00     0.165 C 
BRANCH   6   7
ATOM      7  C   UNL     1      24.622  37.370   7.484  1.00  0.00     0.176 C 
BRANCH   7   8
ATOM      8  C   UNL     1      23.846  37.259   8.829  1.00  0.00     0.178 C 
ATOM      9  C   UNL     1      21.692  36.561   8.206  1.00  0.00     0.269 C 
ATOM     10  C   UNL     1      21.108  37.782   8.834  1.00  0.00     0.112 C 
ATOM     11  O   UNL     1      22.924  36.289   8.703  1.00  0.00    -0.332 OA
ATOM     12  C   UNL     1      22.028  38.976   8.843  1.00  0.00     0.145 C 
ATOM     13  C   UNL     1      23.418  38.598   9.302  1.00  0.00     0.142 C 
BRANCH   9  14
ATOM     14  O   UNL     1      21.810  36.747   6.805  1.00  0.00    -0.357 OA
ATOM     15  H   UNL     1      22.439  37.510   6.701  1.00  0.00     0.214 HD
ENDBRANCH   9  14
BRANCH   9  16
ATOM     16  C   UNL     1      20.717  35.448   8.462  1.00  0.00     0.364 C 
ATOM     17  O   UNL     1      20.130  35.387   9.551  1.00  0.00    -0.246 OA
BRANCH  16  18
ATOM     18  O   UNL     1      20.478  34.506   7.490  1.00  0.00    -0.477 OA
ATOM     19  H   UNL     1      20.335  34.787   6.516  1.00  0.00     0.296 HD
ENDBRANCH  16  18
ENDBRANCH   9  16
BRANCH  12  20
ATOM     20  O   UNL     1      22.083  39.620   7.606  1.00  0.00    -0.391 OA
ATOM     21  H   UNL     1      22.097  40.598   7.746  1.00  0.00     0.211 HD
ENDBRANCH  12  20
BRANCH  13  22
ATOM     22  N   UNL     1      23.418  38.686  10.769  1.00  0.00    -0.348 N 
ATOM     23  C   UNL     1      24.603  38.647  11.532  1.00  0.00     0.217 C 
ATOM     24  H   UNL     1      22.509  38.781  11.303  1.00  0.00     0.163 HD
ATOM     25  C   UNL     1      24.598  38.735  13.015  1.00  0.00     0.114 C 
ATOM     26  O   UNL     1      25.725  38.533  10.953  1.00  0.00    -0.275 OA
ENDBRANCH  13  22
ENDBRANCH   7   8
BRANCH   7  27
ATOM     27  O   UNL     1      24.749  38.723   7.166  1.00  0.00    -0.388 OA
ATOM     28  H   UNL     1      25.395  38.843   6.402  1.00  0.00     0.211 HD
ENDBRANCH   7  27
ENDBRANCH   6   7
BRANCH   6  29
ATOM     29  O   UNL     1      25.932  36.177   9.061  1.00  0.00    -0.388 OA
ATOM     30  H   UNL     1      25.540  36.834   9.663  1.00  0.00     0.211 HD
ENDBRANCH   6  29
ENDBRANCH   5   6
ENDBRANCH   1   5
BRANCH   2  31
ATOM     31  O   UNL     1      28.377  40.252   9.432  1.00  0.00    -0.443 OA
BRANCH  31  32
ATOM     32  C   UNL     1      29.526  39.822  10.102  1.00  0.00     0.294 C 
BRANCH  32  33
ATOM     33  C   UNL     1      29.145  39.178  11.385  1.00  0.00     0.121 A 
ATOM     34  C   UNL     1      28.963  37.818  11.617  1.00  0.00     0.146 A 
ATOM     35  N   UNL     1      28.904  39.755  12.576  1.00  0.00    -0.131 NA
ATOM     36  N   UNL     1      28.622  37.610  12.920  1.00  0.00    -0.200 N 
ATOM     37  N   UNL     1      28.603  38.809  13.443  1.00  0.00    -0.060 NA
BRANCH  36  38
ATOM     38  C   UNL     1      28.371  36.321  13.472  1.00  0.00     0.186 A 
ATOM     39  N   UNL     1      27.151  35.710  13.545  1.00  0.00    -0.216 NA
ATOM     40  C   UNL     1      29.255  35.435  14.030  1.00  0.00     0.158 A 
ATOM     41  C   UNL     1      27.305  34.511  14.123  1.00  0.00     0.207 A 
ATOM     42  N   UNL     1      28.597  34.306  14.438  1.00  0.00    -0.291 N 
ATOM     43  C   UNL     1      30.598  35.484  14.235  1.00  0.00     0.279 A 
ATOM     44  C   UNL     1      29.236  33.275  15.021  1.00  0.00     0.071 A 
ATOM     45  N   UNL     1      31.270  34.489  14.807  1.00  0.00    -0.302 N 
ATOM     46  O   UNL     1      31.269  36.489  13.888  1.00  0.00    -0.267 OA
ATOM     47  C   UNL     1      28.539  32.153  15.419  1.00  0.00     0.029 A 
ATOM     48  C   UNL     1      30.600  33.385  15.200  1.00  0.00     0.068 A 
ATOM     49  C   UNL     1      29.170  31.077  16.021  1.00  0.00     0.002 A 
ATOM     50  C   UNL     1      31.208  32.295  15.806  1.00  0.00     0.028 A 
ATOM     51  C   UNL     1      30.523  31.166  16.209  1.00  0.00     0.002 A 
BRANCH  45  52
ATOM     52  C   UNL     1      32.695  34.476  15.051  1.00  0.00     0.085 C 
ATOM     53  C   UNL     1      32.970  35.493  16.138  1.00  0.00     0.031 C 
ATOM     54  C   UNL     1      33.535  34.838  13.867  1.00  0.00     0.031 C 
ENDBRANCH  45  52
ENDBRANCH  36  38
ENDBRANCH  32  33
ENDBRANCH  31  32
ENDBRANCH   2  31
TORSDOF 16
BEGIN_RES LYS A 131
REMARK  4 active torsions:
REMARK  status: ('A' for Active; 'I' for Inactive)
REMARK    1  A    between atoms: CA   and  CB  
REMARK    2  A    between atoms: CB   and  CG  
REMARK    3  A    between atoms: CG   and  CD  
REMARK    4  A    between atoms: CD   and  CE  
ROOT
ATOM      1  CA  LYS A 131      29.867  25.555  16.977  1.00 20.52     0.186 C 
ENDROOT
BRANCH   1   2
ATOM      2  CB  LYS A 131      28.345  25.722  17.026  1.00 20.94     0.034 C 
BRANCH   2   3
ATOM      3  CG  LYS A 131      27.602  24.398  16.931  1.00 22.96     0.005 C 
BRANCH   3   4
ATOM      4  CD  LYS A 131      26.631  24.211  18.064  1.00 24.33     0.041 C 
BRANCH   4   5
ATOM      5  CE  LYS A 131      26.317  25.564  18.694  1.00 26.91     0.338 C 
ATOM      6  NZ  LYS A 131      24.928  25.974  18.377  1.00 27.40     0.618 N 
ENDBRANCH   4   5
ENDBRANCH   3   4
ENDBRANCH   2   3
ENDBRANCH   1   2
END_RES LYS A 131
BEGIN_RES LYS A 135
REMARK  4 active torsions:
REMARK  status: ('A' for Active; 'I' for Inactive)
REMARK    5  A    between atoms: CA   and  CB  
REMARK    6  A    between atoms: CB   and  CG  
REMARK    7  A    between atoms: CG   and  CD  
REMARK    8  A    between atoms: CD   and  CE  
ROOT
ATOM      7  CA  LYS A 135      33.193  34.663   9.290  1.00 25.02     0.186 C 
ENDROOT
BRANCH   7   8
ATOM      8  CB  LYS A 135      32.060  35.360  10.034  1.00 26.63     0.034 C 
BRANCH   8   9
ATOM      9  CG  LYS A 135      30.825  35.565   9.195  1.00 29.45     0.005 C 
BRANCH   9  10
ATOM     10  CD  LYS A 135      30.296  34.234   8.684  1.00 32.00     0.041 C 
BRANCH  10  11
ATOM     11  CE  LYS A 135      28.820  34.089   9.001  1.00 34.25     0.338 C 
ATOM     12  NZ  LYS A 135      28.553  34.352  10.443  1.00 35.99     0.618 N 
ENDBRANCH  10  11
ENDBRANCH   9  10
ENDBRANCH   8   9
ENDBRANCH   7   8
END_RES LYS A 135
