REMARK VINA RESULT:    -4.606      2.842      6.839
REMARK INTER + INTRA:         -13.757
REMARK INTER:                  -7.613
REMARK INTRA:                  -6.144
REMARK UNBOUND:                -5.786
REMARK SMILES CC(=O)N[C@@H]1[C@@H](O)C[C@](O)(C(=O)O)O[C@H]1C(O)[C@H](O)CNC(=O)OCc1cn(C2CCN(C)CC2)nn1
REMARK SMILES IDX 20 1 18 2 16 3 15 4 9 5 8 6 14 7 6 8 5 9 10 10 11 12 12 13
REMARK SMILES IDX 13 14 7 16 4 18 2 19 1 21 3 22 17 23 19 25 21 27 22 28 23 30
REMARK SMILES IDX 24 31 25 32 26 33 27 34 37 35 28 36 36 37 29 38 30 39 35 40
REMARK SMILES IDX 31 41 34 42 32 43 33 44
REMARK H PARENT 10 11 13 15 7 17 4 20 17 24 19 26 21 29
REMARK Flexibility Score: inf
ROOT
ATOM      1  C   UNL     1      27.481  30.137  16.817  1.00  0.00     0.154 C 
ENDROOT
BRANCH   1   2
ATOM      2  C   UNL     1      28.672  30.923  16.380  1.00  0.00     0.165 C 
BRANCH   2   3
ATOM      3  C   UNL     1      29.458  31.484  17.546  1.00  0.00     0.176 C 
BRANCH   3   4
ATOM      4  C   UNL     1      30.097  32.797  17.144  1.00  0.00     0.178 C 
ATOM      5  C   UNL     1      31.504  33.810  15.579  1.00  0.00     0.269 C 
ATOM      6  C   UNL     1      32.239  34.528  16.669  1.00  0.00     0.112 C 
ATOM      7  O   UNL     1      30.770  32.728  15.965  1.00  0.00    -0.332 OA
ATOM      8  C   UNL     1      31.379  34.705  17.892  1.00  0.00     0.145 C 
ATOM      9  C   UNL     1      30.897  33.315  18.297  1.00  0.00     0.142 C 
BRANCH   5  10
ATOM     10  O   UNL     1      32.460  33.448  14.589  1.00  0.00    -0.357 OA
ATOM     11  H   UNL     1      32.066  33.490  13.683  1.00  0.00     0.214 HD
ENDBRANCH   5  10
BRANCH   5  12
ATOM     12  C   UNL     1      30.571  34.772  14.939  1.00  0.00     0.364 C 
ATOM     13  O   UNL     1      29.567  34.347  14.313  1.00  0.00    -0.246 OA
BRANCH  12  14
ATOM     14  O   UNL     1      30.720  36.150  14.976  1.00  0.00    -0.477 OA
ATOM     15  H   UNL     1      31.402  36.613  15.576  1.00  0.00     0.296 HD
ENDBRANCH  12  14
ENDBRANCH   5  12
BRANCH   8  16
ATOM     16  O   UNL     1      32.096  35.272  18.949  1.00  0.00    -0.391 OA
ATOM     17  H   UNL     1      32.796  35.890  18.640  1.00  0.00     0.211 HD
ENDBRANCH   8  16
BRANCH   9  18
ATOM     18  N   UNL     1      30.017  33.549  19.449  1.00  0.00    -0.348 N 
ATOM     19  C   UNL     1      30.430  33.295  20.773  1.00  0.00     0.217 C 
ATOM     20  H   UNL     1      29.077  33.911  19.243  1.00  0.00     0.163 HD
ATOM     21  C   UNL     1      29.516  33.541  21.942  1.00  0.00     0.114 C 
ATOM     22  O   UNL     1      31.592  32.853  20.963  1.00  0.00    -0.275 OA
ENDBRANCH   9  18
ENDBRANCH   3   4
BRANCH   3  23
ATOM     23  O   UNL     1      30.380  30.547  17.951  1.00  0.00    -0.388 OA
ATOM     24  H   UNL     1      30.014  29.988  18.683  1.00  0.00     0.211 HD
ENDBRANCH   3  23
ENDBRANCH   2   3
BRANCH   2  25
ATOM     25  O   UNL     1      28.215  32.018  15.610  1.00  0.00    -0.388 OA
ATOM     26  H   UNL     1      27.685  32.645  16.169  1.00  0.00     0.211 HD
ENDBRANCH   2  25
ENDBRANCH   1   2
BRANCH   1  27
ATOM     27  N   UNL     1      27.913  29.120  17.751  1.00  0.00    -0.319 N 
ATOM     28  C   UNL     1      27.096  28.054  18.213  1.00  0.00     0.407 C 
ATOM     29  H   UNL     1      28.898  29.116  18.155  1.00  0.00     0.167 HD
ATOM     30  O   UNL     1      25.929  27.964  17.803  1.00  0.00    -0.225 OA
BRANCH  28  31
ATOM     31  O   UNL     1      27.556  27.102  19.113  1.00  0.00    -0.443 OA
BRANCH  31  32
ATOM     32  C   UNL     1      27.711  27.420  20.482  1.00  0.00     0.294 C 
BRANCH  32  33
ATOM     33  C   UNL     1      29.006  28.107  20.719  1.00  0.00     0.120 A 
ATOM     34  C   UNL     1      30.194  27.563  21.116  1.00  0.00     0.138 A 
ATOM     35  N   UNL     1      29.237  29.425  20.580  1.00  0.00    -0.132 NA
ATOM     36  N   UNL     1      31.112  28.539  21.212  1.00  0.00    -0.249 N 
ATOM     37  N   UNL     1      30.487  29.670  20.874  1.00  0.00    -0.067 NA
BRANCH  36  38
ATOM     38  C   UNL     1      32.494  28.374  21.603  1.00  0.00     0.111 C 
ATOM     39  C   UNL     1      32.631  27.416  22.765  1.00  0.00     0.043 C 
ATOM     40  C   UNL     1      33.152  29.695  21.868  1.00  0.00     0.043 C 
ATOM     41  C   UNL     1      32.411  28.089  24.099  1.00  0.00     0.086 C 
ATOM     42  C   UNL     1      32.831  30.279  23.208  1.00  0.00     0.086 C 
ATOM     43  N   UNL     1      33.132  29.320  24.227  1.00  0.00    -0.306 NA
ATOM     44  C   UNL     1      34.552  29.138  24.322  1.00  0.00     0.105 C 
ENDBRANCH  36  38
ENDBRANCH  32  33
ENDBRANCH  31  32
ENDBRANCH  28  31
ENDBRANCH   1  27
TORSDOF 15
BEGIN_RES LYS A 131
REMARK  4 active torsions:
REMARK  status: ('A' for Active; 'I' for Inactive)
REMARK    1  A    between atoms: CA   and  CB  
REMARK    2  A    between atoms: CB   and  CG  
REMARK    3  A    between atoms: CG   and  CD  
REMARK    4  A    between atoms: CD   and  CE  
ROOT
ATOM      1  CA  LYS A 131      29.867  25.555  16.977  1.00 20.52     0.186 C 
ENDROOT
BRANCH   1   2
ATOM      2  CB  LYS A 131      28.345  25.722  17.026  1.00 20.94     0.034 C 
BRANCH   2   3
ATOM      3  CG  LYS A 131      27.601  24.403  16.882  1.00 22.96     0.005 C 
BRANCH   3   4
ATOM      4  CD  LYS A 131      26.146  24.532  17.239  1.00 24.33     0.041 C 
BRANCH   4   5
ATOM      5  CE  LYS A 131      25.919  23.998  18.650  1.00 26.91     0.338 C 
ATOM      6  NZ  LYS A 131      25.084  22.774  18.614  1.00 27.40     0.618 N 
ENDBRANCH   4   5
ENDBRANCH   3   4
ENDBRANCH   2   3
ENDBRANCH   1   2
END_RES LYS A 131
BEGIN_RES LYS A 135
REMARK  4 active torsions:
REMARK  status: ('A' for Active; 'I' for Inactive)
REMARK    5  A    between atoms: CA   and  CB  
REMARK    6  A    between atoms: CB   and  CG  
REMARK    7  A    between atoms: CG   and  CD  
REMARK    8  A    between atoms: CD   and  CE  
ROOT
ATOM      7  CA  LYS A 135      33.193  34.663   9.290  1.00 25.02     0.186 C 
ENDROOT
BRANCH   7   8
ATOM      8  CB  LYS A 135      32.060  35.360  10.034  1.00 26.63     0.034 C 
BRANCH   8   9
ATOM      9  CG  LYS A 135      30.747  34.624   9.959  1.00 29.45     0.005 C 
BRANCH   9  10
ATOM     10  CD  LYS A 135      30.348  34.383   8.512  1.00 32.00     0.041 C 
BRANCH  10  11
ATOM     11  CE  LYS A 135      28.849  34.533   8.340  1.00 34.25     0.338 C 
ATOM     12  NZ  LYS A 135      28.111  33.814   9.416  1.00 35.99     0.618 N 
ENDBRANCH  10  11
ENDBRANCH   9  10
ENDBRANCH   8   9
ENDBRANCH   7   8
END_RES LYS A 135
