REMARK VINA RESULT:    -5.938      7.007     12.446
REMARK INTER + INTRA:         -15.138
REMARK INTER:                  -8.806
REMARK INTRA:                  -6.332
REMARK UNBOUND:                -3.993
REMARK SMILES CC(=O)N[C@@H]1[C@@H](O)C[C@](O)(C(=O)O)O[C@H]1C(O)[C@H](O)CNC(=O)OCc1cn(Cc2ccc(C(=O)O)cc2)nn1
REMARK SMILES IDX 21 1 22 2 23 3 20 5 18 6 16 7 15 8 9 9 8 10 14 11 6 12 5 13
REMARK SMILES IDX 10 14 11 16 12 17 13 18 7 20 4 22 2 23 1 25 3 26 17 27 19 29
REMARK SMILES IDX 24 31 25 32 26 33 27 34 40 35 28 36 39 37 29 38 30 39 31 40
REMARK SMILES IDX 38 41 32 42 37 43 33 44 34 45 35 46 36 47
REMARK H PARENT 21 4 10 15 13 19 7 21 4 24 17 28 19 30 36 48
REMARK Flexibility Score: inf
ROOT
ATOM      1  N   UNL     1      23.135  38.014   7.211  1.00  0.00    -0.319 N 
ATOM      2  C   UNL     1      22.891  39.350   7.573  1.00  0.00     0.407 C 
ATOM      3  O   UNL     1      22.120  39.607   8.512  1.00  0.00    -0.225 OA
ATOM      4  H   UNL     1      23.805  37.881   6.394  1.00  0.00     0.167 HD
ENDROOT
BRANCH   1   5
ATOM      5  C   UNL     1      22.544  36.882   7.873  1.00  0.00     0.154 C 
BRANCH   5   6
ATOM      6  C   UNL     1      23.380  36.502   9.065  1.00  0.00     0.165 C 
BRANCH   6   7
ATOM      7  C   UNL     1      24.854  36.601   8.834  1.00  0.00     0.176 C 
BRANCH   7   8
ATOM      8  C   UNL     1      25.509  37.466   9.927  1.00  0.00     0.178 C 
ATOM      9  C   UNL     1      27.100  39.133  10.111  1.00  0.00     0.269 C 
ATOM     10  C   UNL     1      28.122  38.237  10.795  1.00  0.00     0.112 C 
ATOM     11  O   UNL     1      26.364  38.329   9.275  1.00  0.00    -0.332 OA
ATOM     12  C   UNL     1      27.435  37.137  11.537  1.00  0.00     0.145 C 
ATOM     13  C   UNL     1      26.272  36.535  10.797  1.00  0.00     0.142 C 
BRANCH   9  14
ATOM     14  O   UNL     1      27.891  39.981   9.283  1.00  0.00    -0.357 OA
ATOM     15  H   UNL     1      28.508  39.391   8.748  1.00  0.00     0.214 HD
ENDBRANCH   9  14
BRANCH   9  16
ATOM     16  C   UNL     1      26.345  39.941  11.073  1.00  0.00     0.364 C 
ATOM     17  O   UNL     1      25.274  40.521  10.685  1.00  0.00    -0.246 OA
BRANCH  16  18
ATOM     18  O   UNL     1      26.667  40.158  12.398  1.00  0.00    -0.477 OA
ATOM     19  H   UNL     1      27.650  40.197  12.633  1.00  0.00     0.296 HD
ENDBRANCH  16  18
ENDBRANCH   9  16
BRANCH  12  20
ATOM     20  O   UNL     1      28.389  36.106  11.709  1.00  0.00    -0.391 OA
ATOM     21  H   UNL     1      28.106  35.376  11.107  1.00  0.00     0.211 HD
ENDBRANCH  12  20
BRANCH  13  22
ATOM     22  N   UNL     1      25.438  35.805  11.730  1.00  0.00    -0.348 N 
ATOM     23  C   UNL     1      25.558  34.404  11.909  1.00  0.00     0.217 C 
ATOM     24  H   UNL     1      24.718  36.295  12.303  1.00  0.00     0.163 HD
ATOM     25  C   UNL     1      24.679  33.664  12.885  1.00  0.00     0.114 C 
ATOM     26  O   UNL     1      26.409  33.787  11.241  1.00  0.00    -0.275 OA
ENDBRANCH  13  22
ENDBRANCH   7   8
BRANCH   7  27
ATOM     27  O   UNL     1      25.500  35.398   8.687  1.00  0.00    -0.388 OA
ATOM     28  H   UNL     1      25.931  35.138   9.542  1.00  0.00     0.211 HD
ENDBRANCH   7  27
ENDBRANCH   6   7
BRANCH   6  29
ATOM     29  O   UNL     1      23.061  35.228   9.553  1.00  0.00    -0.388 OA
ATOM     30  H   UNL     1      22.423  34.789   8.921  1.00  0.00     0.211 HD
ENDBRANCH   6  29
ENDBRANCH   5   6
ENDBRANCH   1   5
BRANCH   2  31
ATOM     31  O   UNL     1      23.475  40.434   6.929  1.00  0.00    -0.443 OA
BRANCH  31  32
ATOM     32  C   UNL     1      24.412  41.293   7.530  1.00  0.00     0.294 C 
BRANCH  32  33
ATOM     33  C   UNL     1      25.758  41.033   6.978  1.00  0.00     0.120 A 
ATOM     34  C   UNL     1      26.105  39.948   6.171  1.00  0.00     0.138 A 
ATOM     35  N   UNL     1      26.903  41.730   7.115  1.00  0.00    -0.132 NA
ATOM     36  N   UNL     1      27.406  40.036   5.866  1.00  0.00    -0.248 N 
ATOM     37  N   UNL     1      27.864  41.118   6.447  1.00  0.00    -0.067 NA
BRANCH  36  38
ATOM     38  C   UNL     1      28.175  39.089   5.045  1.00  0.00     0.181 C 
BRANCH  38  39
ATOM     39  C   UNL     1      28.397  37.894   5.921  1.00  0.00    -0.026 A 
ATOM     40  C   UNL     1      29.257  37.988   6.979  1.00  0.00     0.006 A 
ATOM     41  C   UNL     1      27.761  36.701   5.687  1.00  0.00     0.006 A 
ATOM     42  C   UNL     1      29.489  36.890   7.813  1.00  0.00     0.016 A 
ATOM     43  C   UNL     1      27.991  35.607   6.515  1.00  0.00     0.016 A 
ATOM     44  C   UNL     1      28.858  35.690   7.587  1.00  0.00     0.059 A 
BRANCH  44  45
ATOM     45  C   UNL     1      29.089  34.540   8.449  1.00  0.00     0.335 C 
ATOM     46  O   UNL     1      30.229  34.083   8.686  1.00  0.00    -0.246 OA
BRANCH  45  47
ATOM     47  O   UNL     1      28.003  33.909   9.046  1.00  0.00    -0.478 OA
ATOM     48  H   UNL     1      27.224  33.581   8.502  1.00  0.00     0.297 HD
ENDBRANCH  45  47
ENDBRANCH  44  45
ENDBRANCH  38  39
ENDBRANCH  36  38
ENDBRANCH  32  33
ENDBRANCH  31  32
ENDBRANCH   2  31
TORSDOF 18
BEGIN_RES LYS A 131
REMARK  4 active torsions:
REMARK  status: ('A' for Active; 'I' for Inactive)
REMARK    1  A    between atoms: CA   and  CB  
REMARK    2  A    between atoms: CB   and  CG  
REMARK    3  A    between atoms: CG   and  CD  
REMARK    4  A    between atoms: CD   and  CE  
ROOT
ATOM      1  CA  LYS A 131      29.867  25.555  16.977  1.00 20.52     0.186 C 
ENDROOT
BRANCH   1   2
ATOM      2  CB  LYS A 131      28.345  25.722  17.026  1.00 20.94     0.034 C 
BRANCH   2   3
ATOM      3  CG  LYS A 131      27.602  24.399  16.918  1.00 22.96     0.005 C 
BRANCH   3   4
ATOM      4  CD  LYS A 131      26.152  24.532  17.294  1.00 24.33     0.041 C 
BRANCH   4   5
ATOM      5  CE  LYS A 131      25.967  24.132  18.755  1.00 26.91     0.338 C 
ATOM      6  NZ  LYS A 131      24.962  23.050  18.873  1.00 27.40     0.618 N 
ENDBRANCH   4   5
ENDBRANCH   3   4
ENDBRANCH   2   3
ENDBRANCH   1   2
END_RES LYS A 131
BEGIN_RES LYS A 135
REMARK  4 active torsions:
REMARK  status: ('A' for Active; 'I' for Inactive)
REMARK    5  A    between atoms: CA   and  CB  
REMARK    6  A    between atoms: CB   and  CG  
REMARK    7  A    between atoms: CG   and  CD  
REMARK    8  A    between atoms: CD   and  CE  
ROOT
ATOM      7  CA  LYS A 135      33.193  34.663   9.290  1.00 25.02     0.186 C 
ENDROOT
BRANCH   7   8
ATOM      8  CB  LYS A 135      32.060  35.360  10.034  1.00 26.63     0.034 C 
BRANCH   8   9
ATOM      9  CG  LYS A 135      32.510  36.083  11.277  1.00 29.45     0.005 C 
BRANCH   9  10
ATOM     10  CD  LYS A 135      31.729  37.374  11.460  1.00 32.00     0.041 C 
BRANCH  10  11
ATOM     11  CE  LYS A 135      31.921  38.287  10.264  1.00 34.25     0.338 C 
ATOM     12  NZ  LYS A 135      31.501  39.680  10.580  1.00 35.99     0.618 N 
ENDBRANCH  10  11
ENDBRANCH   9  10
ENDBRANCH   8   9
ENDBRANCH   7   8
END_RES LYS A 135
