REMARK VINA RESULT:    -5.270      3.105      6.873
REMARK INTER + INTRA:         -16.261
REMARK INTER:                  -7.997
REMARK INTRA:                  -8.265
REMARK UNBOUND:                -5.909
REMARK SMILES CC(=O)N[C@@H]1[C@@H](O)C[C@](O)(C(=O)O)O[C@H]1C(O)[C@H](O)CNC(=O)OCc1cn(CCNC(=O)NCc2ccco2)nn1
REMARK SMILES IDX 24 1 22 2 21 3 23 5 20 6 18 7 16 8 15 9 9 10 8 11 14 12 6 13
REMARK SMILES IDX 5 14 10 15 11 17 12 18 13 19 7 21 4 23 2 24 1 26 3 27 17 28
REMARK SMILES IDX 19 30 25 32 26 33 27 34 42 35 28 36 41 37 29 38 30 39 31 40
REMARK SMILES IDX 32 41 33 43 34 44 35 46 36 47 37 48 40 49 38 50 39 51
REMARK H PARENT 21 4 10 16 13 20 7 22 4 25 17 29 19 31 31 42 34 45
REMARK Flexibility Score: inf
ROOT
ATOM      1  O   UNL     1      28.044  32.793  22.014  1.00  0.00    -0.443 OA
ENDROOT
BRANCH   1   2
ATOM      2  C   UNL     1      27.375  33.570  21.075  1.00  0.00     0.407 C 
ATOM      3  N   UNL     1      27.763  33.706  19.735  1.00  0.00    -0.319 N 
ATOM      4  H   UNL     1      28.596  33.210  19.388  1.00  0.00     0.167 HD
ATOM      5  O   UNL     1      26.351  34.191  21.465  1.00  0.00    -0.225 OA
BRANCH   3   6
ATOM      6  C   UNL     1      26.983  34.554  18.828  1.00  0.00     0.154 C 
BRANCH   6   7
ATOM      7  C   UNL     1      26.562  33.734  17.638  1.00  0.00     0.165 C 
BRANCH   7   8
ATOM      8  C   UNL     1      27.092  34.285  16.343  1.00  0.00     0.176 C 
BRANCH   8   9
ATOM      9  C   UNL     1      28.211  33.461  15.775  1.00  0.00     0.178 C 
ATOM     10  C   UNL     1      29.924  32.068  16.538  1.00  0.00     0.269 C 
ATOM     11  C   UNL     1      30.732  32.320  15.307  1.00  0.00     0.112 C 
ATOM     12  O   UNL     1      29.008  33.021  16.847  1.00  0.00    -0.332 OA
ATOM     13  C   UNL     1      30.107  33.196  14.298  1.00  0.00     0.145 C 
ATOM     14  C   UNL     1      29.167  34.227  14.894  1.00  0.00     0.142 C 
BRANCH  10  15
ATOM     15  O   UNL     1      30.860  32.060  17.605  1.00  0.00    -0.357 OA
ATOM     16  H   UNL     1      31.213  32.970  17.768  1.00  0.00     0.214 HD
ENDBRANCH  10  15
BRANCH  10  17
ATOM     17  C   UNL     1      29.278  30.732  16.541  1.00  0.00     0.364 C 
ATOM     18  O   UNL     1      28.924  30.166  15.468  1.00  0.00    -0.246 OA
BRANCH  17  19
ATOM     19  O   UNL     1      29.019  30.026  17.710  1.00  0.00    -0.477 OA
ATOM     20  H   UNL     1      29.788  29.670  18.268  1.00  0.00     0.296 HD
ENDBRANCH  17  19
ENDBRANCH  10  17
BRANCH  13  21
ATOM     21  O   UNL     1      31.107  33.848  13.546  1.00  0.00    -0.391 OA
ATOM     22  H   UNL     1      30.836  33.975  12.614  1.00  0.00     0.211 HD
ENDBRANCH  13  21
BRANCH  14  23
ATOM     23  N   UNL     1      28.571  35.018  13.873  1.00  0.00    -0.348 N 
ATOM     24  C   UNL     1      29.098  36.321  13.616  1.00  0.00     0.217 C 
ATOM     25  H   UNL     1      27.771  34.714  13.279  1.00  0.00     0.163 HD
ATOM     26  C   UNL     1      28.551  37.219  12.577  1.00  0.00     0.114 C 
ATOM     27  O   UNL     1      30.077  36.746  14.296  1.00  0.00    -0.275 OA
ENDBRANCH  14  23
ENDBRANCH   8   9
BRANCH   8  28
ATOM     28  O   UNL     1      26.104  34.605  15.429  1.00  0.00    -0.388 OA
ATOM     29  H   UNL     1      25.456  35.277  15.758  1.00  0.00     0.211 HD
ENDBRANCH   8  28
ENDBRANCH   7   8
BRANCH   7  30
ATOM     30  O   UNL     1      25.151  33.883  17.555  1.00  0.00    -0.388 OA
ATOM     31  H   UNL     1      24.931  34.490  18.328  1.00  0.00     0.211 HD
ENDBRANCH   7  30
ENDBRANCH   6   7
ENDBRANCH   3   6
ENDBRANCH   1   2
BRANCH   1  32
ATOM     32  C   UNL     1      29.439  32.904  22.202  1.00  0.00     0.294 C 
BRANCH  32  33
ATOM     33  C   UNL     1      30.089  31.758  21.529  1.00  0.00     0.120 A 
ATOM     34  C   UNL     1      30.846  30.778  22.112  1.00  0.00     0.138 A 
ATOM     35  N   UNL     1      30.045  31.481  20.216  1.00  0.00    -0.132 NA
ATOM     36  N   UNL     1      31.240  29.935  21.141  1.00  0.00    -0.250 N 
ATOM     37  N   UNL     1      30.750  30.366  19.989  1.00  0.00    -0.067 NA
BRANCH  36  38
ATOM     38  C   UNL     1      32.068  28.736  21.295  1.00  0.00     0.167 C 
BRANCH  38  39
ATOM     39  C   UNL     1      31.138  27.565  21.474  1.00  0.00     0.141 C 
BRANCH  39  40
ATOM     40  N   UNL     1      30.282  27.453  20.321  1.00  0.00    -0.336 N 
ATOM     41  C   UNL     1      28.868  27.442  20.376  1.00  0.00     0.315 C 
ATOM     42  H   UNL     1      30.711  27.373  19.356  1.00  0.00     0.165 HD
ATOM     43  O   UNL     1      28.312  27.539  21.511  1.00  0.00    -0.249 OA
ATOM     44  N   UNL     1      28.111  27.325  19.181  1.00  0.00    -0.331 N 
ATOM     45  H   UNL     1      28.540  27.244  18.242  1.00  0.00     0.165 HD
BRANCH  44  46
ATOM     46  C   UNL     1      26.669  27.317  19.277  1.00  0.00     0.193 C 
BRANCH  46  47
ATOM     47  C   UNL     1      26.136  28.389  18.408  1.00  0.00     0.122 A 
ATOM     48  C   UNL     1      25.322  29.421  18.861  1.00  0.00     0.047 A 
ATOM     49  O   UNL     1      26.330  28.538  17.136  1.00  0.00    -0.467 OA
ATOM     50  C   UNL     1      25.053  30.190  17.749  1.00  0.00     0.042 A 
ATOM     51  C   UNL     1      25.711  29.590  16.696  1.00  0.00     0.195 A 
ENDBRANCH  46  47
ENDBRANCH  44  46
ENDBRANCH  39  40
ENDBRANCH  38  39
ENDBRANCH  36  38
ENDBRANCH  32  33
ENDBRANCH   1  32
TORSDOF 19
BEGIN_RES LYS A 131
REMARK  4 active torsions:
REMARK  status: ('A' for Active; 'I' for Inactive)
REMARK    1  A    between atoms: CA   and  CB  
REMARK    2  A    between atoms: CB   and  CG  
REMARK    3  A    between atoms: CG   and  CD  
REMARK    4  A    between atoms: CD   and  CE  
ROOT
ATOM      1  CA  LYS A 131      29.867  25.555  16.977  1.00 20.52     0.186 C 
ENDROOT
BRANCH   1   2
ATOM      2  CB  LYS A 131      28.345  25.722  17.026  1.00 20.94     0.034 C 
BRANCH   2   3
ATOM      3  CG  LYS A 131      27.599  24.430  16.728  1.00 22.96     0.005 C 
BRANCH   3   4
ATOM      4  CD  LYS A 131      26.950  23.855  17.957  1.00 24.33     0.041 C 
BRANCH   4   5
ATOM      5  CE  LYS A 131      25.564  23.327  17.600  1.00 26.91     0.338 C 
ATOM      6  NZ  LYS A 131      24.772  24.372  16.910  1.00 27.40     0.618 N 
ENDBRANCH   4   5
ENDBRANCH   3   4
ENDBRANCH   2   3
ENDBRANCH   1   2
END_RES LYS A 131
BEGIN_RES LYS A 135
REMARK  4 active torsions:
REMARK  status: ('A' for Active; 'I' for Inactive)
REMARK    5  A    between atoms: CA   and  CB  
REMARK    6  A    between atoms: CB   and  CG  
REMARK    7  A    between atoms: CG   and  CD  
REMARK    8  A    between atoms: CD   and  CE  
ROOT
ATOM      7  CA  LYS A 135      33.193  34.663   9.290  1.00 25.02     0.186 C 
ENDROOT
BRANCH   7   8
ATOM      8  CB  LYS A 135      32.060  35.360  10.034  1.00 26.63     0.034 C 
BRANCH   8   9
ATOM      9  CG  LYS A 135      30.797  35.492   9.222  1.00 29.45     0.005 C 
BRANCH   9  10
ATOM     10  CD  LYS A 135      30.128  34.138   9.048  1.00 32.00     0.041 C 
BRANCH  10  11
ATOM     11  CE  LYS A 135      28.667  34.309   8.677  1.00 34.25     0.338 C 
ATOM     12  NZ  LYS A 135      27.776  33.756   9.734  1.00 35.99     0.618 N 
ENDBRANCH  10  11
ENDBRANCH   9  10
ENDBRANCH   8   9
ENDBRANCH   7   8
END_RES LYS A 135
