REMARK VINA RESULT:    -4.201      4.462      8.758
REMARK INTER + INTRA:         -14.795
REMARK INTER:                  -7.366
REMARK INTRA:                  -7.430
REMARK UNBOUND:                -6.788
REMARK SMILES CC(=O)N[C@@H]1[C@@H](O)C[C@](O)(C(=O)O)O[C@H]1C(O)[C@H](O)CNC(=O)OCc1cn(CC(=O)NCc2cccs2)nn1
REMARK SMILES IDX 21 1 22 2 23 3 20 5 18 6 16 7 15 8 9 9 8 10 14 11 6 12 5 13
REMARK SMILES IDX 10 14 11 16 12 17 13 18 7 20 4 22 2 23 1 25 3 26 17 27 19 29
REMARK SMILES IDX 24 31 25 32 26 33 27 34 40 35 28 36 39 37 29 38 30 39 31 40
REMARK SMILES IDX 32 41 33 43 34 44 35 45 38 46 36 47 37 48
REMARK H PARENT 21 4 10 15 13 19 7 21 4 24 17 28 19 30 32 42
REMARK Flexibility Score: inf
ROOT
ATOM      1  N   UNL     1      29.293  29.630  19.480  1.00  0.00    -0.319 N 
ATOM      2  C   UNL     1      28.185  29.334  20.301  1.00  0.00     0.407 C 
ATOM      3  O   UNL     1      27.569  30.286  20.840  1.00  0.00    -0.225 OA
ATOM      4  H   UNL     1      29.790  28.823  19.042  1.00  0.00     0.167 HD
ENDROOT
BRANCH   1   5
ATOM      5  C   UNL     1      29.788  30.962  19.198  1.00  0.00     0.154 C 
BRANCH   5   6
ATOM      6  C   UNL     1      29.451  31.374  17.792  1.00  0.00     0.165 C 
BRANCH   6   7
ATOM      7  C   UNL     1      28.193  32.164  17.658  1.00  0.00     0.176 C 
BRANCH   7   8
ATOM      8  C   UNL     1      28.040  33.037  16.471  1.00  0.00     0.178 C 
ATOM      9  C   UNL     1      29.436  34.296  15.077  1.00  0.00     0.269 C 
ATOM     10  C   UNL     1      28.155  34.340  14.262  1.00  0.00     0.112 C 
ATOM     11  O   UNL     1      29.369  33.486  16.171  1.00  0.00    -0.332 OA
ATOM     12  C   UNL     1      27.061  34.819  15.151  1.00  0.00     0.145 C 
ATOM     13  C   UNL     1      27.242  34.272  16.582  1.00  0.00     0.142 C 
BRANCH   9  14
ATOM     14  O   UNL     1      29.707  35.636  15.413  1.00  0.00    -0.357 OA
ATOM     15  H   UNL     1      28.839  36.107  15.551  1.00  0.00     0.214 HD
ENDBRANCH   9  14
BRANCH   9  16
ATOM     16  C   UNL     1      30.565  33.817  14.238  1.00  0.00     0.364 C 
ATOM     17  O   UNL     1      30.892  34.477  13.230  1.00  0.00    -0.246 OA
BRANCH  16  18
ATOM     18  O   UNL     1      31.270  32.656  14.542  1.00  0.00    -0.477 OA
ATOM     19  H   UNL     1      31.857  32.280  13.796  1.00  0.00     0.296 HD
ENDBRANCH  16  18
ENDBRANCH   9  16
BRANCH  12  20
ATOM     20  O   UNL     1      26.909  36.188  15.166  1.00  0.00    -0.391 OA
ATOM     21  H   UNL     1      26.802  36.549  14.251  1.00  0.00     0.211 HD
ENDBRANCH  12  20
BRANCH  13  22
ATOM     22  N   UNL     1      25.937  34.202  17.127  1.00  0.00    -0.348 N 
ATOM     23  C   UNL     1      25.614  34.929  18.292  1.00  0.00     0.217 C 
ATOM     24  H   UNL     1      25.198  33.630  16.697  1.00  0.00     0.163 HD
ATOM     25  C   UNL     1      24.251  34.887  18.906  1.00  0.00     0.114 C 
ATOM     26  O   UNL     1      26.463  35.668  18.895  1.00  0.00    -0.275 OA
ENDBRANCH  13  22
ENDBRANCH   7   8
BRANCH   7  27
ATOM     27  O   UNL     1      27.044  31.528  18.105  1.00  0.00    -0.388 OA
ATOM     28  H   UNL     1      26.243  32.065  18.062  1.00  0.00     0.211 HD
ENDBRANCH   7  27
ENDBRANCH   6   7
BRANCH   6  29
ATOM     29  O   UNL     1      29.566  30.357  16.854  1.00  0.00    -0.388 OA
ATOM     30  H   UNL     1      29.368  29.465  17.222  1.00  0.00     0.211 HD
ENDBRANCH   6  29
ENDBRANCH   5   6
ENDBRANCH   1   5
BRANCH   2  31
ATOM     31  O   UNL     1      27.749  28.022  20.534  1.00  0.00    -0.443 OA
BRANCH  31  32
ATOM     32  C   UNL     1      27.506  27.140  19.453  1.00  0.00     0.294 C 
BRANCH  32  33
ATOM     33  C   UNL     1      26.835  27.912  18.370  1.00  0.00     0.120 A 
ATOM     34  C   UNL     1      25.496  28.221  18.247  1.00  0.00     0.138 A 
ATOM     35  N   UNL     1      27.410  28.463  17.289  1.00  0.00    -0.132 NA
ATOM     36  N   UNL     1      25.310  28.930  17.124  1.00  0.00    -0.243 N 
ATOM     37  N   UNL     1      26.491  29.063  16.560  1.00  0.00    -0.067 NA
BRANCH  36  38
ATOM     38  C   UNL     1      24.010  29.442  16.662  1.00  0.00     0.245 C 
BRANCH  38  39
ATOM     39  C   UNL     1      24.283  30.714  15.953  1.00  0.00     0.242 C 
ATOM     40  O   UNL     1      24.363  31.785  16.641  1.00  0.00    -0.273 OA
ATOM     41  N   UNL     1      24.466  30.846  14.557  1.00  0.00    -0.350 N 
ATOM     42  H   UNL     1      24.401  29.976  13.999  1.00  0.00     0.163 HD
BRANCH  41  43
ATOM     43  C   UNL     1      24.733  32.109  13.908  1.00  0.00     0.162 C 
BRANCH  43  44
ATOM     44  C   UNL     1      23.424  32.559  13.290  1.00  0.00     0.024 A 
ATOM     45  C   UNL     1      22.298  31.881  13.100  1.00  0.00     0.017 A 
ATOM     46  S   UNL     1      23.088  34.137  12.658  1.00  0.00    -0.147 S 
ATOM     47  C   UNL     1      21.229  32.470  12.523  1.00  0.00     0.012 A 
ATOM     48  C   UNL     1      21.401  33.811  12.152  1.00  0.00     0.065 A 
ENDBRANCH  43  44
ENDBRANCH  41  43
ENDBRANCH  38  39
ENDBRANCH  36  38
ENDBRANCH  32  33
ENDBRANCH  31  32
ENDBRANCH   2  31
TORSDOF 18
BEGIN_RES LYS A 131
REMARK  4 active torsions:
REMARK  status: ('A' for Active; 'I' for Inactive)
REMARK    1  A    between atoms: CA   and  CB  
REMARK    2  A    between atoms: CB   and  CG  
REMARK    3  A    between atoms: CG   and  CD  
REMARK    4  A    between atoms: CD   and  CE  
ROOT
ATOM      1  CA  LYS A 131      29.867  25.555  16.977  1.00 20.52     0.186 C 
ENDROOT
BRANCH   1   2
ATOM      2  CB  LYS A 131      28.345  25.722  17.026  1.00 20.94     0.034 C 
BRANCH   2   3
ATOM      3  CG  LYS A 131      27.601  24.402  16.892  1.00 22.96     0.005 C 
BRANCH   3   4
ATOM      4  CD  LYS A 131      26.150  24.529  17.265  1.00 24.33     0.041 C 
BRANCH   4   5
ATOM      5  CE  LYS A 131      25.868  23.687  18.505  1.00 26.91     0.338 C 
ATOM      6  NZ  LYS A 131      24.424  23.720  18.837  1.00 27.40     0.618 N 
ENDBRANCH   4   5
ENDBRANCH   3   4
ENDBRANCH   2   3
ENDBRANCH   1   2
END_RES LYS A 131
BEGIN_RES LYS A 135
REMARK  4 active torsions:
REMARK  status: ('A' for Active; 'I' for Inactive)
REMARK    5  A    between atoms: CA   and  CB  
REMARK    6  A    between atoms: CB   and  CG  
REMARK    7  A    between atoms: CG   and  CD  
REMARK    8  A    between atoms: CD   and  CE  
ROOT
ATOM      7  CA  LYS A 135      33.193  34.663   9.290  1.00 25.02     0.186 C 
ENDROOT
BRANCH   7   8
ATOM      8  CB  LYS A 135      32.060  35.360  10.034  1.00 26.63     0.034 C 
BRANCH   8   9
ATOM      9  CG  LYS A 135      30.758  35.370   9.276  1.00 29.45     0.005 C 
BRANCH   9  10
ATOM     10  CD  LYS A 135      29.636  34.799  10.129  1.00 32.00     0.041 C 
BRANCH  10  11
ATOM     11  CE  LYS A 135      28.729  33.915   9.295  1.00 34.25     0.338 C 
ATOM     12  NZ  LYS A 135      28.000  34.711   8.269  1.00 35.99     0.618 N 
ENDBRANCH  10  11
ENDBRANCH   9  10
ENDBRANCH   8   9
ENDBRANCH   7   8
END_RES LYS A 135
