REMARK VINA RESULT:    -5.774      1.729      1.965
REMARK INTER + INTRA:         -15.849
REMARK INTER:                  -9.313
REMARK INTRA:                  -6.535
REMARK UNBOUND:                -5.012
REMARK SMILES CC(=O)N[C@@H]1[C@@H](O)C[C@](O)(C(=O)O)O[C@H]1C(O)[C@H](O)CNC(=O)OCc1cn(CC(O)c2ccccc2)nn1
REMARK SMILES IDX 21 1 22 2 23 3 20 5 18 6 16 7 15 8 9 9 8 10 14 11 6 12 5 13
REMARK SMILES IDX 10 14 11 16 12 17 13 18 7 20 4 22 2 23 1 25 3 26 17 27 19 29
REMARK SMILES IDX 24 31 25 32 26 33 27 34 39 35 28 36 38 37 29 38 30 39 31 40
REMARK SMILES IDX 32 42 33 43 37 44 34 45 36 46 35 47
REMARK H PARENT 21 4 10 15 13 19 7 21 4 24 17 28 19 30 31 41
REMARK Flexibility Score: inf
ROOT
ATOM      1  N   UNL     1      27.098  26.613  21.519  1.00  0.00    -0.319 N 
ATOM      2  C   UNL     1      25.972  27.377  21.125  1.00  0.00     0.407 C 
ATOM      3  O   UNL     1      25.663  28.386  21.798  1.00  0.00    -0.225 OA
ATOM      4  H   UNL     1      27.295  25.773  20.891  1.00  0.00     0.167 HD
ENDROOT
BRANCH   1   5
ATOM      5  C   UNL     1      27.938  26.903  22.658  1.00  0.00     0.154 C 
BRANCH   5   6
ATOM      6  C   UNL     1      29.358  27.236  22.252  1.00  0.00     0.165 C 
BRANCH   6   7
ATOM      7  C   UNL     1      29.519  28.748  22.087  1.00  0.00     0.176 C 
BRANCH   7   8
ATOM      8  C   UNL     1      30.737  29.308  22.772  1.00  0.00     0.178 C 
ATOM      9  C   UNL     1      30.921  31.194  21.398  1.00  0.00     0.269 C 
ATOM     10  C   UNL     1      31.547  30.337  20.372  1.00  0.00     0.112 C 
ATOM     11  O   UNL     1      30.702  30.698  22.638  1.00  0.00    -0.332 OA
ATOM     12  C   UNL     1      32.293  29.128  20.843  1.00  0.00     0.145 C 
ATOM     13  C   UNL     1      31.990  28.730  22.268  1.00  0.00     0.142 C 
BRANCH   9  14
ATOM     14  O   UNL     1      29.634  31.541  20.889  1.00  0.00    -0.357 OA
ATOM     15  H   UNL     1      29.007  30.936  21.343  1.00  0.00     0.214 HD
ENDBRANCH   9  14
BRANCH   9  16
ATOM     16  C   UNL     1      31.660  32.511  21.436  1.00  0.00     0.364 C 
ATOM     17  O   UNL     1      32.905  32.574  21.566  1.00  0.00    -0.246 OA
BRANCH  16  18
ATOM     18  O   UNL     1      30.951  33.703  21.324  1.00  0.00    -0.477 OA
ATOM     19  H   UNL     1      30.744  34.305  22.106  1.00  0.00     0.296 HD
ENDBRANCH  16  18
ENDBRANCH   9  16
BRANCH  12  20
ATOM     20  O   UNL     1      32.033  28.039  19.964  1.00  0.00    -0.391 OA
ATOM     21  H   UNL     1      32.764  27.404  20.086  1.00  0.00     0.211 HD
ENDBRANCH  12  20
BRANCH  13  22
ATOM     22  N   UNL     1      33.166  29.099  23.040  1.00  0.00    -0.348 N 
ATOM     23  C   UNL     1      34.078  28.164  23.588  1.00  0.00     0.217 C 
ATOM     24  H   UNL     1      33.308  30.123  23.175  1.00  0.00     0.163 HD
ATOM     25  C   UNL     1      35.269  28.573  24.372  1.00  0.00     0.114 C 
ATOM     26  O   UNL     1      33.820  26.952  23.370  1.00  0.00    -0.275 OA
ENDBRANCH  13  22
ENDBRANCH   7   8
BRANCH   7  27
ATOM     27  O   UNL     1      28.386  29.242  22.840  1.00  0.00    -0.388 OA
ATOM     28  H   UNL     1      27.550  29.015  22.405  1.00  0.00     0.211 HD
ENDBRANCH   7  27
ENDBRANCH   6   7
BRANCH   6  29
ATOM     29  O   UNL     1      29.676  26.528  21.117  1.00  0.00    -0.388 OA
ATOM     30  H   UNL     1      29.043  25.776  21.044  1.00  0.00     0.211 HD
ENDBRANCH   6  29
ENDBRANCH   5   6
ENDBRANCH   1   5
BRANCH   2  31
ATOM     31  O   UNL     1      25.190  27.060  20.024  1.00  0.00    -0.443 OA
BRANCH  31  32
ATOM     32  C   UNL     1      24.687  28.042  19.140  1.00  0.00     0.294 C 
BRANCH  32  33
ATOM     33  C   UNL     1      25.802  28.564  18.324  1.00  0.00     0.120 A 
ATOM     34  C   UNL     1      26.327  29.846  18.373  1.00  0.00     0.138 A 
ATOM     35  N   UNL     1      26.540  27.935  17.379  1.00  0.00    -0.132 NA
ATOM     36  N   UNL     1      27.332  29.954  17.486  1.00  0.00    -0.249 N 
ATOM     37  N   UNL     1      27.436  28.785  16.902  1.00  0.00    -0.067 NA
BRANCH  36  38
ATOM     38  C   UNL     1      28.132  31.164  17.252  1.00  0.00     0.182 C 
BRANCH  38  39
ATOM     39  C   UNL     1      29.435  30.768  16.601  1.00  0.00     0.166 C 
BRANCH  39  40
ATOM     40  O   UNL     1      29.133  30.402  15.270  1.00  0.00    -0.386 OA
ATOM     41  H   UNL     1      29.135  31.220  14.701  1.00  0.00     0.211 HD
ENDBRANCH  39  40
BRANCH  39  42
ATOM     42  C   UNL     1      30.344  31.930  16.553  1.00  0.00    -0.018 A 
ATOM     43  C   UNL     1      31.029  32.293  15.411  1.00  0.00     0.006 A 
ATOM     44  C   UNL     1      30.519  32.700  17.711  1.00  0.00     0.006 A 
ATOM     45  C   UNL     1      31.868  33.379  15.386  1.00  0.00     0.000 A 
ATOM     46  C   UNL     1      31.354  33.780  17.688  1.00  0.00     0.000 A 
ATOM     47  C   UNL     1      32.024  34.118  16.535  1.00  0.00     0.000 A 
ENDBRANCH  39  42
ENDBRANCH  38  39
ENDBRANCH  36  38
ENDBRANCH  32  33
ENDBRANCH  31  32
ENDBRANCH   2  31
TORSDOF 18
BEGIN_RES LYS A 131
REMARK  4 active torsions:
REMARK  status: ('A' for Active; 'I' for Inactive)
REMARK    1  A    between atoms: CA   and  CB  
REMARK    2  A    between atoms: CB   and  CG  
REMARK    3  A    between atoms: CG   and  CD  
REMARK    4  A    between atoms: CD   and  CE  
ROOT
ATOM      1  CA  LYS A 131      29.867  25.555  16.977  1.00 20.52     0.186 C 
ENDROOT
BRANCH   1   2
ATOM      2  CB  LYS A 131      28.345  25.722  17.026  1.00 20.94     0.034 C 
BRANCH   2   3
ATOM      3  CG  LYS A 131      27.602  24.398  16.934  1.00 22.96     0.005 C 
BRANCH   3   4
ATOM      4  CD  LYS A 131      26.509  24.290  17.961  1.00 24.33     0.041 C 
BRANCH   4   5
ATOM      5  CE  LYS A 131      25.209  23.878  17.279  1.00 26.91     0.338 C 
ATOM      6  NZ  LYS A 131      24.309  25.047  17.129  1.00 27.40     0.618 N 
ENDBRANCH   4   5
ENDBRANCH   3   4
ENDBRANCH   2   3
ENDBRANCH   1   2
END_RES LYS A 131
BEGIN_RES LYS A 135
REMARK  4 active torsions:
REMARK  status: ('A' for Active; 'I' for Inactive)
REMARK    5  A    between atoms: CA   and  CB  
REMARK    6  A    between atoms: CB   and  CG  
REMARK    7  A    between atoms: CG   and  CD  
REMARK    8  A    between atoms: CD   and  CE  
ROOT
ATOM      7  CA  LYS A 135      33.193  34.663   9.290  1.00 25.02     0.186 C 
ENDROOT
BRANCH   7   8
ATOM      8  CB  LYS A 135      32.060  35.360  10.034  1.00 26.63     0.034 C 
BRANCH   8   9
ATOM      9  CG  LYS A 135      30.754  34.611   9.981  1.00 29.45     0.005 C 
BRANCH   9  10
ATOM     10  CD  LYS A 135      30.420  34.215   8.551  1.00 32.00     0.041 C 
BRANCH  10  11
ATOM     11  CE  LYS A 135      29.008  34.641   8.196  1.00 34.25     0.338 C 
ATOM     12  NZ  LYS A 135      29.007  35.609   7.065  1.00 35.99     0.618 N 
ENDBRANCH  10  11
ENDBRANCH   9  10
ENDBRANCH   8   9
ENDBRANCH   7   8
END_RES LYS A 135
