REMARK VINA RESULT:    -4.582      7.906     13.189
REMARK INTER + INTRA:         -15.008
REMARK INTER:                  -9.072
REMARK INTRA:                  -5.937
REMARK UNBOUND:                -6.275
REMARK SMILES CC(=O)N[C@@H]1[C@@H](O)C[C@](O)(C(=O)O)O[C@H]1C(O)[C@H](O)CNC(=O)OCc1cn(Cc2ccccc2OC(C)=O)nn1
REMARK SMILES IDX 21 1 22 2 23 3 20 5 18 6 16 7 15 8 9 9 8 10 14 11 6 12 5 13
REMARK SMILES IDX 10 14 11 16 12 17 13 18 7 20 4 22 2 23 1 25 3 26 17 27 19 29
REMARK SMILES IDX 24 31 25 32 26 33 27 34 41 35 28 36 40 37 29 38 30 39 35 40
REMARK SMILES IDX 31 41 34 42 32 43 33 44 36 45 37 46 39 47 38 48
REMARK H PARENT 21 4 10 15 13 19 7 21 4 24 17 28 19 30
REMARK Flexibility Score: inf
ROOT
ATOM      1  N   UNL     1      26.315  30.926  18.423  1.00  0.00    -0.319 N 
ATOM      2  C   UNL     1      26.345  32.315  18.097  1.00  0.00     0.407 C 
ATOM      3  O   UNL     1      26.780  33.113  18.954  1.00  0.00    -0.225 OA
ATOM      4  H   UNL     1      25.951  30.272  17.704  1.00  0.00     0.167 HD
ENDROOT
BRANCH   1   5
ATOM      5  C   UNL     1      26.769  30.458  19.705  1.00  0.00     0.154 C 
BRANCH   5   6
ATOM      6  C   UNL     1      27.954  29.513  19.476  1.00  0.00     0.165 C 
BRANCH   6   7
ATOM      7  C   UNL     1      29.233  30.293  19.608  1.00  0.00     0.176 C 
BRANCH   7   8
ATOM      8  C   UNL     1      30.177  29.543  20.508  1.00  0.00     0.178 C 
ATOM      9  C   UNL     1      30.327  27.581  21.747  1.00  0.00     0.269 C 
ATOM     10  C   UNL     1      30.282  28.339  23.053  1.00  0.00     0.112 C 
ATOM     11  O   UNL     1      29.628  28.341  20.825  1.00  0.00    -0.332 OA
ATOM     12  C   UNL     1      31.009  29.628  22.875  1.00  0.00     0.145 C 
ATOM     13  C   UNL     1      30.589  30.398  21.653  1.00  0.00     0.142 C 
BRANCH   9  14
ATOM     14  O   UNL     1      29.555  26.419  21.961  1.00  0.00    -0.357 OA
ATOM     15  H   UNL     1      30.004  25.792  22.572  1.00  0.00     0.214 HD
ENDBRANCH   9  14
BRANCH   9  16
ATOM     16  C   UNL     1      31.692  27.216  21.319  1.00  0.00     0.364 C 
ATOM     17  O   UNL     1      32.647  27.018  22.108  1.00  0.00    -0.246 OA
BRANCH  16  18
ATOM     18  O   UNL     1      31.959  27.078  19.970  1.00  0.00    -0.477 OA
ATOM     19  H   UNL     1      31.305  26.663  19.301  1.00  0.00     0.296 HD
ENDBRANCH  16  18
ENDBRANCH   9  16
BRANCH  12  20
ATOM     20  O   UNL     1      30.777  30.397  24.037  1.00  0.00    -0.391 OA
ATOM     21  H   UNL     1      31.261  29.962  24.800  1.00  0.00     0.211 HD
ENDBRANCH  12  20
BRANCH  13  22
ATOM     22  N   UNL     1      31.706  31.224  21.236  1.00  0.00    -0.348 N 
ATOM     23  C   UNL     1      31.887  32.555  21.719  1.00  0.00     0.217 C 
ATOM     24  H   UNL     1      32.414  30.859  20.564  1.00  0.00     0.163 HD
ATOM     25  C   UNL     1      33.045  33.354  21.259  1.00  0.00     0.114 C 
ATOM     26  O   UNL     1      31.064  33.037  22.527  1.00  0.00    -0.275 OA
ENDBRANCH  13  22
ENDBRANCH   7   8
BRANCH   7  27
ATOM     27  O   UNL     1      29.006  31.580  20.112  1.00  0.00    -0.388 OA
ATOM     28  H   UNL     1      28.146  31.908  19.759  1.00  0.00     0.211 HD
ENDBRANCH   7  27
ENDBRANCH   6   7
BRANCH   6  29
ATOM     29  O   UNL     1      27.775  28.929  18.242  1.00  0.00    -0.388 OA
ATOM     30  H   UNL     1      28.373  28.172  18.067  1.00  0.00     0.211 HD
ENDBRANCH   6  29
ENDBRANCH   5   6
ENDBRANCH   1   5
BRANCH   2  31
ATOM     31  O   UNL     1      25.902  32.744  16.857  1.00  0.00    -0.443 OA
BRANCH  31  32
ATOM     32  C   UNL     1      26.231  32.061  15.670  1.00  0.00     0.294 C 
BRANCH  32  33
ATOM     33  C   UNL     1      27.655  31.695  15.710  1.00  0.00     0.120 A 
ATOM     34  C   UNL     1      28.739  32.542  15.463  1.00  0.00     0.138 A 
ATOM     35  N   UNL     1      28.214  30.489  15.985  1.00  0.00    -0.132 NA
ATOM     36  N   UNL     1      29.847  31.824  15.599  1.00  0.00    -0.248 N 
ATOM     37  N   UNL     1      29.527  30.582  15.915  1.00  0.00    -0.067 NA
BRANCH  36  38
ATOM     38  C   UNL     1      31.201  32.312  15.434  1.00  0.00     0.185 C 
BRANCH  38  39
ATOM     39  C   UNL     1      31.298  33.558  16.267  1.00  0.00     0.016 A 
ATOM     40  C   UNL     1      31.407  34.765  15.626  1.00  0.00     0.135 A 
ATOM     41  C   UNL     1      31.278  33.466  17.635  1.00  0.00     0.009 A 
ATOM     42  C   UNL     1      31.500  35.930  16.343  1.00  0.00     0.047 A 
ATOM     43  C   UNL     1      31.372  34.647  18.379  1.00  0.00     0.001 A 
ATOM     44  C   UNL     1      31.480  35.841  17.719  1.00  0.00     0.004 A 
BRANCH  40  45
ATOM     45  O   UNL     1      31.423  34.816  14.240  1.00  0.00    -0.426 OA
BRANCH  45  46
ATOM     46  C   UNL     1      32.594  35.260  13.627  1.00  0.00     0.308 C 
ATOM     47  O   UNL     1      32.528  36.130  12.728  1.00  0.00    -0.252 OA
ATOM     48  C   UNL     1      33.914  34.716  14.027  1.00  0.00     0.139 C 
ENDBRANCH  45  46
ENDBRANCH  40  45
ENDBRANCH  38  39
ENDBRANCH  36  38
ENDBRANCH  32  33
ENDBRANCH  31  32
ENDBRANCH   2  31
TORSDOF 18
BEGIN_RES LYS A 131
REMARK  4 active torsions:
REMARK  status: ('A' for Active; 'I' for Inactive)
REMARK    1  A    between atoms: CA   and  CB  
REMARK    2  A    between atoms: CB   and  CG  
REMARK    3  A    between atoms: CG   and  CD  
REMARK    4  A    between atoms: CD   and  CE  
ROOT
ATOM      1  CA  LYS A 131      29.867  25.555  16.977  1.00 20.52     0.186 C 
ENDROOT
BRANCH   1   2
ATOM      2  CB  LYS A 131      28.345  25.722  17.026  1.00 20.94     0.034 C 
BRANCH   2   3
ATOM      3  CG  LYS A 131      27.602  24.399  16.923  1.00 22.96     0.005 C 
BRANCH   3   4
ATOM      4  CD  LYS A 131      26.433  24.331  17.866  1.00 24.33     0.041 C 
BRANCH   4   5
ATOM      5  CE  LYS A 131      26.330  25.638  18.644  1.00 26.91     0.338 C 
ATOM      6  NZ  LYS A 131      25.020  26.287  18.399  1.00 27.40     0.618 N 
ENDBRANCH   4   5
ENDBRANCH   3   4
ENDBRANCH   2   3
ENDBRANCH   1   2
END_RES LYS A 131
BEGIN_RES LYS A 135
REMARK  4 active torsions:
REMARK  status: ('A' for Active; 'I' for Inactive)
REMARK    5  A    between atoms: CA   and  CB  
REMARK    6  A    between atoms: CB   and  CG  
REMARK    7  A    between atoms: CG   and  CD  
REMARK    8  A    between atoms: CD   and  CE  
ROOT
ATOM      7  CA  LYS A 135      33.193  34.663   9.290  1.00 25.02     0.186 C 
ENDROOT
BRANCH   7   8
ATOM      8  CB  LYS A 135      32.060  35.360  10.034  1.00 26.63     0.034 C 
BRANCH   8   9
ATOM      9  CG  LYS A 135      30.820  35.553   9.200  1.00 29.45     0.005 C 
BRANCH   9  10
ATOM     10  CD  LYS A 135      29.579  35.150   9.981  1.00 32.00     0.041 C 
BRANCH  10  11
ATOM     11  CE  LYS A 135      28.984  33.874   9.416  1.00 34.25     0.338 C 
ATOM     12  NZ  LYS A 135      27.496  33.929   9.421  1.00 35.99     0.618 N 
ENDBRANCH  10  11
ENDBRANCH   9  10
ENDBRANCH   8   9
ENDBRANCH   7   8
END_RES LYS A 135
