REMARK VINA RESULT:    -4.543      5.277      9.851
REMARK INTER + INTRA:         -14.423
REMARK INTER:                  -8.446
REMARK INTRA:                  -5.977
REMARK UNBOUND:                -6.295
REMARK SMILES CC(=O)N[C@@H]1[C@@H](O)C[C@](O)(C(=O)O)O[C@H]1C(O)[C@H](O)CNC(=O)OCc1cn(Cc2cccc(Br)c2)nn1
REMARK SMILES IDX 21 1 22 2 23 3 20 5 18 6 16 7 15 8 9 9 8 10 14 11 6 12 5 13
REMARK SMILES IDX 10 14 11 16 12 17 13 18 7 20 4 22 2 23 1 25 3 26 17 27 19 29
REMARK SMILES IDX 24 31 25 32 26 33 27 34 38 35 28 36 37 37 29 38 30 39 31 40
REMARK SMILES IDX 36 41 32 42 34 43 33 44 35 45
REMARK H PARENT 21 4 10 15 13 19 7 21 4 24 17 28 19 30
REMARK Flexibility Score: inf
ROOT
ATOM      1  N   UNL     1      28.743  27.023  19.800  1.00  0.00    -0.319 N 
ATOM      2  C   UNL     1      29.342  27.314  21.048  1.00  0.00     0.407 C 
ATOM      3  O   UNL     1      28.721  28.003  21.922  1.00  0.00    -0.225 OA
ATOM      4  H   UNL     1      29.286  26.456  19.115  1.00  0.00     0.167 HD
ENDROOT
BRANCH   1   5
ATOM      5  C   UNL     1      27.419  27.535  19.569  1.00  0.00     0.154 C 
BRANCH   5   6
ATOM      6  C   UNL     1      27.375  28.418  18.314  1.00  0.00     0.165 C 
BRANCH   6   7
ATOM      7  C   UNL     1      27.751  29.784  18.769  1.00  0.00     0.176 C 
BRANCH   7   8
ATOM      8  C   UNL     1      27.333  30.919  17.880  1.00  0.00     0.178 C 
ATOM      9  C   UNL     1      25.368  32.122  17.498  1.00  0.00     0.269 C 
ATOM     10  C   UNL     1      25.843  32.313  16.070  1.00  0.00     0.112 C 
ATOM     11  O   UNL     1      25.944  30.995  18.031  1.00  0.00    -0.332 OA
ATOM     12  C   UNL     1      26.561  31.071  15.567  1.00  0.00     0.145 C 
ATOM     13  C   UNL     1      27.788  30.858  16.473  1.00  0.00     0.142 C 
BRANCH   9  14
ATOM     14  O   UNL     1      23.992  31.825  17.393  1.00  0.00    -0.357 OA
ATOM     15  H   UNL     1      23.625  32.087  16.527  1.00  0.00     0.214 HD
ENDBRANCH   9  14
BRANCH   9  16
ATOM     16  C   UNL     1      25.497  33.338  18.304  1.00  0.00     0.364 C 
ATOM     17  O   UNL     1      24.917  33.426  19.411  1.00  0.00    -0.246 OA
BRANCH  16  18
ATOM     18  O   UNL     1      26.246  34.435  17.902  1.00  0.00    -0.477 OA
ATOM     19  H   UNL     1      25.841  35.103  17.276  1.00  0.00     0.296 HD
ENDBRANCH  16  18
ENDBRANCH   9  16
BRANCH  12  20
ATOM     20  O   UNL     1      25.732  29.979  15.550  1.00  0.00    -0.391 OA
ATOM     21  H   UNL     1      25.131  30.019  16.359  1.00  0.00     0.211 HD
ENDBRANCH  12  20
BRANCH  13  22
ATOM     22  N   UNL     1      28.670  31.984  16.140  1.00  0.00    -0.348 N 
ATOM     23  C   UNL     1      30.084  31.854  16.177  1.00  0.00     0.217 C 
ATOM     24  H   UNL     1      28.303  32.921  15.866  1.00  0.00     0.163 HD
ATOM     25  C   UNL     1      30.970  33.025  15.833  1.00  0.00     0.114 C 
ATOM     26  O   UNL     1      30.636  30.787  16.489  1.00  0.00    -0.275 OA
ENDBRANCH  13  22
ENDBRANCH   7   8
BRANCH   7  27
ATOM     27  O   UNL     1      29.171  29.817  18.753  1.00  0.00    -0.388 OA
ATOM     28  H   UNL     1      29.414  30.444  19.492  1.00  0.00     0.211 HD
ENDBRANCH   7  27
ENDBRANCH   6   7
BRANCH   6  29
ATOM     29  O   UNL     1      26.076  28.311  17.825  1.00  0.00    -0.388 OA
ATOM     30  H   UNL     1      25.623  27.584  18.305  1.00  0.00     0.211 HD
ENDBRANCH   6  29
ENDBRANCH   5   6
ENDBRANCH   1   5
BRANCH   2  31
ATOM     31  O   UNL     1      30.612  26.882  21.400  1.00  0.00    -0.443 OA
BRANCH  31  32
ATOM     32  C   UNL     1      31.797  27.335  20.770  1.00  0.00     0.294 C 
BRANCH  32  33
ATOM     33  C   UNL     1      32.108  28.740  21.148  1.00  0.00     0.120 A 
ATOM     34  C   UNL     1      33.018  29.149  22.129  1.00  0.00     0.138 A 
ATOM     35  N   UNL     1      31.604  29.883  20.649  1.00  0.00    -0.132 NA
ATOM     36  N   UNL     1      33.020  30.485  22.174  1.00  0.00    -0.248 N 
ATOM     37  N   UNL     1      32.157  30.906  21.269  1.00  0.00    -0.067 NA
BRANCH  36  38
ATOM     38  C   UNL     1      33.794  31.358  23.028  1.00  0.00     0.181 C 
BRANCH  38  39
ATOM     39  C   UNL     1      35.207  31.401  22.570  1.00  0.00    -0.025 A 
ATOM     40  C   UNL     1      35.600  32.239  21.549  1.00  0.00     0.006 A 
ATOM     41  C   UNL     1      36.145  30.602  23.162  1.00  0.00     0.021 A 
ATOM     42  C   UNL     1      36.928  32.281  21.116  1.00  0.00     0.002 A 
ATOM     43  C   UNL     1      37.473  30.635  22.739  1.00  0.00     0.018 A 
ATOM     44  C   UNL     1      37.862  31.479  21.712  1.00  0.00     0.016 A 
ATOM     45  Br  UNL     1      38.747  29.510  23.585  1.00  0.00    -0.051 Br
ENDBRANCH  38  39
ENDBRANCH  36  38
ENDBRANCH  32  33
ENDBRANCH  31  32
ENDBRANCH   2  31
TORSDOF 16
BEGIN_RES LYS A 131
REMARK  4 active torsions:
REMARK  status: ('A' for Active; 'I' for Inactive)
REMARK    1  A    between atoms: CA   and  CB  
REMARK    2  A    between atoms: CB   and  CG  
REMARK    3  A    between atoms: CG   and  CD  
REMARK    4  A    between atoms: CD   and  CE  
ROOT
ATOM      1  CA  LYS A 131      29.867  25.555  16.977  1.00 20.52     0.186 C 
ENDROOT
BRANCH   1   2
ATOM      2  CB  LYS A 131      28.345  25.722  17.026  1.00 20.94     0.034 C 
BRANCH   2   3
ATOM      3  CG  LYS A 131      27.600  24.408  16.844  1.00 22.96     0.005 C 
BRANCH   3   4
ATOM      4  CD  LYS A 131      26.905  23.972  18.103  1.00 24.33     0.041 C 
BRANCH   4   5
ATOM      5  CE  LYS A 131      25.521  24.610  18.167  1.00 26.91     0.338 C 
ATOM      6  NZ  LYS A 131      24.826  24.473  16.866  1.00 27.40     0.618 N 
ENDBRANCH   4   5
ENDBRANCH   3   4
ENDBRANCH   2   3
ENDBRANCH   1   2
END_RES LYS A 131
BEGIN_RES LYS A 135
REMARK  4 active torsions:
REMARK  status: ('A' for Active; 'I' for Inactive)
REMARK    5  A    between atoms: CA   and  CB  
REMARK    6  A    between atoms: CB   and  CG  
REMARK    7  A    between atoms: CG   and  CD  
REMARK    8  A    between atoms: CD   and  CE  
ROOT
ATOM      7  CA  LYS A 135      33.193  34.663   9.290  1.00 25.02     0.186 C 
ENDROOT
BRANCH   7   8
ATOM      8  CB  LYS A 135      32.060  35.360  10.034  1.00 26.63     0.034 C 
BRANCH   8   9
ATOM      9  CG  LYS A 135      30.701  34.775   9.747  1.00 29.45     0.005 C 
BRANCH   9  10
ATOM     10  CD  LYS A 135      30.469  34.667   8.248  1.00 32.00     0.041 C 
BRANCH  10  11
ATOM     11  CE  LYS A 135      29.006  34.894   7.919  1.00 34.25     0.338 C 
ATOM     12  NZ  LYS A 135      28.853  35.599   6.616  1.00 35.99     0.618 N 
ENDBRANCH  10  11
ENDBRANCH   9  10
ENDBRANCH   8   9
ENDBRANCH   7   8
END_RES LYS A 135
