REMARK VINA RESULT:    -5.364      1.846      3.418
REMARK INTER + INTRA:         -16.658
REMARK INTER:                  -9.912
REMARK INTRA:                  -6.745
REMARK UNBOUND:                -6.121
REMARK SMILES CC(=O)N[C@@H]1[C@@H](O)C[C@](O)(C(=O)O)O[C@H]1C(O)[C@H](O)CNC(=O)OCc1cn(C[C@@H](C)CN2CCN(c3ccc(Cl)cc3)CC2)nn1
REMARK SMILES IDX 24 1 22 2 21 3 23 5 20 6 18 7 16 8 15 9 9 10 8 11 14 12 6 13
REMARK SMILES IDX 5 14 10 15 11 17 12 18 13 19 7 21 4 23 2 24 1 26 3 27 17 28
REMARK SMILES IDX 19 30 25 32 26 33 27 34 47 35 28 36 46 37 29 38 30 39 31 40
REMARK SMILES IDX 32 41 33 42 34 43 45 44 35 45 44 46 36 47 37 48 38 49 43 50
REMARK SMILES IDX 39 51 42 52 40 53 41 54
REMARK H PARENT 21 4 10 16 13 20 7 22 4 25 17 29 19 31
REMARK Flexibility Score: inf
ROOT
ATOM      1  O   UNL     1      19.899  34.240  10.746  1.00  0.00    -0.443 OA
ENDROOT
BRANCH   1   2
ATOM      2  C   UNL     1      20.241  35.238   9.848  1.00  0.00     0.407 C 
ATOM      3  N   UNL     1      21.424  35.232   9.058  1.00  0.00    -0.319 N 
ATOM      4  H   UNL     1      22.061  34.423   9.186  1.00  0.00     0.167 HD
ATOM      5  O   UNL     1      19.424  36.195   9.751  1.00  0.00    -0.225 OA
BRANCH   3   6
ATOM      6  C   UNL     1      21.618  36.332   8.172  1.00  0.00     0.154 C 
BRANCH   6   7
ATOM      7  C   UNL     1      22.966  36.932   8.143  1.00  0.00     0.165 C 
BRANCH   7   8
ATOM      8  C   UNL     1      23.835  36.651   9.356  1.00  0.00     0.176 C 
BRANCH   8   9
ATOM      9  C   UNL     1      25.107  37.462   9.099  1.00  0.00     0.178 C 
ATOM     10  C   UNL     1      26.550  37.914   7.322  1.00  0.00     0.269 C 
ATOM     11  C   UNL     1      27.724  37.826   8.255  1.00  0.00     0.112 C 
ATOM     12  O   UNL     1      25.422  37.290   7.779  1.00  0.00    -0.332 OA
ATOM     13  C   UNL     1      27.387  37.941   9.697  1.00  0.00     0.145 C 
ATOM     14  C   UNL     1      26.215  36.973   9.971  1.00  0.00     0.142 C 
BRANCH  10  15
ATOM     15  O   UNL     1      26.956  37.204   6.162  1.00  0.00    -0.357 OA
ATOM     16  H   UNL     1      27.884  36.915   6.232  1.00  0.00     0.214 HD
ENDBRANCH  10  15
BRANCH  10  17
ATOM     17  C   UNL     1      26.274  39.309   6.867  1.00  0.00     0.364 C 
ATOM     18  O   UNL     1      26.124  40.231   7.709  1.00  0.00    -0.246 OA
BRANCH  17  19
ATOM     19  O   UNL     1      26.169  39.659   5.529  1.00  0.00    -0.477 OA
ATOM     20  H   UNL     1      26.947  39.960   4.953  1.00  0.00     0.296 HD
ENDBRANCH  17  19
ENDBRANCH  10  17
BRANCH  13  21
ATOM     21  O   UNL     1      28.483  37.517  10.449  1.00  0.00    -0.391 OA
ATOM     22  H   UNL     1      28.213  37.328  11.387  1.00  0.00     0.211 HD
ENDBRANCH  13  21
BRANCH  14  23
ATOM     23  N   UNL     1      25.885  36.986  11.371  1.00  0.00    -0.348 N 
ATOM     24  C   UNL     1      26.449  36.051  12.268  1.00  0.00     0.217 C 
ATOM     25  H   UNL     1      25.220  37.694  11.725  1.00  0.00     0.163 HD
ATOM     26  C   UNL     1      26.036  36.154  13.699  1.00  0.00     0.114 C 
ATOM     27  O   UNL     1      27.260  35.169  11.919  1.00  0.00    -0.275 OA
ENDBRANCH  14  23
ENDBRANCH   8   9
BRANCH   8  28
ATOM     28  O   UNL     1      23.171  37.118  10.501  1.00  0.00    -0.388 OA
ATOM     29  H   UNL     1      22.851  36.311  10.980  1.00  0.00     0.211 HD
ENDBRANCH   8  28
ENDBRANCH   7   8
BRANCH   7  30
ATOM     30  O   UNL     1      22.782  38.343   8.186  1.00  0.00    -0.388 OA
ATOM     31  H   UNL     1      21.803  38.452   8.355  1.00  0.00     0.211 HD
ENDBRANCH   7  30
ENDBRANCH   6   7
ENDBRANCH   3   6
ENDBRANCH   1   2
BRANCH   1  32
ATOM     32  C   UNL     1      20.279  34.328  12.110  1.00  0.00     0.294 C 
BRANCH  32  33
ATOM     33  C   UNL     1      21.674  33.865  12.290  1.00  0.00     0.120 A 
ATOM     34  C   UNL     1      22.020  32.573  12.692  1.00  0.00     0.138 A 
ATOM     35  N   UNL     1      22.851  34.482  12.122  1.00  0.00    -0.132 NA
ATOM     36  N   UNL     1      23.353  32.445  12.754  1.00  0.00    -0.252 N 
ATOM     37  N   UNL     1      23.843  33.653  12.395  1.00  0.00    -0.067 NA
BRANCH  36  38
ATOM     38  C   UNL     1      24.158  31.288  13.100  1.00  0.00     0.150 C 
BRANCH  38  39
ATOM     39  C   UNL     1      23.478  30.523  14.242  1.00  0.00     0.022 C 
ATOM     40  C   UNL     1      23.230  29.104  13.890  1.00  0.00     0.011 C 
BRANCH  39  41
ATOM     41  C   UNL     1      24.067  30.853  15.550  1.00  0.00     0.089 C 
BRANCH  41  42
ATOM     42  N   UNL     1      25.390  31.388  15.469  1.00  0.00    -0.299 NA
ATOM     43  C   UNL     1      25.447  32.696  16.176  1.00  0.00     0.106 C 
ATOM     44  C   UNL     1      26.309  30.552  16.235  1.00  0.00     0.106 C 
ATOM     45  C   UNL     1      26.840  33.212  16.256  1.00  0.00     0.132 C 
ATOM     46  C   UNL     1      27.696  30.909  15.680  1.00  0.00     0.132 C 
ATOM     47  N   UNL     1      27.873  32.327  15.816  1.00  0.00    -0.369 N 
BRANCH  47  48
ATOM     48  C   UNL     1      29.152  32.863  15.496  1.00  0.00     0.037 A 
ATOM     49  C   UNL     1      30.284  32.149  15.821  1.00  0.00     0.027 A 
ATOM     50  C   UNL     1      29.273  34.096  14.872  1.00  0.00     0.027 A 
ATOM     51  C   UNL     1      31.518  32.677  15.517  1.00  0.00     0.022 A 
ATOM     52  C   UNL     1      30.508  34.612  14.576  1.00  0.00     0.022 A 
ATOM     53  C   UNL     1      31.642  33.887  14.905  1.00  0.00     0.041 A 
ATOM     54  Cl  UNL     1      33.205  34.561  14.528  1.00  0.00    -0.084 Cl
ENDBRANCH  47  48
ENDBRANCH  41  42
ENDBRANCH  39  41
ENDBRANCH  38  39
ENDBRANCH  36  38
ENDBRANCH  32  33
ENDBRANCH   1  32
TORSDOF 19
BEGIN_RES LYS A 131
REMARK  4 active torsions:
REMARK  status: ('A' for Active; 'I' for Inactive)
REMARK    1  A    between atoms: CA   and  CB  
REMARK    2  A    between atoms: CB   and  CG  
REMARK    3  A    between atoms: CG   and  CD  
REMARK    4  A    between atoms: CD   and  CE  
ROOT
ATOM      1  CA  LYS A 131      29.867  25.555  16.977  1.00 20.52     0.186 C 
ENDROOT
BRANCH   1   2
ATOM      2  CB  LYS A 131      28.345  25.722  17.026  1.00 20.94     0.034 C 
BRANCH   2   3
ATOM      3  CG  LYS A 131      27.599  24.424  16.759  1.00 22.96     0.005 C 
BRANCH   3   4
ATOM      4  CD  LYS A 131      26.797  23.976  17.949  1.00 24.33     0.041 C 
BRANCH   4   5
ATOM      5  CE  LYS A 131      25.338  23.798  17.542  1.00 26.91     0.338 C 
ATOM      6  NZ  LYS A 131      24.968  22.363  17.550  1.00 27.40     0.618 N 
ENDBRANCH   4   5
ENDBRANCH   3   4
ENDBRANCH   2   3
ENDBRANCH   1   2
END_RES LYS A 131
BEGIN_RES LYS A 135
REMARK  4 active torsions:
REMARK  status: ('A' for Active; 'I' for Inactive)
REMARK    5  A    between atoms: CA   and  CB  
REMARK    6  A    between atoms: CB   and  CG  
REMARK    7  A    between atoms: CG   and  CD  
REMARK    8  A    between atoms: CD   and  CE  
ROOT
ATOM      7  CA  LYS A 135      33.193  34.663   9.290  1.00 25.02     0.186 C 
ENDROOT
BRANCH   7   8
ATOM      8  CB  LYS A 135      32.060  35.360  10.034  1.00 26.63     0.034 C 
BRANCH   8   9
ATOM      9  CG  LYS A 135      30.725  34.681   9.871  1.00 29.45     0.005 C 
BRANCH   9  10
ATOM     10  CD  LYS A 135      30.366  34.550   8.399  1.00 32.00     0.041 C 
BRANCH  10  11
ATOM     11  CE  LYS A 135      28.860  34.551   8.215  1.00 34.25     0.338 C 
ATOM     12  NZ  LYS A 135      28.189  33.765   9.288  1.00 35.99     0.618 N 
ENDBRANCH  10  11
ENDBRANCH   9  10
ENDBRANCH   8   9
ENDBRANCH   7   8
END_RES LYS A 135
