REMARK VINA RESULT:    -4.300      6.997     12.338
REMARK INTER + INTRA:         -13.938
REMARK INTER:                  -7.758
REMARK INTRA:                  -6.180
REMARK UNBOUND:                -5.994
REMARK SMILES CC(=O)N[C@@H]1[C@@H](O)C[C@](O)(C(=O)O)O[C@H]1C(O)[C@H](O)CNC(=O)OCc1cn(CCN2CCCC2)nn1
REMARK SMILES IDX 21 1 22 2 23 3 20 5 18 6 16 7 15 8 9 9 8 10 14 11 6 12 5 13
REMARK SMILES IDX 10 14 11 16 12 17 13 18 7 20 4 22 2 23 1 25 3 26 17 27 19 29
REMARK SMILES IDX 24 31 25 32 26 33 27 34 37 35 28 36 36 37 29 38 30 39 31 40
REMARK SMILES IDX 32 41 35 42 33 43 34 44
REMARK H PARENT 21 4 10 15 13 19 7 21 4 24 17 28 19 30
REMARK Flexibility Score: inf
ROOT
ATOM      1  N   UNL     1      27.800  28.684  18.082  1.00  0.00    -0.319 N 
ATOM      2  C   UNL     1      27.334  29.475  17.017  1.00  0.00     0.407 C 
ATOM      3  O   UNL     1      26.238  29.243  16.491  1.00  0.00    -0.225 OA
ATOM      4  H   UNL     1      28.768  28.971  18.453  1.00  0.00     0.167 HD
ENDROOT
BRANCH   1   5
ATOM      5  C   UNL     1      27.127  27.579  18.689  1.00  0.00     0.154 C 
BRANCH   5   6
ATOM      6  C   UNL     1      27.388  27.536  20.166  1.00  0.00     0.165 C 
BRANCH   6   7
ATOM      7  C   UNL     1      28.877  27.673  20.473  1.00  0.00     0.176 C 
BRANCH   7   8
ATOM      8  C   UNL     1      29.057  29.053  21.130  1.00  0.00     0.178 C 
ATOM      9  C   UNL     1      30.320  30.573  19.867  1.00  0.00     0.269 C 
ATOM     10  C   UNL     1      31.529  29.811  20.372  1.00  0.00     0.112 C 
ATOM     11  O   UNL     1      29.120  30.023  20.191  1.00  0.00    -0.332 OA
ATOM     12  C   UNL     1      31.424  29.583  21.840  1.00  0.00     0.145 C 
ATOM     13  C   UNL     1      30.084  29.031  22.203  1.00  0.00     0.142 C 
BRANCH   9  14
ATOM     14  O   UNL     1      30.417  30.494  18.456  1.00  0.00    -0.357 OA
ATOM     15  H   UNL     1      29.666  29.913  18.126  1.00  0.00     0.214 HD
ENDBRANCH   9  14
BRANCH   9  16
ATOM     16  C   UNL     1      30.404  32.011  20.215  1.00  0.00     0.364 C 
ATOM     17  O   UNL     1      31.499  32.606  20.119  1.00  0.00    -0.246 OA
BRANCH  16  18
ATOM     18  O   UNL     1      29.290  32.705  20.646  1.00  0.00    -0.477 OA
ATOM     19  H   UNL     1      28.533  32.193  21.075  1.00  0.00     0.296 HD
ENDBRANCH  16  18
ENDBRANCH   9  16
BRANCH  12  20
ATOM     20  O   UNL     1      32.444  28.716  22.216  1.00  0.00    -0.391 OA
ATOM     21  H   UNL     1      32.165  27.772  22.069  1.00  0.00     0.211 HD
ENDBRANCH  12  20
BRANCH  13  22
ATOM     22  N   UNL     1      29.574  29.614  23.443  1.00  0.00    -0.348 N 
ATOM     23  C   UNL     1      28.929  28.856  24.426  1.00  0.00     0.217 C 
ATOM     24  H   UNL     1      29.712  30.635  23.565  1.00  0.00     0.163 HD
ATOM     25  C   UNL     1      28.442  29.532  25.656  1.00  0.00     0.114 C 
ATOM     26  O   UNL     1      28.761  27.603  24.269  1.00  0.00    -0.275 OA
ENDBRANCH  13  22
ENDBRANCH   7   8
BRANCH   7  27
ATOM     27  O   UNL     1      29.214  26.668  21.373  1.00  0.00    -0.388 OA
ATOM     28  H   UNL     1      30.055  26.221  21.180  1.00  0.00     0.211 HD
ENDBRANCH   7  27
ENDBRANCH   6   7
BRANCH   6  29
ATOM     29  O   UNL     1      26.839  26.455  20.819  1.00  0.00    -0.388 OA
ATOM     30  H   UNL     1      26.732  26.565  21.793  1.00  0.00     0.211 HD
ENDBRANCH   6  29
ENDBRANCH   5   6
ENDBRANCH   1   5
BRANCH   2  31
ATOM     31  O   UNL     1      28.069  30.547  16.501  1.00  0.00    -0.443 OA
BRANCH  31  32
ATOM     32  C   UNL     1      27.487  31.829  16.387  1.00  0.00     0.294 C 
BRANCH  32  33
ATOM     33  C   UNL     1      28.348  32.894  16.959  1.00  0.00     0.120 A 
ATOM     34  C   UNL     1      29.632  33.254  16.544  1.00  0.00     0.138 A 
ATOM     35  N   UNL     1      28.088  33.728  17.982  1.00  0.00    -0.132 NA
ATOM     36  N   UNL     1      30.099  34.262  17.301  1.00  0.00    -0.251 N 
ATOM     37  N   UNL     1      29.113  34.521  18.174  1.00  0.00    -0.067 NA
BRANCH  36  38
ATOM     38  C   UNL     1      31.375  34.943  17.231  1.00  0.00     0.161 C 
BRANCH  38  39
ATOM     39  C   UNL     1      32.199  34.519  16.062  1.00  0.00     0.108 C 
BRANCH  39  40
ATOM     40  N   UNL     1      32.541  35.584  15.152  1.00  0.00    -0.301 NA
ATOM     41  C   UNL     1      33.266  35.003  14.035  1.00  0.00     0.084 C 
ATOM     42  C   UNL     1      31.366  36.210  14.576  1.00  0.00     0.084 C 
ATOM     43  C   UNL     1      32.743  35.619  12.778  1.00  0.00     0.017 C 
ATOM     44  C   UNL     1      31.929  36.787  13.293  1.00  0.00     0.017 C 
ENDBRANCH  39  40
ENDBRANCH  38  39
ENDBRANCH  36  38
ENDBRANCH  32  33
ENDBRANCH  31  32
ENDBRANCH   2  31
TORSDOF 17
BEGIN_RES LYS A 131
REMARK  4 active torsions:
REMARK  status: ('A' for Active; 'I' for Inactive)
REMARK    1  A    between atoms: CA   and  CB  
REMARK    2  A    between atoms: CB   and  CG  
REMARK    3  A    between atoms: CG   and  CD  
REMARK    4  A    between atoms: CD   and  CE  
ROOT
ATOM      1  CA  LYS A 131      29.867  25.555  16.977  1.00 20.52     0.186 C 
ENDROOT
BRANCH   1   2
ATOM      2  CB  LYS A 131      28.345  25.722  17.026  1.00 20.94     0.034 C 
BRANCH   2   3
ATOM      3  CG  LYS A 131      27.599  24.434  16.715  1.00 22.96     0.005 C 
BRANCH   3   4
ATOM      4  CD  LYS A 131      26.198  24.444  17.262  1.00 24.33     0.041 C 
BRANCH   4   5
ATOM      5  CE  LYS A 131      26.152  23.640  18.557  1.00 26.91     0.338 C 
ATOM      6  NZ  LYS A 131      24.954  24.003  19.350  1.00 27.40     0.618 N 
ENDBRANCH   4   5
ENDBRANCH   3   4
ENDBRANCH   2   3
ENDBRANCH   1   2
END_RES LYS A 131
BEGIN_RES LYS A 135
REMARK  4 active torsions:
REMARK  status: ('A' for Active; 'I' for Inactive)
REMARK    5  A    between atoms: CA   and  CB  
REMARK    6  A    between atoms: CB   and  CG  
REMARK    7  A    between atoms: CG   and  CD  
REMARK    8  A    between atoms: CD   and  CE  
ROOT
ATOM      7  CA  LYS A 135      33.193  34.663   9.290  1.00 25.02     0.186 C 
ENDROOT
BRANCH   7   8
ATOM      8  CB  LYS A 135      32.060  35.360  10.034  1.00 26.63     0.034 C 
BRANCH   8   9
ATOM      9  CG  LYS A 135      30.802  35.504   9.217  1.00 29.45     0.005 C 
BRANCH   9  10
ATOM     10  CD  LYS A 135      29.989  34.219   9.251  1.00 32.00     0.041 C 
BRANCH  10  11
ATOM     11  CE  LYS A 135      28.747  34.397  10.103  1.00 34.25     0.338 C 
ATOM     12  NZ  LYS A 135      27.564  33.752   9.467  1.00 35.99     0.618 N 
ENDBRANCH  10  11
ENDBRANCH   9  10
ENDBRANCH   8   9
ENDBRANCH   7   8
END_RES LYS A 135
