REMARK VINA RESULT:    -7.770      3.765      5.996
REMARK INTER + INTRA:         -13.141
REMARK INTER:                  -8.187
REMARK INTRA:                  -4.954
REMARK UNBOUND:                 3.032
REMARK SMILES CC(=O)N[C@@H]1[C@@H](O)C[C@](O)(C(=O)O)O[C@H]1C(O)[C@H](O)CNC(=O)OCc1cn(C2CC(O)C=C[C@@H](O)C2)nn1
REMARK SMILES IDX 21 1 22 2 23 3 20 5 18 6 16 7 15 8 9 9 8 10 14 11 6 12 5 13
REMARK SMILES IDX 10 14 11 16 12 17 13 18 7 20 4 22 2 23 1 25 3 26 17 27 19 29
REMARK SMILES IDX 24 31 25 32 26 33 27 34 39 35 28 36 38 37 29 38 30 39 31 40
REMARK SMILES IDX 32 42 37 44 35 45 34 46 33 47 36 49
REMARK H PARENT 21 4 10 15 13 19 7 21 4 24 17 28 19 30 32 43 36 50
REMARK Flexibility Score: 90.00
ROOT
ATOM      1  N   UNL     1      25.649  35.645  13.214  1.00  0.00    -0.319 N 
ATOM      2  C   UNL     1      24.591  35.055  12.461  1.00  0.00     0.407 C 
ATOM      3  O   UNL     1      24.316  33.828  12.517  1.00  0.00    -0.225 OA
ATOM      4  H   UNL     1      25.855  36.665  13.147  1.00  0.00     0.167 HD
ENDROOT
BRANCH   1   5
ATOM      5  C   UNL     1      26.411  34.736  14.071  1.00  0.00     0.154 C 
BRANCH   5   6
ATOM      6  C   UNL     1      27.819  35.296  14.150  1.00  0.00     0.165 C 
BRANCH   6   7
ATOM      7  C   UNL     1      28.669  34.904  12.963  1.00  0.00     0.176 C 
BRANCH   7   8
ATOM      8  C   UNL     1      29.964  35.652  12.915  1.00  0.00     0.178 C 
ATOM      9  C   UNL     1      31.988  36.088  13.869  1.00  0.00     0.269 C 
ATOM     10  C   UNL     1      32.133  36.864  12.578  1.00  0.00     0.112 C 
ATOM     11  O   UNL     1      30.874  35.258  13.859  1.00  0.00    -0.332 OA
ATOM     12  C   UNL     1      30.945  37.773  12.331  1.00  0.00     0.145 C 
ATOM     13  C   UNL     1      29.773  37.149  13.032  1.00  0.00     0.142 C 
BRANCH   9  14
ATOM     14  O   UNL     1      32.000  36.933  14.973  1.00  0.00    -0.357 OA
ATOM     15  H   UNL     1      32.333  37.841  14.742  1.00  0.00     0.214 HD
ENDBRANCH   9  14
BRANCH   9  16
ATOM     16  C   UNL     1      33.175  35.204  13.967  1.00  0.00     0.364 C 
ATOM     17  O   UNL     1      33.692  34.882  15.071  1.00  0.00    -0.246 OA
BRANCH  16  18
ATOM     18  O   UNL     1      33.743  34.711  12.813  1.00  0.00    -0.477 OA
ATOM     19  H   UNL     1      33.219  34.341  12.026  1.00  0.00     0.296 HD
ENDBRANCH  16  18
ENDBRANCH   9  16
BRANCH  12  20
ATOM     20  O   UNL     1      31.275  39.024  12.799  1.00  0.00    -0.391 OA
ATOM     21  H   UNL     1      30.584  39.277  13.488  1.00  0.00     0.211 HD
ENDBRANCH  12  20
BRANCH  13  22
ATOM     22  N   UNL     1      28.500  37.598  12.607  1.00  0.00    -0.348 N 
ATOM     23  C   UNL     1      27.847  38.779  13.051  1.00  0.00     0.217 C 
ATOM     24  H   UNL     1      27.985  37.020  11.908  1.00  0.00     0.163 HD
ATOM     25  C   UNL     1      26.498  39.166  12.540  1.00  0.00     0.114 C 
ATOM     26  O   UNL     1      28.443  39.486  13.887  1.00  0.00    -0.275 OA
ENDBRANCH  13  22
ENDBRANCH   7   8
BRANCH   7  27
ATOM     27  O   UNL     1      27.953  34.922  11.791  1.00  0.00    -0.388 OA
ATOM     28  H   UNL     1      28.562  35.149  11.054  1.00  0.00     0.211 HD
ENDBRANCH   7  27
ENDBRANCH   6   7
BRANCH   6  29
ATOM     29  O   UNL     1      28.473  34.748  15.278  1.00  0.00    -0.388 OA
ATOM     30  H   UNL     1      28.019  35.028  16.122  1.00  0.00     0.211 HD
ENDBRANCH   6  29
ENDBRANCH   5   6
ENDBRANCH   1   5
BRANCH   2  31
ATOM     31  O   UNL     1      23.829  35.842  11.633  1.00  0.00    -0.443 OA
BRANCH  31  32
ATOM     32  C   UNL     1      23.836  35.754  10.219  1.00  0.00     0.294 C 
BRANCH  32  33
ATOM     33  C   UNL     1      25.044  36.445   9.711  1.00  0.00     0.120 A 
ATOM     34  C   UNL     1      25.257  37.047   8.491  1.00  0.00     0.138 A 
ATOM     35  N   UNL     1      26.184  36.595  10.413  1.00  0.00    -0.132 NA
ATOM     36  N   UNL     1      26.508  37.544   8.478  1.00  0.00    -0.249 N 
ATOM     37  N   UNL     1      27.037  37.247   9.667  1.00  0.00    -0.067 NA
BRANCH  36  38
ATOM     38  C   UNL     1      27.142  38.264   7.372  1.00  0.00     0.115 C 
BRANCH  38  39
ATOM     39  C   UNL     1      26.318  39.473   7.087  1.00  0.00     0.063 C 
BRANCH  39  40
ATOM     40  C   UNL     1      26.977  40.491   6.225  1.00  0.00     0.139 CG0
ATOM     41  G   UNL     1      27.237  40.024   4.854  1.00  0.00     0.000 G0
BRANCH  40  42
ATOM     42  O   UNL     1      26.304  41.733   6.247  1.00  0.00    -0.389 OA
ATOM     43  H   UNL     1      26.360  42.133   5.353  1.00  0.00     0.211 HD
ENDBRANCH  40  42
ENDBRANCH  39  40
ENDBRANCH  38  39
BRANCH  38  44
ATOM     44  C   UNL     1      27.268  37.317   6.228  1.00  0.00     0.063 C 
BRANCH  44  45
ATOM     45  C   UNL     1      28.227  37.753   5.162  1.00  0.00     0.139 C 
BRANCH  45  46
ATOM     46  C   UNL     1      27.758  38.918   4.381  1.00  0.00     0.002 C 
ATOM     47  C   UNL     1      27.243  40.042   4.828  1.00  0.00     0.002 CG0
ATOM     48  G   UNL     1      26.989  40.457   6.217  1.00  0.00     0.000 G0
ENDBRANCH  45  46
BRANCH  45  49
ATOM     49  O   UNL     1      29.515  37.958   5.652  1.00  0.00    -0.389 OA
ATOM     50  H   UNL     1      29.832  37.183   6.180  1.00  0.00     0.211 HD
ENDBRANCH  45  49
ENDBRANCH  44  45
ENDBRANCH  38  44
ENDBRANCH  36  38
ENDBRANCH  32  33
ENDBRANCH  31  32
ENDBRANCH   2  31
TORSDOF 17
BEGIN_RES LYS A 131
REMARK  4 active torsions:
REMARK  status: ('A' for Active; 'I' for Inactive)
REMARK    1  A    between atoms: CA   and  CB  
REMARK    2  A    between atoms: CB   and  CG  
REMARK    3  A    between atoms: CG   and  CD  
REMARK    4  A    between atoms: CD   and  CE  
ROOT
ATOM      1  CA  LYS A 131      29.867  25.555  16.977  1.00 20.52     0.186 C 
ENDROOT
BRANCH   1   2
ATOM      2  CB  LYS A 131      28.345  25.722  17.026  1.00 20.94     0.034 C 
BRANCH   2   3
ATOM      3  CG  LYS A 131      27.602  24.397  16.945  1.00 22.96     0.005 C 
BRANCH   3   4
ATOM      4  CD  LYS A 131      26.211  24.493  17.506  1.00 24.33     0.041 C 
BRANCH   4   5
ATOM      5  CE  LYS A 131      26.043  25.827  18.226  1.00 26.91     0.338 C 
ATOM      6  NZ  LYS A 131      24.832  26.529  17.740  1.00 27.40     0.618 N 
ENDBRANCH   4   5
ENDBRANCH   3   4
ENDBRANCH   2   3
ENDBRANCH   1   2
END_RES LYS A 131
BEGIN_RES LYS A 135
REMARK  4 active torsions:
REMARK  status: ('A' for Active; 'I' for Inactive)
REMARK    5  A    between atoms: CA   and  CB  
REMARK    6  A    between atoms: CB   and  CG  
REMARK    7  A    between atoms: CG   and  CD  
REMARK    8  A    between atoms: CD   and  CE  
ROOT
ATOM      7  CA  LYS A 135      33.193  34.663   9.290  1.00 25.02     0.186 C 
ENDROOT
BRANCH   7   8
ATOM      8  CB  LYS A 135      32.060  35.360  10.034  1.00 26.63     0.034 C 
BRANCH   8   9
ATOM      9  CG  LYS A 135      30.705  34.755   9.771  1.00 29.45     0.005 C 
BRANCH   9  10
ATOM     10  CD  LYS A 135      30.555  34.392   8.302  1.00 32.00     0.041 C 
BRANCH  10  11
ATOM     11  CE  LYS A 135      29.261  34.952   7.744  1.00 34.25     0.338 C 
ATOM     12  NZ  LYS A 135      28.079  34.332   8.406  1.00 35.99     0.618 N 
ENDBRANCH  10  11
ENDBRANCH   9  10
ENDBRANCH   8   9
ENDBRANCH   7   8
END_RES LYS A 135
