REMARK VINA RESULT:    -5.672      4.579      8.874
REMARK INTER + INTRA:         -15.659
REMARK INTER:                 -10.299
REMARK INTRA:                  -5.359
REMARK UNBOUND:                -5.012
REMARK SMILES CC(=O)N[C@@H]1[C@@H](O)C[C@](O)(C(=O)O)O[C@H]1C(O)[C@H](O)CNC(=O)OCc1cn(CC(O)c2ccccc2)nn1
REMARK SMILES IDX 21 1 22 2 23 3 20 5 18 6 16 7 15 8 9 9 8 10 14 11 6 12 5 13
REMARK SMILES IDX 10 14 11 16 12 17 13 18 7 20 4 22 2 23 1 25 3 26 17 27 19 29
REMARK SMILES IDX 24 31 25 32 26 33 27 34 39 35 28 36 38 37 29 38 30 39 31 40
REMARK SMILES IDX 32 42 33 43 37 44 34 45 36 46 35 47
REMARK H PARENT 21 4 10 15 13 19 7 21 4 24 17 28 19 30 31 41
REMARK Flexibility Score: inf
ROOT
ATOM      1  N   UNL     1      28.892  30.013  16.065  1.00  0.00    -0.319 N 
ATOM      2  C   UNL     1      27.915  29.668  17.032  1.00  0.00     0.407 C 
ATOM      3  O   UNL     1      27.859  30.328  18.094  1.00  0.00    -0.225 OA
ATOM      4  H   UNL     1      28.870  29.404  15.189  1.00  0.00     0.167 HD
ENDROOT
BRANCH   1   5
ATOM      5  C   UNL     1      29.854  31.081  16.205  1.00  0.00     0.154 C 
BRANCH   5   6
ATOM      6  C   UNL     1      29.292  32.417  15.766  1.00  0.00     0.165 C 
BRANCH   6   7
ATOM      7  C   UNL     1      30.380  33.253  15.091  1.00  0.00     0.176 C 
BRANCH   7   8
ATOM      8  C   UNL     1      29.984  33.791  13.742  1.00  0.00     0.178 C 
ATOM      9  C   UNL     1      31.454  35.612  13.785  1.00  0.00     0.269 C 
ATOM     10  C   UNL     1      30.497  36.316  14.659  1.00  0.00     0.112 C 
ATOM     11  O   UNL     1      31.092  34.446  13.200  1.00  0.00    -0.332 OA
ATOM     12  C   UNL     1      29.050  35.955  14.530  1.00  0.00     0.145 C 
ATOM     13  C   UNL     1      28.798  34.657  13.800  1.00  0.00     0.142 C 
BRANCH   9  14
ATOM     14  O   UNL     1      32.579  35.297  14.606  1.00  0.00    -0.357 OA
ATOM     15  H   UNL     1      32.756  36.113  15.122  1.00  0.00     0.214 HD
ENDBRANCH   9  14
BRANCH   9  16
ATOM     16  C   UNL     1      32.005  36.601  12.785  1.00  0.00     0.364 C 
ATOM     17  O   UNL     1      32.938  36.308  12.001  1.00  0.00    -0.246 OA
BRANCH  16  18
ATOM     18  O   UNL     1      31.471  37.885  12.719  1.00  0.00    -0.477 OA
ATOM     19  H   UNL     1      31.888  38.686  13.166  1.00  0.00     0.296 HD
ENDBRANCH  16  18
ENDBRANCH   9  16
BRANCH  12  20
ATOM     20  O   UNL     1      28.454  35.914  15.822  1.00  0.00    -0.391 OA
ATOM     21  H   UNL     1      28.305  34.972  16.029  1.00  0.00     0.211 HD
ENDBRANCH  12  20
BRANCH  13  22
ATOM     22  N   UNL     1      28.272  35.030  12.497  1.00  0.00    -0.348 N 
ATOM     23  C   UNL     1      26.921  34.857  12.109  1.00  0.00     0.217 C 
ATOM     24  H   UNL     1      28.966  35.447  11.839  1.00  0.00     0.163 HD
ATOM     25  C   UNL     1      26.416  35.249  10.771  1.00  0.00     0.114 C 
ATOM     26  O   UNL     1      26.163  34.346  12.974  1.00  0.00    -0.275 OA
ENDBRANCH  13  22
ENDBRANCH   7   8
BRANCH   7  27
ATOM     27  O   UNL     1      31.391  32.250  14.829  1.00  0.00    -0.388 OA
ATOM     28  H   UNL     1      31.184  31.418  15.281  1.00  0.00     0.211 HD
ENDBRANCH   7  27
ENDBRANCH   6   7
BRANCH   6  29
ATOM     29  O   UNL     1      28.723  33.041  16.853  1.00  0.00    -0.388 OA
ATOM     30  H   UNL     1      28.049  32.430  17.232  1.00  0.00     0.211 HD
ENDBRANCH   6  29
ENDBRANCH   5   6
ENDBRANCH   1   5
BRANCH   2  31
ATOM     31  O   UNL     1      27.012  28.630  16.858  1.00  0.00    -0.443 OA
BRANCH  31  32
ATOM     32  C   UNL     1      25.788  28.560  17.564  1.00  0.00     0.294 C 
BRANCH  32  33
ATOM     33  C   UNL     1      24.691  28.937  16.650  1.00  0.00     0.120 A 
ATOM     34  C   UNL     1      24.667  30.032  15.801  1.00  0.00     0.138 A 
ATOM     35  N   UNL     1      23.502  28.323  16.439  1.00  0.00    -0.132 NA
ATOM     36  N   UNL     1      23.505  30.051  15.124  1.00  0.00    -0.249 N 
ATOM     37  N   UNL     1      22.824  29.007  15.531  1.00  0.00    -0.067 NA
BRANCH  36  38
ATOM     38  C   UNL     1      23.117  31.061  14.131  1.00  0.00     0.182 C 
BRANCH  38  39
ATOM     39  C   UNL     1      23.048  30.407  12.773  1.00  0.00     0.166 C 
BRANCH  39  40
ATOM     40  O   UNL     1      23.744  29.181  12.873  1.00  0.00    -0.386 OA
ATOM     41  H   UNL     1      23.114  28.477  13.192  1.00  0.00     0.211 HD
ENDBRANCH  39  40
BRANCH  39  42
ATOM     42  C   UNL     1      21.644  30.101  12.435  1.00  0.00    -0.018 A 
ATOM     43  C   UNL     1      21.207  28.822  12.157  1.00  0.00     0.006 A 
ATOM     44  C   UNL     1      20.714  31.149  12.396  1.00  0.00     0.006 A 
ATOM     45  C   UNL     1      19.896  28.558  11.846  1.00  0.00     0.000 A 
ATOM     46  C   UNL     1      19.410  30.888  12.087  1.00  0.00     0.000 A 
ATOM     47  C   UNL     1      19.003  29.603  11.814  1.00  0.00     0.000 A 
ENDBRANCH  39  42
ENDBRANCH  38  39
ENDBRANCH  36  38
ENDBRANCH  32  33
ENDBRANCH  31  32
ENDBRANCH   2  31
TORSDOF 18
BEGIN_RES LYS A 131
REMARK  4 active torsions:
REMARK  status: ('A' for Active; 'I' for Inactive)
REMARK    1  A    between atoms: CA   and  CB  
REMARK    2  A    between atoms: CB   and  CG  
REMARK    3  A    between atoms: CG   and  CD  
REMARK    4  A    between atoms: CD   and  CE  
ROOT
ATOM      1  CA  LYS A 131      29.867  25.555  16.977  1.00 20.52     0.186 C 
ENDROOT
BRANCH   1   2
ATOM      2  CB  LYS A 131      28.345  25.722  17.026  1.00 20.94     0.034 C 
BRANCH   2   3
ATOM      3  CG  LYS A 131      27.599  24.435  16.709  1.00 22.96     0.005 C 
BRANCH   3   4
ATOM      4  CD  LYS A 131      26.600  24.082  17.776  1.00 24.33     0.041 C 
BRANCH   4   5
ATOM      5  CE  LYS A 131      25.188  24.316  17.250  1.00 26.91     0.338 C 
ATOM      6  NZ  LYS A 131      24.343  23.121  17.480  1.00 27.40     0.618 N 
ENDBRANCH   4   5
ENDBRANCH   3   4
ENDBRANCH   2   3
ENDBRANCH   1   2
END_RES LYS A 131
BEGIN_RES LYS A 135
REMARK  4 active torsions:
REMARK  status: ('A' for Active; 'I' for Inactive)
REMARK    5  A    between atoms: CA   and  CB  
REMARK    6  A    between atoms: CB   and  CG  
REMARK    7  A    between atoms: CG   and  CD  
REMARK    8  A    between atoms: CD   and  CE  
ROOT
ATOM      7  CA  LYS A 135      33.193  34.663   9.290  1.00 25.02     0.186 C 
ENDROOT
BRANCH   7   8
ATOM      8  CB  LYS A 135      32.060  35.360  10.034  1.00 26.63     0.034 C 
BRANCH   8   9
ATOM      9  CG  LYS A 135      30.708  34.740   9.791  1.00 29.45     0.005 C 
BRANCH   9  10
ATOM     10  CD  LYS A 135      30.466  34.547   8.302  1.00 32.00     0.041 C 
BRANCH  10  11
ATOM     11  CE  LYS A 135      29.020  34.844   7.955  1.00 34.25     0.338 C 
ATOM     12  NZ  LYS A 135      28.917  35.561   6.654  1.00 35.99     0.618 N 
ENDBRANCH  10  11
ENDBRANCH   9  10
ENDBRANCH   8   9
ENDBRANCH   7   8
END_RES LYS A 135
