REMARK VINA RESULT:    -4.483      6.200     10.593
REMARK INTER + INTRA:         -14.820
REMARK INTER:                 -11.257
REMARK INTRA:                  -3.563
REMARK UNBOUND:                -6.275
REMARK SMILES CC(=O)N[C@@H]1[C@@H](O)C[C@](O)(C(=O)O)O[C@H]1C(O)[C@H](O)CNC(=O)OCc1cn(Cc2ccccc2OC(C)=O)nn1
REMARK SMILES IDX 21 1 22 2 23 3 20 5 18 6 16 7 15 8 9 9 8 10 14 11 6 12 5 13
REMARK SMILES IDX 10 14 11 16 12 17 13 18 7 20 4 22 2 23 1 25 3 26 17 27 19 29
REMARK SMILES IDX 24 31 25 32 26 33 27 34 41 35 28 36 40 37 29 38 30 39 35 40
REMARK SMILES IDX 31 41 34 42 32 43 33 44 36 45 37 46 39 47 38 48
REMARK H PARENT 21 4 10 15 13 19 7 21 4 24 17 28 19 30
REMARK Flexibility Score: inf
ROOT
ATOM      1  N   UNL     1      26.037  31.181  15.717  1.00  0.00    -0.319 N 
ATOM      2  C   UNL     1      25.136  31.512  14.661  1.00  0.00     0.407 C 
ATOM      3  O   UNL     1      24.468  30.591  14.145  1.00  0.00    -0.225 OA
ATOM      4  H   UNL     1      26.588  31.955  16.138  1.00  0.00     0.167 HD
ENDROOT
BRANCH   1   5
ATOM      5  C   UNL     1      26.176  29.824  16.174  1.00  0.00     0.154 C 
BRANCH   5   6
ATOM      6  C   UNL     1      27.540  29.689  16.859  1.00  0.00     0.165 C 
BRANCH   6   7
ATOM      7  C   UNL     1      27.611  30.663  18.002  1.00  0.00     0.176 C 
BRANCH   7   8
ATOM      8  C   UNL     1      28.854  30.391  18.805  1.00  0.00     0.178 C 
ATOM      9  C   UNL     1      29.535  29.756  20.936  1.00  0.00     0.269 C 
ATOM     10  C   UNL     1      30.105  31.127  21.219  1.00  0.00     0.112 C 
ATOM     11  O   UNL     1      28.498  29.939  20.036  1.00  0.00    -0.332 OA
ATOM     12  C   UNL     1      30.683  31.668  19.957  1.00  0.00     0.145 C 
ATOM     13  C   UNL     1      29.757  31.572  18.776  1.00  0.00     0.142 C 
BRANCH   9  14
ATOM     14  O   UNL     1      28.934  29.343  22.144  1.00  0.00    -0.357 OA
ATOM     15  H   UNL     1      29.350  28.523  22.494  1.00  0.00     0.214 HD
ENDBRANCH   9  14
BRANCH   9  16
ATOM     16  C   UNL     1      30.545  28.771  20.503  1.00  0.00     0.364 C 
ATOM     17  O   UNL     1      31.764  29.032  20.355  1.00  0.00    -0.246 OA
BRANCH  16  18
ATOM     18  O   UNL     1      30.149  27.474  20.238  1.00  0.00    -0.477 OA
ATOM     19  H   UNL     1      30.236  26.705  20.908  1.00  0.00     0.296 HD
ENDBRANCH  16  18
ENDBRANCH   9  16
BRANCH  12  20
ATOM     20  O   UNL     1      31.021  33.017  20.203  1.00  0.00    -0.391 OA
ATOM     21  H   UNL     1      30.483  33.335  20.987  1.00  0.00     0.211 HD
ENDBRANCH  12  20
BRANCH  13  22
ATOM     22  N   UNL     1      30.566  31.507  17.574  1.00  0.00    -0.348 N 
ATOM     23  C   UNL     1      30.654  32.600  16.658  1.00  0.00     0.217 C 
ATOM     24  H   UNL     1      31.112  30.649  17.347  1.00  0.00     0.163 HD
ATOM     25  C   UNL     1      31.496  32.479  15.447  1.00  0.00     0.114 C 
ATOM     26  O   UNL     1      30.018  33.651  16.888  1.00  0.00    -0.275 OA
ENDBRANCH  13  22
ENDBRANCH   7   8
BRANCH   7  27
ATOM     27  O   UNL     1      26.479  30.583  18.823  1.00  0.00    -0.388 OA
ATOM     28  H   UNL     1      25.876  31.329  18.599  1.00  0.00     0.211 HD
ENDBRANCH   7  27
ENDBRANCH   6   7
BRANCH   6  29
ATOM     29  O   UNL     1      28.502  29.883  15.893  1.00  0.00    -0.388 OA
ATOM     30  H   UNL     1      29.171  29.168  15.845  1.00  0.00     0.211 HD
ENDBRANCH   6  29
ENDBRANCH   5   6
ENDBRANCH   1   5
BRANCH   2  31
ATOM     31  O   UNL     1      25.019  32.825  14.237  1.00  0.00    -0.443 OA
BRANCH  31  32
ATOM     32  C   UNL     1      26.078  33.746  14.361  1.00  0.00     0.294 C 
BRANCH  32  33
ATOM     33  C   UNL     1      26.219  34.482  13.096  1.00  0.00     0.120 A 
ATOM     34  C   UNL     1      25.927  34.001  11.817  1.00  0.00     0.138 A 
ATOM     35  N   UNL     1      26.654  35.752  12.897  1.00  0.00    -0.132 NA
ATOM     36  N   UNL     1      26.193  34.973  10.953  1.00  0.00    -0.248 N 
ATOM     37  N   UNL     1      26.633  36.033  11.609  1.00  0.00    -0.067 NA
BRANCH  36  38
ATOM     38  C   UNL     1      26.027  34.902   9.516  1.00  0.00     0.185 C 
BRANCH  38  39
ATOM     39  C   UNL     1      27.412  34.841   8.939  1.00  0.00     0.016 A 
ATOM     40  C   UNL     1      27.694  35.604   7.836  1.00  0.00     0.135 A 
ATOM     41  C   UNL     1      28.356  34.033   9.519  1.00  0.00     0.009 A 
ATOM     42  C   UNL     1      28.944  35.582   7.272  1.00  0.00     0.047 A 
ATOM     43  C   UNL     1      29.636  34.000   8.954  1.00  0.00     0.001 A 
ATOM     44  C   UNL     1      29.895  34.770   7.853  1.00  0.00     0.004 A 
BRANCH  40  45
ATOM     45  O   UNL     1      26.712  36.409   7.279  1.00  0.00    -0.426 OA
BRANCH  45  46
ATOM     46  C   UNL     1      26.925  37.787   7.292  1.00  0.00     0.308 C 
ATOM     47  O   UNL     1      27.078  38.398   6.209  1.00  0.00    -0.252 OA
ATOM     48  C   UNL     1      26.973  38.536   8.571  1.00  0.00     0.139 C 
ENDBRANCH  45  46
ENDBRANCH  40  45
ENDBRANCH  38  39
ENDBRANCH  36  38
ENDBRANCH  32  33
ENDBRANCH  31  32
ENDBRANCH   2  31
TORSDOF 18
BEGIN_RES LYS A 131
REMARK  4 active torsions:
REMARK  status: ('A' for Active; 'I' for Inactive)
REMARK    1  A    between atoms: CA   and  CB  
REMARK    2  A    between atoms: CB   and  CG  
REMARK    3  A    between atoms: CG   and  CD  
REMARK    4  A    between atoms: CD   and  CE  
ROOT
ATOM      1  CA  LYS A 131      29.867  25.555  16.977  1.00 20.52     0.186 C 
ENDROOT
BRANCH   1   2
ATOM      2  CB  LYS A 131      28.345  25.722  17.026  1.00 20.94     0.034 C 
BRANCH   2   3
ATOM      3  CG  LYS A 131      27.601  24.401  16.903  1.00 22.96     0.005 C 
BRANCH   3   4
ATOM      4  CD  LYS A 131      26.153  24.528  17.286  1.00 24.33     0.041 C 
BRANCH   4   5
ATOM      5  CE  LYS A 131      25.637  23.181  17.781  1.00 26.91     0.338 C 
ATOM      6  NZ  LYS A 131      25.514  23.184  19.258  1.00 27.40     0.618 N 
ENDBRANCH   4   5
ENDBRANCH   3   4
ENDBRANCH   2   3
ENDBRANCH   1   2
END_RES LYS A 131
BEGIN_RES LYS A 135
REMARK  4 active torsions:
REMARK  status: ('A' for Active; 'I' for Inactive)
REMARK    5  A    between atoms: CA   and  CB  
REMARK    6  A    between atoms: CB   and  CG  
REMARK    7  A    between atoms: CG   and  CD  
REMARK    8  A    between atoms: CD   and  CE  
ROOT
ATOM      7  CA  LYS A 135      33.193  34.663   9.290  1.00 25.02     0.186 C 
ENDROOT
BRANCH   7   8
ATOM      8  CB  LYS A 135      32.060  35.360  10.034  1.00 26.63     0.034 C 
BRANCH   8   9
ATOM      9  CG  LYS A 135      32.532  36.242  11.161  1.00 29.45     0.005 C 
BRANCH   9  10
ATOM     10  CD  LYS A 135      31.917  35.801  12.481  1.00 32.00     0.041 C 
BRANCH  10  11
ATOM     11  CE  LYS A 135      30.742  34.873  12.237  1.00 34.25     0.338 C 
ATOM     12  NZ  LYS A 135      29.873  34.781  13.443  1.00 35.99     0.618 N 
ENDBRANCH  10  11
ENDBRANCH   9  10
ENDBRANCH   8   9
ENDBRANCH   7   8
END_RES LYS A 135
