REMARK VINA RESULT:    -5.754      4.244      7.817
REMARK INTER + INTRA:         -15.812
REMARK INTER:                 -10.162
REMARK INTRA:                  -5.650
REMARK UNBOUND:                -5.012
REMARK SMILES CC(=O)N[C@@H]1[C@@H](O)C[C@](O)(C(=O)O)O[C@H]1C(O)[C@H](O)CNC(=O)OCc1cn(CC(O)c2ccccc2)nn1
REMARK SMILES IDX 21 1 22 2 23 3 20 5 18 6 16 7 15 8 9 9 8 10 14 11 6 12 5 13
REMARK SMILES IDX 10 14 11 16 12 17 13 18 7 20 4 22 2 23 1 25 3 26 17 27 19 29
REMARK SMILES IDX 24 31 25 32 26 33 27 34 39 35 28 36 38 37 29 38 30 39 31 40
REMARK SMILES IDX 32 42 33 43 37 44 34 45 36 46 35 47
REMARK H PARENT 21 4 10 15 13 19 7 21 4 24 17 28 19 30 31 41
REMARK Flexibility Score: inf
ROOT
ATOM      1  N   UNL     1      28.691  31.026  17.524  1.00  0.00    -0.319 N 
ATOM      2  C   UNL     1      27.926  30.436  16.487  1.00  0.00     0.407 C 
ATOM      3  O   UNL     1      28.508  30.074  15.440  1.00  0.00    -0.225 OA
ATOM      4  H   UNL     1      28.120  31.303  18.382  1.00  0.00     0.167 HD
ENDROOT
BRANCH   1   5
ATOM      5  C   UNL     1      30.117  31.254  17.473  1.00  0.00     0.154 C 
BRANCH   5   6
ATOM      6  C   UNL     1      30.459  32.728  17.414  1.00  0.00     0.165 C 
BRANCH   6   7
ATOM      7  C   UNL     1      31.092  33.069  16.064  1.00  0.00     0.176 C 
BRANCH   7   8
ATOM      8  C   UNL     1      30.262  34.000  15.221  1.00  0.00     0.178 C 
ATOM      9  C   UNL     1      32.074  34.961  14.094  1.00  0.00     0.269 C 
ATOM     10  C   UNL     1      32.317  35.802  15.282  1.00  0.00     0.112 C 
ATOM     11  O   UNL     1      30.946  34.217  14.023  1.00  0.00    -0.332 OA
ATOM     12  C   UNL     1      31.141  36.131  16.147  1.00  0.00     0.145 C 
ATOM     13  C   UNL     1      29.935  35.254  15.911  1.00  0.00     0.142 C 
BRANCH   9  14
ATOM     14  O   UNL     1      33.154  34.028  14.045  1.00  0.00    -0.357 OA
ATOM     15  H   UNL     1      32.762  33.168  14.310  1.00  0.00     0.214 HD
ENDBRANCH   9  14
BRANCH   9  16
ATOM     16  C   UNL     1      32.274  35.808  12.860  1.00  0.00     0.364 C 
ATOM     17  O   UNL     1      31.475  36.718  12.538  1.00  0.00    -0.246 OA
BRANCH  16  18
ATOM     18  O   UNL     1      33.377  35.585  12.041  1.00  0.00    -0.477 OA
ATOM     19  H   UNL     1      34.009  34.808  12.156  1.00  0.00     0.296 HD
ENDBRANCH  16  18
ENDBRANCH   9  16
BRANCH  12  20
ATOM     20  O   UNL     1      31.528  36.074  17.515  1.00  0.00    -0.391 OA
ATOM     21  H   UNL     1      31.737  36.990  17.783  1.00  0.00     0.211 HD
ENDBRANCH  12  20
BRANCH  13  22
ATOM     22  N   UNL     1      28.972  36.086  15.206  1.00  0.00    -0.348 N 
ATOM     23  C   UNL     1      27.916  36.785  15.838  1.00  0.00     0.217 C 
ATOM     24  H   UNL     1      29.105  36.143  14.173  1.00  0.00     0.163 HD
ATOM     25  C   UNL     1      26.950  37.626  15.089  1.00  0.00     0.114 C 
ATOM     26  O   UNL     1      27.840  36.653  17.088  1.00  0.00    -0.275 OA
ENDBRANCH  13  22
ENDBRANCH   7   8
BRANCH   7  27
ATOM     27  O   UNL     1      31.045  31.788  15.392  1.00  0.00    -0.388 OA
ATOM     28  H   UNL     1      31.913  31.356  15.402  1.00  0.00     0.211 HD
ENDBRANCH   7  27
ENDBRANCH   6   7
BRANCH   6  29
ATOM     29  O   UNL     1      31.260  33.044  18.486  1.00  0.00    -0.388 OA
ATOM     30  H   UNL     1      30.689  33.078  19.289  1.00  0.00     0.211 HD
ENDBRANCH   6  29
ENDBRANCH   5   6
ENDBRANCH   1   5
BRANCH   2  31
ATOM     31  O   UNL     1      26.556  30.239  16.577  1.00  0.00    -0.443 OA
BRANCH  31  32
ATOM     32  C   UNL     1      25.693  30.369  15.464  1.00  0.00     0.294 C 
BRANCH  32  33
ATOM     33  C   UNL     1      25.558  31.803  15.134  1.00  0.00     0.120 A 
ATOM     34  C   UNL     1      25.224  32.334  13.898  1.00  0.00     0.138 A 
ATOM     35  N   UNL     1      25.722  32.885  15.930  1.00  0.00    -0.132 NA
ATOM     36  N   UNL     1      25.197  33.676  13.978  1.00  0.00    -0.249 N 
ATOM     37  N   UNL     1      25.502  33.978  15.217  1.00  0.00    -0.067 NA
BRANCH  36  38
ATOM     38  C   UNL     1      24.881  34.587  12.870  1.00  0.00     0.182 C 
BRANCH  38  39
ATOM     39  C   UNL     1      26.150  35.271  12.424  1.00  0.00     0.166 C 
BRANCH  39  40
ATOM     40  O   UNL     1      27.216  34.642  13.106  1.00  0.00    -0.386 OA
ATOM     41  H   UNL     1      26.917  33.742  13.413  1.00  0.00     0.211 HD
ENDBRANCH  39  40
BRANCH  39  42
ATOM     42  C   UNL     1      26.353  35.055  10.977  1.00  0.00    -0.018 A 
ATOM     43  C   UNL     1      25.644  35.745  10.015  1.00  0.00     0.006 A 
ATOM     44  C   UNL     1      27.303  34.112  10.561  1.00  0.00     0.006 A 
ATOM     45  C   UNL     1      25.849  35.530   8.674  1.00  0.00     0.000 A 
ATOM     46  C   UNL     1      27.508  33.897   9.229  1.00  0.00     0.000 A 
ATOM     47  C   UNL     1      26.787  34.600   8.292  1.00  0.00     0.000 A 
ENDBRANCH  39  42
ENDBRANCH  38  39
ENDBRANCH  36  38
ENDBRANCH  32  33
ENDBRANCH  31  32
ENDBRANCH   2  31
TORSDOF 18
BEGIN_RES LYS A 131
REMARK  4 active torsions:
REMARK  status: ('A' for Active; 'I' for Inactive)
REMARK    1  A    between atoms: CA   and  CB  
REMARK    2  A    between atoms: CB   and  CG  
REMARK    3  A    between atoms: CG   and  CD  
REMARK    4  A    between atoms: CD   and  CE  
ROOT
ATOM      1  CA  LYS A 131      29.867  25.555  16.977  1.00 20.52     0.186 C 
ENDROOT
BRANCH   1   2
ATOM      2  CB  LYS A 131      28.345  25.722  17.026  1.00 20.94     0.034 C 
BRANCH   2   3
ATOM      3  CG  LYS A 131      27.601  24.401  16.905  1.00 22.96     0.005 C 
BRANCH   3   4
ATOM      4  CD  LYS A 131      26.520  24.262  17.941  1.00 24.33     0.041 C 
BRANCH   4   5
ATOM      5  CE  LYS A 131      25.176  24.061  17.249  1.00 26.91     0.338 C 
ATOM      6  NZ  LYS A 131      24.278  25.210  17.515  1.00 27.40     0.618 N 
ENDBRANCH   4   5
ENDBRANCH   3   4
ENDBRANCH   2   3
ENDBRANCH   1   2
END_RES LYS A 131
BEGIN_RES LYS A 135
REMARK  4 active torsions:
REMARK  status: ('A' for Active; 'I' for Inactive)
REMARK    5  A    between atoms: CA   and  CB  
REMARK    6  A    between atoms: CB   and  CG  
REMARK    7  A    between atoms: CG   and  CD  
REMARK    8  A    between atoms: CD   and  CE  
ROOT
ATOM      7  CA  LYS A 135      33.193  34.663   9.290  1.00 25.02     0.186 C 
ENDROOT
BRANCH   7   8
ATOM      8  CB  LYS A 135      32.060  35.360  10.034  1.00 26.63     0.034 C 
BRANCH   8   9
ATOM      9  CG  LYS A 135      30.715  35.197   9.373  1.00 29.45     0.005 C 
BRANCH   9  10
ATOM     10  CD  LYS A 135      30.242  36.518   8.787  1.00 32.00     0.041 C 
BRANCH  10  11
ATOM     11  CE  LYS A 135      29.266  37.199   9.727  1.00 34.25     0.338 C 
ATOM     12  NZ  LYS A 135      28.329  38.083   8.979  1.00 35.99     0.618 N 
ENDBRANCH  10  11
ENDBRANCH   9  10
ENDBRANCH   8   9
ENDBRANCH   7   8
END_RES LYS A 135
