REMARK VINA RESULT:    -5.128      3.406      5.331
REMARK INTER + INTRA:         -14.039
REMARK INTER:                  -7.712
REMARK INTRA:                  -6.327
REMARK UNBOUND:                -5.164
REMARK SMILES CC(=O)N[C@@H]1[C@@H](O)C[C@](O)(C(=O)O)O[C@H]1C(O)[C@H](O)CNC(=O)OCc1cn(-c2cccnc2)nn1
REMARK SMILES IDX 20 1 18 2 16 3 15 4 9 5 8 6 14 7 6 8 5 9 10 10 11 12 12 13
REMARK SMILES IDX 13 14 7 16 4 18 2 19 1 21 3 22 17 23 19 25 21 27 22 28 23 30
REMARK SMILES IDX 24 31 25 32 26 33 27 34 36 35 28 36 35 37 29 38 30 39 34 40
REMARK SMILES IDX 31 41 33 42 32 43
REMARK H PARENT 10 11 13 15 7 17 4 20 17 24 19 26 21 29
REMARK Flexibility Score: inf
ROOT
ATOM      1  C   UNL     1      27.133  31.005  19.063  1.00  0.00     0.154 C 
ENDROOT
BRANCH   1   2
ATOM      2  C   UNL     1      28.265  30.069  18.853  1.00  0.00     0.165 C 
BRANCH   2   3
ATOM      3  C   UNL     1      29.596  30.675  19.090  1.00  0.00     0.176 C 
BRANCH   3   4
ATOM      4  C   UNL     1      30.074  31.727  18.152  1.00  0.00     0.178 C 
ATOM      5  C   UNL     1      30.569  32.306  16.017  1.00  0.00     0.269 C 
ATOM      6  C   UNL     1      31.190  33.575  16.480  1.00  0.00     0.112 C 
ATOM      7  O   UNL     1      30.494  31.281  16.940  1.00  0.00    -0.332 OA
ATOM      8  C   UNL     1      31.013  33.931  17.915  1.00  0.00     0.145 C 
ATOM      9  C   UNL     1      31.098  32.635  18.773  1.00  0.00     0.142 C 
BRANCH   5  10
ATOM     10  O   UNL     1      31.438  31.817  14.990  1.00  0.00    -0.357 OA
ATOM     11  H   UNL     1      31.235  30.854  14.943  1.00  0.00     0.214 HD
ENDBRANCH   5  10
BRANCH   5  12
ATOM     12  C   UNL     1      29.259  32.509  15.358  1.00  0.00     0.364 C 
ATOM     13  O   UNL     1      28.420  31.575  15.340  1.00  0.00    -0.246 OA
BRANCH  12  14
ATOM     14  O   UNL     1      28.861  33.685  14.735  1.00  0.00    -0.477 OA
ATOM     15  H   UNL     1      29.618  34.293  14.404  1.00  0.00     0.296 HD
ENDBRANCH  12  14
ENDBRANCH   5  12
BRANCH   8  16
ATOM     16  O   UNL     1      32.066  34.728  18.365  1.00  0.00    -0.391 OA
ATOM     17  H   UNL     1      32.176  34.608  19.341  1.00  0.00     0.211 HD
ENDBRANCH   8  16
BRANCH   9  18
ATOM     18  N   UNL     1      30.642  33.023  20.080  1.00  0.00    -0.348 N 
ATOM     19  C   UNL     1      31.266  32.625  21.284  1.00  0.00     0.217 C 
ATOM     20  H   UNL     1      29.794  33.644  20.161  1.00  0.00     0.163 HD
ATOM     21  C   UNL     1      30.720  33.078  22.583  1.00  0.00     0.114 C 
ATOM     22  O   UNL     1      32.279  31.890  21.239  1.00  0.00    -0.275 OA
ENDBRANCH   9  18
ENDBRANCH   3   4
BRANCH   3  23
ATOM     23  O   UNL     1      30.565  29.787  19.519  1.00  0.00    -0.388 OA
ATOM     24  H   UNL     1      31.116  29.379  18.833  1.00  0.00     0.211 HD
ENDBRANCH   3  23
ENDBRANCH   2   3
BRANCH   2  25
ATOM     25  O   UNL     1      28.270  29.622  17.509  1.00  0.00    -0.388 OA
ATOM     26  H   UNL     1      27.338  29.597  17.213  1.00  0.00     0.211 HD
ENDBRANCH   2  25
ENDBRANCH   1   2
BRANCH   1  27
ATOM     27  N   UNL     1      26.906  31.987  18.044  1.00  0.00    -0.319 N 
ATOM     28  C   UNL     1      27.141  33.352  18.149  1.00  0.00     0.407 C 
ATOM     29  H   UNL     1      26.520  31.648  17.109  1.00  0.00     0.167 HD
ATOM     30  O   UNL     1      27.580  33.858  19.190  1.00  0.00    -0.225 OA
BRANCH  28  31
ATOM     31  O   UNL     1      26.902  34.252  17.095  1.00  0.00    -0.443 OA
BRANCH  31  32
ATOM     32  C   UNL     1      25.589  34.504  16.649  1.00  0.00     0.294 C 
BRANCH  32  33
ATOM     33  C   UNL     1      25.312  33.843  15.360  1.00  0.00     0.121 A 
ATOM     34  C   UNL     1      24.427  32.785  15.228  1.00  0.00     0.144 A 
ATOM     35  N   UNL     1      25.786  34.067  14.135  1.00  0.00    -0.131 NA
ATOM     36  N   UNL     1      24.397  32.408  13.938  1.00  0.00    -0.219 N 
ATOM     37  N   UNL     1      25.221  33.191  13.291  1.00  0.00    -0.062 NA
BRANCH  36  38
ATOM     38  C   UNL     1      23.617  31.354  13.363  1.00  0.00     0.085 A 
ATOM     39  C   UNL     1      24.131  30.079  13.209  1.00  0.00     0.031 A 
ATOM     40  C   UNL     1      22.324  31.602  12.948  1.00  0.00     0.139 A 
ATOM     41  C   UNL     1      23.332  29.083  12.642  1.00  0.00     0.022 A 
ATOM     42  N   UNL     1      21.567  30.613  12.398  1.00  0.00    -0.262 NA
ATOM     43  C   UNL     1      22.040  29.364  12.237  1.00  0.00     0.111 A 
ENDBRANCH  36  38
ENDBRANCH  32  33
ENDBRANCH  31  32
ENDBRANCH  28  31
ENDBRANCH   1  27
TORSDOF 15
BEGIN_RES LYS A 131
REMARK  4 active torsions:
REMARK  status: ('A' for Active; 'I' for Inactive)
REMARK    1  A    between atoms: CA   and  CB  
REMARK    2  A    between atoms: CB   and  CG  
REMARK    3  A    between atoms: CG   and  CD  
REMARK    4  A    between atoms: CD   and  CE  
ROOT
ATOM      1  CA  LYS A 131      29.867  25.555  16.977  1.00 20.52     0.186 C 
ENDROOT
BRANCH   1   2
ATOM      2  CB  LYS A 131      28.345  25.722  17.026  1.00 20.94     0.034 C 
BRANCH   2   3
ATOM      3  CG  LYS A 131      27.599  24.447  16.663  1.00 22.96     0.005 C 
BRANCH   3   4
ATOM      4  CD  LYS A 131      27.012  23.771  17.872  1.00 24.33     0.041 C 
BRANCH   4   5
ATOM      5  CE  LYS A 131      25.583  23.334  17.567  1.00 26.91     0.338 C 
ATOM      6  NZ  LYS A 131      24.763  24.495  17.149  1.00 27.40     0.618 N 
ENDBRANCH   4   5
ENDBRANCH   3   4
ENDBRANCH   2   3
ENDBRANCH   1   2
END_RES LYS A 131
BEGIN_RES LYS A 135
REMARK  4 active torsions:
REMARK  status: ('A' for Active; 'I' for Inactive)
REMARK    5  A    between atoms: CA   and  CB  
REMARK    6  A    between atoms: CB   and  CG  
REMARK    7  A    between atoms: CG   and  CD  
REMARK    8  A    between atoms: CD   and  CE  
ROOT
ATOM      7  CA  LYS A 135      33.193  34.663   9.290  1.00 25.02     0.186 C 
ENDROOT
BRANCH   7   8
ATOM      8  CB  LYS A 135      32.060  35.360  10.034  1.00 26.63     0.034 C 
BRANCH   8   9
ATOM      9  CG  LYS A 135      30.718  34.704   9.839  1.00 29.45     0.005 C 
BRANCH   9  10
ATOM     10  CD  LYS A 135      30.271  34.815   8.389  1.00 32.00     0.041 C 
BRANCH  10  11
ATOM     11  CE  LYS A 135      28.783  34.548   8.268  1.00 34.25     0.338 C 
ATOM     12  NZ  LYS A 135      28.189  35.321   7.143  1.00 35.99     0.618 N 
ENDBRANCH  10  11
ENDBRANCH   9  10
ENDBRANCH   8   9
ENDBRANCH   7   8
END_RES LYS A 135
