REMARK VINA RESULT:    -3.576      5.399     10.236
REMARK INTER + INTRA:         -15.575
REMARK INTER:                  -8.758
REMARK INTRA:                  -6.817
REMARK UNBOUND:                -8.446
REMARK SMILES CC(=O)N[C@@H]1[C@@H](O)C[C@](O)(C(=O)O)O[C@H]1C(O)[C@H](O)CNC(=O)OCc1cn(CC(O)Cn2ccnc2[N+](=O)[O-])nn1
REMARK SMILES IDX 24 1 22 2 21 3 23 5 20 6 18 7 16 8 15 9 9 10 8 11 14 12 6 13
REMARK SMILES IDX 5 14 10 15 11 17 12 18 13 19 7 21 4 23 2 24 1 26 3 27 17 28
REMARK SMILES IDX 19 30 25 32 26 33 27 34 42 35 28 36 41 37 29 38 30 39 31 40
REMARK SMILES IDX 32 42 33 43 34 44 37 45 35 46 36 47 38 48 39 49 40 50
REMARK H PARENT 21 4 10 16 13 20 7 22 4 25 17 29 19 31 31 41
REMARK Flexibility Score: inf
ROOT
ATOM      1  O   UNL     1      28.895  37.605  12.785  1.00  0.00    -0.443 OA
ENDROOT
BRANCH   1   2
ATOM      2  C   UNL     1      28.282  36.886  11.745  1.00  0.00     0.407 C 
ATOM      3  N   UNL     1      27.492  35.753  11.965  1.00  0.00    -0.319 N 
ATOM      4  H   UNL     1      27.364  35.437  12.974  1.00  0.00     0.167 HD
ATOM      5  O   UNL     1      28.477  37.311  10.598  1.00  0.00    -0.225 OA
BRANCH   3   6
ATOM      6  C   UNL     1      26.843  34.988  10.927  1.00  0.00     0.154 C 
BRANCH   6   7
ATOM      7  C   UNL     1      25.501  35.610  10.650  1.00  0.00     0.165 C 
BRANCH   7   8
ATOM      8  C   UNL     1      24.542  35.152  11.723  1.00  0.00     0.176 C 
BRANCH   8   9
ATOM      9  C   UNL     1      23.137  34.977  11.161  1.00  0.00     0.178 C 
ATOM     10  C   UNL     1      21.515  36.253  10.080  1.00  0.00     0.269 C 
ATOM     11  C   UNL     1      20.525  35.429  10.880  1.00  0.00     0.112 C 
ATOM     12  O   UNL     1      22.752  36.197  10.676  1.00  0.00    -0.332 OA
ATOM     13  C   UNL     1      21.002  35.321  12.311  1.00  0.00     0.145 C 
ATOM     14  C   UNL     1      22.254  34.453  12.279  1.00  0.00     0.142 C 
BRANCH  10  15
ATOM     15  O   UNL     1      21.128  37.607  10.072  1.00  0.00    -0.357 OA
ATOM     16  H   UNL     1      21.478  37.996   9.237  1.00  0.00     0.214 HD
ENDBRANCH  10  15
BRANCH  10  17
ATOM     17  C   UNL     1      21.626  35.797   8.688  1.00  0.00     0.364 C 
ATOM     18  O   UNL     1      22.450  36.314   7.917  1.00  0.00    -0.246 OA
BRANCH  17  19
ATOM     19  O   UNL     1      20.810  34.783   8.220  1.00  0.00    -0.477 OA
ATOM     20  H   UNL     1      21.140  33.837   8.172  1.00  0.00     0.296 HD
ENDBRANCH  17  19
ENDBRANCH  10  17
BRANCH  13  21
ATOM     21  O   UNL     1      21.381  36.538  12.854  1.00  0.00    -0.391 OA
ATOM     22  H   UNL     1      22.001  36.402  13.598  1.00  0.00     0.211 HD
ENDBRANCH  13  21
BRANCH  14  23
ATOM     23  N   UNL     1      21.868  33.087  12.067  1.00  0.00    -0.348 N 
ATOM     24  C   UNL     1      22.443  32.049  12.828  1.00  0.00     0.217 C 
ATOM     25  H   UNL     1      21.155  32.792  11.349  1.00  0.00     0.163 HD
ATOM     26  C   UNL     1      22.037  30.628  12.602  1.00  0.00     0.114 C 
ATOM     27  O   UNL     1      23.305  32.296  13.711  1.00  0.00    -0.275 OA
ENDBRANCH  14  23
ENDBRANCH   8   9
BRANCH   8  28
ATOM     28  O   UNL     1      24.464  36.138  12.686  1.00  0.00    -0.388 OA
ATOM     29  H   UNL     1      25.325  36.310  13.133  1.00  0.00     0.211 HD
ENDBRANCH   8  28
ENDBRANCH   7   8
BRANCH   7  30
ATOM     30  O   UNL     1      25.035  35.314   9.373  1.00  0.00    -0.388 OA
ATOM     31  H   UNL     1      25.404  36.008   8.769  1.00  0.00     0.211 HD
ENDBRANCH   7  30
ENDBRANCH   6   7
ENDBRANCH   3   6
ENDBRANCH   1   2
BRANCH   1  32
ATOM     32  C   UNL     1      30.245  38.069  12.621  1.00  0.00     0.294 C 
BRANCH  32  33
ATOM     33  C   UNL     1      31.205  37.149  13.224  1.00  0.00     0.120 A 
ATOM     34  C   UNL     1      31.281  36.819  14.554  1.00  0.00     0.138 A 
ATOM     35  N   UNL     1      32.167  36.482  12.570  1.00  0.00    -0.132 NA
ATOM     36  N   UNL     1      32.297  35.952  14.670  1.00  0.00    -0.249 N 
ATOM     37  N   UNL     1      32.810  35.765  13.477  1.00  0.00    -0.067 NA
BRANCH  36  38
ATOM     38  C   UNL     1      32.722  35.343  15.942  1.00  0.00     0.181 C 
BRANCH  38  39
ATOM     39  C   UNL     1      31.673  34.365  16.420  1.00  0.00     0.170 C 
BRANCH  39  40
ATOM     40  O   UNL     1      31.953  34.157  17.789  1.00  0.00    -0.388 OA
ATOM     41  H   UNL     1      31.977  33.211  18.025  1.00  0.00     0.211 HD
ENDBRANCH  39  40
BRANCH  39  42
ATOM     42  C   UNL     1      31.794  33.092  15.645  1.00  0.00     0.239 C 
BRANCH  42  43
ATOM     43  N   UNL     1      30.527  32.364  15.762  1.00  0.00    -0.227 N 
ATOM     44  C   UNL     1      30.321  31.224  16.462  1.00  0.00     0.204 A 
ATOM     45  C   UNL     1      29.395  32.743  15.196  1.00  0.00     0.434 A 
ATOM     46  C   UNL     1      29.013  30.891  16.319  1.00  0.00     0.245 A 
ATOM     47  N   UNL     1      28.455  31.822  15.547  1.00  0.00    -0.074 NA
BRANCH  45  48
ATOM     48  N   UNL     1      29.152  33.890  14.364  1.00  0.00    -0.047 N 
ATOM     49  O   UNL     1      29.641  34.022  13.231  1.00  0.00    -0.390 OA
ATOM     50  O   UNL     1      28.338  34.898  14.839  1.00  0.00    -0.390 OA
ENDBRANCH  45  48
ENDBRANCH  42  43
ENDBRANCH  39  42
ENDBRANCH  38  39
ENDBRANCH  36  38
ENDBRANCH  32  33
ENDBRANCH   1  32
TORSDOF 20
BEGIN_RES LYS A 131
REMARK  4 active torsions:
REMARK  status: ('A' for Active; 'I' for Inactive)
REMARK    1  A    between atoms: CA   and  CB  
REMARK    2  A    between atoms: CB   and  CG  
REMARK    3  A    between atoms: CG   and  CD  
REMARK    4  A    between atoms: CD   and  CE  
ROOT
ATOM      1  CA  LYS A 131      29.867  25.555  16.977  1.00 20.52     0.186 C 
ENDROOT
BRANCH   1   2
ATOM      2  CB  LYS A 131      28.345  25.722  17.026  1.00 20.94     0.034 C 
BRANCH   2   3
ATOM      3  CG  LYS A 131      27.601  24.403  16.888  1.00 22.96     0.005 C 
BRANCH   3   4
ATOM      4  CD  LYS A 131      26.165  24.514  17.319  1.00 24.33     0.041 C 
BRANCH   4   5
ATOM      5  CE  LYS A 131      26.072  25.407  18.552  1.00 26.91     0.338 C 
ATOM      6  NZ  LYS A 131      25.495  24.657  19.693  1.00 27.40     0.618 N 
ENDBRANCH   4   5
ENDBRANCH   3   4
ENDBRANCH   2   3
ENDBRANCH   1   2
END_RES LYS A 131
BEGIN_RES LYS A 135
REMARK  4 active torsions:
REMARK  status: ('A' for Active; 'I' for Inactive)
REMARK    5  A    between atoms: CA   and  CB  
REMARK    6  A    between atoms: CB   and  CG  
REMARK    7  A    between atoms: CG   and  CD  
REMARK    8  A    between atoms: CD   and  CE  
ROOT
ATOM      7  CA  LYS A 135      33.193  34.663   9.290  1.00 25.02     0.186 C 
ENDROOT
BRANCH   7   8
ATOM      8  CB  LYS A 135      32.060  35.360  10.034  1.00 26.63     0.034 C 
BRANCH   8   9
ATOM      9  CG  LYS A 135      30.710  34.732   9.800  1.00 29.45     0.005 C 
BRANCH   9  10
ATOM     10  CD  LYS A 135      30.467  34.520   8.314  1.00 32.00     0.041 C 
BRANCH  10  11
ATOM     11  CE  LYS A 135      29.025  34.830   7.961  1.00 34.25     0.338 C 
ATOM     12  NZ  LYS A 135      28.933  35.546   6.659  1.00 35.99     0.618 N 
ENDBRANCH  10  11
ENDBRANCH   9  10
ENDBRANCH   8   9
ENDBRANCH   7   8
END_RES LYS A 135
