REMARK VINA RESULT:    -4.679      7.374     12.728
REMARK INTER + INTRA:         -13.893
REMARK INTER:                  -8.364
REMARK INTRA:                  -5.529
REMARK UNBOUND:                -5.796
REMARK SMILES CC(=O)N[C@@H]1[C@@H](O)C[C@](O)(C(=O)O)O[C@H]1C(O)[C@H](O)CNC(=O)OCc1cn(C2CCCCC2)nn1
REMARK SMILES IDX 20 1 18 2 16 3 15 4 9 5 8 6 14 7 6 8 5 9 10 10 11 12 12 13
REMARK SMILES IDX 13 14 7 16 4 18 2 19 1 21 3 22 17 23 19 25 21 27 22 28 23 30
REMARK SMILES IDX 24 31 25 32 26 33 27 34 36 35 28 36 35 37 29 38 30 39 34 40
REMARK SMILES IDX 31 41 33 42 32 43
REMARK H PARENT 10 11 13 15 7 17 4 20 17 24 19 26 21 29
REMARK Flexibility Score: inf
ROOT
ATOM      1  C   UNL     1      22.765  34.685  12.218  1.00  0.00     0.154 C 
ENDROOT
BRANCH   1   2
ATOM      2  C   UNL     1      21.955  35.961  12.042  1.00  0.00     0.165 C 
BRANCH   2   3
ATOM      3  C   UNL     1      20.922  35.688  10.993  1.00  0.00     0.176 C 
BRANCH   3   4
ATOM      4  C   UNL     1      20.877  36.694   9.863  1.00  0.00     0.178 C 
ATOM      5  C   UNL     1      18.715  36.772   8.937  1.00  0.00     0.269 C 
ATOM      6  C   UNL     1      19.277  36.658   7.530  1.00  0.00     0.112 C 
ATOM      7  O   UNL     1      19.659  37.305   9.748  1.00  0.00    -0.332 OA
ATOM      8  C   UNL     1      20.530  35.824   7.511  1.00  0.00     0.145 C 
ATOM      9  C   UNL     1      21.507  36.242   8.592  1.00  0.00     0.142 C 
BRANCH   5  10
ATOM     10  O   UNL     1      18.177  35.556   9.356  1.00  0.00    -0.357 OA
ATOM     11  H   UNL     1      18.762  34.820   8.989  1.00  0.00     0.214 HD
ENDBRANCH   5  10
BRANCH   5  12
ATOM     12  C   UNL     1      17.600  37.754   8.835  1.00  0.00     0.364 C 
ATOM     13  O   UNL     1      16.530  37.553   9.453  1.00  0.00    -0.246 OA
BRANCH  12  14
ATOM     14  O   UNL     1      17.747  38.873   8.067  1.00  0.00    -0.477 OA
ATOM     15  H   UNL     1      17.408  38.970   7.118  1.00  0.00     0.296 HD
ENDBRANCH  12  14
ENDBRANCH   5  12
BRANCH   8  16
ATOM     16  O   UNL     1      20.232  34.470   7.580  1.00  0.00    -0.391 OA
ATOM     17  H   UNL     1      21.060  33.947   7.716  1.00  0.00     0.211 HD
ENDBRANCH   8  16
BRANCH   9  18
ATOM     18  N   UNL     1      22.404  37.266   8.052  1.00  0.00    -0.348 N 
ATOM     19  C   UNL     1      23.777  37.188   8.364  1.00  0.00     0.217 C 
ATOM     20  H   UNL     1      22.055  38.037   7.451  1.00  0.00     0.163 HD
ATOM     21  C   UNL     1      24.772  38.185   7.860  1.00  0.00     0.114 C 
ATOM     22  O   UNL     1      24.262  36.265   9.093  1.00  0.00    -0.275 OA
ENDBRANCH   9  18
ENDBRANCH   3   4
BRANCH   3  23
ATOM     23  O   UNL     1      20.869  34.373  10.610  1.00  0.00    -0.388 OA
ATOM     24  H   UNL     1      19.943  33.978  10.671  1.00  0.00     0.211 HD
ENDBRANCH   3  23
ENDBRANCH   2   3
BRANCH   2  25
ATOM     25  O   UNL     1      22.832  36.981  11.760  1.00  0.00    -0.388 OA
ATOM     26  H   UNL     1      22.492  37.812  12.129  1.00  0.00     0.211 HD
ENDBRANCH   2  25
ENDBRANCH   1   2
BRANCH   1  27
ATOM     27  N   UNL     1      24.059  34.884  11.607  1.00  0.00    -0.319 N 
ATOM     28  C   UNL     1      25.268  34.290  12.043  1.00  0.00     0.407 C 
ATOM     29  H   UNL     1      24.161  35.521  10.758  1.00  0.00     0.167 HD
ATOM     30  O   UNL     1      25.256  33.525  13.037  1.00  0.00    -0.225 OA
BRANCH  28  31
ATOM     31  O   UNL     1      26.474  34.535  11.393  1.00  0.00    -0.443 OA
BRANCH  31  32
ATOM     32  C   UNL     1      26.983  35.844  11.339  1.00  0.00     0.294 C 
BRANCH  32  33
ATOM     33  C   UNL     1      28.309  35.857  12.010  1.00  0.00     0.120 A 
ATOM     34  C   UNL     1      28.919  34.774  12.657  1.00  0.00     0.138 A 
ATOM     35  N   UNL     1      29.197  36.858  12.155  1.00  0.00    -0.132 NA
ATOM     36  N   UNL     1      30.110  35.158  13.148  1.00  0.00    -0.249 N 
ATOM     37  N   UNL     1      30.251  36.432  12.827  1.00  0.00    -0.067 NA
BRANCH  36  38
ATOM     38  C   UNL     1      31.056  34.333  13.886  1.00  0.00     0.109 C 
ATOM     39  C   UNL     1      31.705  35.169  14.967  1.00  0.00     0.027 C 
ATOM     40  C   UNL     1      30.328  33.187  14.553  1.00  0.00     0.027 C 
ATOM     41  C   UNL     1      31.139  34.848  16.337  1.00  0.00     0.002 C 
ATOM     42  C   UNL     1      31.322  32.522  15.490  1.00  0.00     0.002 C 
ATOM     43  C   UNL     1      31.458  33.423  16.701  1.00  0.00     0.000 C 
ENDBRANCH  36  38
ENDBRANCH  32  33
ENDBRANCH  31  32
ENDBRANCH  28  31
ENDBRANCH   1  27
TORSDOF 15
BEGIN_RES LYS A 131
REMARK  4 active torsions:
REMARK  status: ('A' for Active; 'I' for Inactive)
REMARK    1  A    between atoms: CA   and  CB  
REMARK    2  A    between atoms: CB   and  CG  
REMARK    3  A    between atoms: CG   and  CD  
REMARK    4  A    between atoms: CD   and  CE  
ROOT
ATOM      1  CA  LYS A 131      29.867  25.555  16.977  1.00 20.52     0.186 C 
ENDROOT
BRANCH   1   2
ATOM      2  CB  LYS A 131      28.345  25.722  17.026  1.00 20.94     0.034 C 
BRANCH   2   3
ATOM      3  CG  LYS A 131      27.601  24.406  16.859  1.00 22.96     0.005 C 
BRANCH   3   4
ATOM      4  CD  LYS A 131      26.620  24.165  17.974  1.00 24.33     0.041 C 
BRANCH   4   5
ATOM      5  CE  LYS A 131      25.657  23.052  17.572  1.00 26.91     0.338 C 
ATOM      6  NZ  LYS A 131      24.395  23.624  17.047  1.00 27.40     0.618 N 
ENDBRANCH   4   5
ENDBRANCH   3   4
ENDBRANCH   2   3
ENDBRANCH   1   2
END_RES LYS A 131
BEGIN_RES LYS A 135
REMARK  4 active torsions:
REMARK  status: ('A' for Active; 'I' for Inactive)
REMARK    5  A    between atoms: CA   and  CB  
REMARK    6  A    between atoms: CB   and  CG  
REMARK    7  A    between atoms: CG   and  CD  
REMARK    8  A    between atoms: CD   and  CE  
ROOT
ATOM      7  CA  LYS A 135      33.193  34.663   9.290  1.00 25.02     0.186 C 
ENDROOT
BRANCH   7   8
ATOM      8  CB  LYS A 135      32.060  35.360  10.034  1.00 26.63     0.034 C 
BRANCH   8   9
ATOM      9  CG  LYS A 135      30.824  35.563   9.196  1.00 29.45     0.005 C 
BRANCH   9  10
ATOM     10  CD  LYS A 135      30.102  34.243   8.976  1.00 32.00     0.041 C 
BRANCH  10  11
ATOM     11  CE  LYS A 135      28.725  34.480   8.386  1.00 34.25     0.338 C 
ATOM     12  NZ  LYS A 135      28.807  35.311   7.152  1.00 35.99     0.618 N 
ENDBRANCH  10  11
ENDBRANCH   9  10
ENDBRANCH   8   9
ENDBRANCH   7   8
END_RES LYS A 135
