REMARK VINA RESULT:    -5.511      3.054      5.914
REMARK INTER + INTRA:         -14.023
REMARK INTER:                  -8.808
REMARK INTRA:                  -5.215
REMARK UNBOUND:                -4.485
REMARK SMILES CC(=O)N[C@@H]1[C@@H](O)C[C@](O)(C(=O)O)O[C@H]1C(O)[C@H](O)CNC(=O)OCc1cn(-c2ccccc2)nn1
REMARK SMILES IDX 20 1 18 2 16 3 15 4 9 5 8 6 14 7 6 8 5 9 10 10 11 12 12 13
REMARK SMILES IDX 13 14 7 16 4 18 2 19 1 21 3 22 17 23 19 25 21 27 22 28 23 30
REMARK SMILES IDX 24 31 25 32 26 33 27 34 36 35 28 36 35 37 29 38 30 39 34 40
REMARK SMILES IDX 31 41 33 42 32 43
REMARK H PARENT 10 11 13 15 7 17 4 20 17 24 19 26 21 29
REMARK Flexibility Score: inf
ROOT
ATOM      1  C   UNL     1      19.477  40.646   8.773  1.00  0.00     0.154 C 
ENDROOT
BRANCH   1   2
ATOM      2  C   UNL     1      18.942  39.306   9.238  1.00  0.00     0.165 C 
BRANCH   2   3
ATOM      3  C   UNL     1      19.549  38.157   8.463  1.00  0.00     0.176 C 
BRANCH   3   4
ATOM      4  C   UNL     1      19.480  36.862   9.202  1.00  0.00     0.178 C 
ATOM      5  C   UNL     1      21.542  36.518  10.271  1.00  0.00     0.269 C 
ATOM      6  C   UNL     1      22.040  35.610   9.202  1.00  0.00     0.112 C 
ATOM      7  O   UNL     1      20.226  36.777  10.318  1.00  0.00    -0.332 OA
ATOM      8  C   UNL     1      21.148  35.503   8.000  1.00  0.00     0.145 C 
ATOM      9  C   UNL     1      19.697  35.662   8.327  1.00  0.00     0.142 C 
BRANCH   5  10
ATOM     10  O   UNL     1      22.224  37.743  10.103  1.00  0.00    -0.357 OA
ATOM     11  H   UNL     1      22.362  37.863   9.122  1.00  0.00     0.214 HD
ENDBRANCH   5  10
BRANCH   5  12
ATOM     12  C   UNL     1      21.969  36.010  11.603  1.00  0.00     0.364 C 
ATOM     13  O   UNL     1      21.602  36.537  12.676  1.00  0.00    -0.246 OA
BRANCH  12  14
ATOM     14  O   UNL     1      22.801  34.915  11.682  1.00  0.00    -0.477 OA
ATOM     15  H   UNL     1      22.743  34.202  12.398  1.00  0.00     0.296 HD
ENDBRANCH  12  14
ENDBRANCH   5  12
BRANCH   8  16
ATOM     16  O   UNL     1      21.526  36.447   7.030  1.00  0.00    -0.391 OA
ATOM     17  H   UNL     1      21.259  36.184   6.128  1.00  0.00     0.211 HD
ENDBRANCH   8  16
BRANCH   9  18
ATOM     18  N   UNL     1      19.290  34.485   9.099  1.00  0.00    -0.348 N 
ATOM     19  C   UNL     1      18.012  33.886   8.929  1.00  0.00     0.217 C 
ATOM     20  H   UNL     1      19.928  34.051   9.799  1.00  0.00     0.163 HD
ATOM     21  C   UNL     1      17.580  32.691   9.702  1.00  0.00     0.114 C 
ATOM     22  O   UNL     1      17.185  34.355   8.100  1.00  0.00    -0.275 OA
ENDBRANCH   9  18
ENDBRANCH   3   4
BRANCH   3  23
ATOM     23  O   UNL     1      18.818  38.094   7.266  1.00  0.00    -0.388 OA
ATOM     24  H   UNL     1      17.965  37.627   7.515  1.00  0.00     0.211 HD
ENDBRANCH   3  23
ENDBRANCH   2   3
BRANCH   2  25
ATOM     25  O   UNL     1      17.559  39.292   9.257  1.00  0.00    -0.388 OA
ATOM     26  H   UNL     1      17.170  38.614   8.668  1.00  0.00     0.211 HD
ENDBRANCH   2  25
ENDBRANCH   1   2
BRANCH   1  27
ATOM     27  N   UNL     1      20.628  40.543   7.931  1.00  0.00    -0.319 N 
ATOM     28  C   UNL     1      21.452  41.648   7.584  1.00  0.00     0.407 C 
ATOM     29  H   UNL     1      20.907  39.617   7.531  1.00  0.00     0.167 HD
ATOM     30  O   UNL     1      21.213  42.787   8.003  1.00  0.00    -0.225 OA
BRANCH  28  31
ATOM     31  O   UNL     1      22.560  41.492   6.758  1.00  0.00    -0.443 OA
BRANCH  31  32
ATOM     32  C   UNL     1      23.858  41.404   7.325  1.00  0.00     0.294 C 
BRANCH  32  33
ATOM     33  C   UNL     1      24.216  39.969   7.386  1.00  0.00     0.121 A 
ATOM     34  C   UNL     1      25.457  39.409   7.176  1.00  0.00     0.144 A 
ATOM     35  N   UNL     1      23.367  38.959   7.664  1.00  0.00    -0.131 NA
ATOM     36  N   UNL     1      25.301  38.085   7.336  1.00  0.00    -0.220 N 
ATOM     37  N   UNL     1      24.043  37.829   7.629  1.00  0.00    -0.062 NA
BRANCH  36  38
ATOM     38  C   UNL     1      26.343  37.124   7.206  1.00  0.00     0.066 A 
ATOM     39  C   UNL     1      27.372  37.359   6.311  1.00  0.00     0.028 A 
ATOM     40  C   UNL     1      26.332  35.966   7.961  1.00  0.00     0.028 A 
ATOM     41  C   UNL     1      28.368  36.404   6.210  1.00  0.00     0.002 A 
ATOM     42  C   UNL     1      27.329  35.030   7.848  1.00  0.00     0.002 A 
ATOM     43  C   UNL     1      28.356  35.257   6.959  1.00  0.00     0.000 A 
ENDBRANCH  36  38
ENDBRANCH  32  33
ENDBRANCH  31  32
ENDBRANCH  28  31
ENDBRANCH   1  27
TORSDOF 15
BEGIN_RES LYS A 131
REMARK  4 active torsions:
REMARK  status: ('A' for Active; 'I' for Inactive)
REMARK    1  A    between atoms: CA   and  CB  
REMARK    2  A    between atoms: CB   and  CG  
REMARK    3  A    between atoms: CG   and  CD  
REMARK    4  A    between atoms: CD   and  CE  
ROOT
ATOM      1  CA  LYS A 131      29.867  25.555  16.977  1.00 20.52     0.186 C 
ENDROOT
BRANCH   1   2
ATOM      2  CB  LYS A 131      28.345  25.722  17.026  1.00 20.94     0.034 C 
BRANCH   2   3
ATOM      3  CG  LYS A 131      27.602  24.397  16.950  1.00 22.96     0.005 C 
BRANCH   3   4
ATOM      4  CD  LYS A 131      26.498  24.307  17.967  1.00 24.33     0.041 C 
BRANCH   4   5
ATOM      5  CE  LYS A 131      25.197  23.921  17.272  1.00 26.91     0.338 C 
ATOM      6  NZ  LYS A 131      24.857  22.506  17.553  1.00 27.40     0.618 N 
ENDBRANCH   4   5
ENDBRANCH   3   4
ENDBRANCH   2   3
ENDBRANCH   1   2
END_RES LYS A 131
BEGIN_RES LYS A 135
REMARK  4 active torsions:
REMARK  status: ('A' for Active; 'I' for Inactive)
REMARK    5  A    between atoms: CA   and  CB  
REMARK    6  A    between atoms: CB   and  CG  
REMARK    7  A    between atoms: CG   and  CD  
REMARK    8  A    between atoms: CD   and  CE  
ROOT
ATOM      7  CA  LYS A 135      33.193  34.663   9.290  1.00 25.02     0.186 C 
ENDROOT
BRANCH   7   8
ATOM      8  CB  LYS A 135      32.060  35.360  10.034  1.00 26.63     0.034 C 
BRANCH   8   9
ATOM      9  CG  LYS A 135      30.692  34.844   9.669  1.00 29.45     0.005 C 
BRANCH   9  10
ATOM     10  CD  LYS A 135      29.623  35.504  10.525  1.00 32.00     0.041 C 
BRANCH  10  11
ATOM     11  CE  LYS A 135      29.450  36.959  10.133  1.00 34.25     0.338 C 
ATOM     12  NZ  LYS A 135      29.724  37.862  11.286  1.00 35.99     0.618 N 
ENDBRANCH  10  11
ENDBRANCH   9  10
ENDBRANCH   8   9
ENDBRANCH   7   8
END_RES LYS A 135
