REMARK VINA RESULT:    -4.225      5.986     12.998
REMARK INTER + INTRA:         -13.828
REMARK INTER:                  -8.298
REMARK INTRA:                  -5.530
REMARK UNBOUND:                -6.145
REMARK SMILES CC(=O)N[C@@H]1[C@@H](O)C[C@](O)(C(=O)O)O[C@H]1C(O)[C@H](O)CNC(=O)OCc1cn(C(C)(C)CO)nn1
REMARK SMILES IDX 21 1 22 2 23 3 20 5 18 6 16 7 15 8 9 9 8 10 14 11 6 12 5 13
REMARK SMILES IDX 10 14 11 16 12 17 13 18 7 20 4 22 2 23 1 25 3 26 17 27 19 29
REMARK SMILES IDX 24 31 25 32 26 33 27 34 35 35 28 36 34 37 29 38 30 39 31 40
REMARK SMILES IDX 32 41 33 42
REMARK H PARENT 21 4 10 15 13 19 7 21 4 24 17 28 19 30 33 43
REMARK Flexibility Score: inf
ROOT
ATOM      1  N   UNL     1      28.501  29.586  16.302  1.00  0.00    -0.319 N 
ATOM      2  C   UNL     1      27.169  29.161  16.607  1.00  0.00     0.407 C 
ATOM      3  O   UNL     1      26.151  29.788  16.156  1.00  0.00    -0.225 OA
ATOM      4  H   UNL     1      29.292  29.035  16.684  1.00  0.00     0.167 HD
ENDROOT
BRANCH   1   5
ATOM      5  C   UNL     1      28.704  30.749  15.463  1.00  0.00     0.154 C 
BRANCH   5   6
ATOM      6  C   UNL     1      29.408  31.849  16.155  1.00  0.00     0.165 C 
BRANCH   6   7
ATOM      7  C   UNL     1      30.341  32.691  15.369  1.00  0.00     0.176 C 
BRANCH   7   8
ATOM      8  C   UNL     1      30.308  34.129  15.822  1.00  0.00     0.178 C 
ATOM      9  C   UNL     1      31.420  35.272  14.075  1.00  0.00     0.269 C 
ATOM     10  C   UNL     1      32.589  35.564  15.034  1.00  0.00     0.112 C 
ATOM     11  O   UNL     1      30.269  34.970  14.730  1.00  0.00    -0.332 OA
ATOM     12  C   UNL     1      31.957  35.843  16.356  1.00  0.00     0.145 C 
ATOM     13  C   UNL     1      31.350  34.493  16.837  1.00  0.00     0.142 C 
BRANCH   9  14
ATOM     14  O   UNL     1      31.843  34.360  13.130  1.00  0.00    -0.357 OA
ATOM     15  H   UNL     1      32.801  34.497  12.935  1.00  0.00     0.214 HD
ENDBRANCH   9  14
BRANCH   9  16
ATOM     16  C   UNL     1      31.140  36.567  13.338  1.00  0.00     0.364 C 
ATOM     17  O   UNL     1      32.031  37.119  12.650  1.00  0.00    -0.246 OA
BRANCH  16  18
ATOM     18  O   UNL     1      29.881  37.115  13.448  1.00  0.00    -0.477 OA
ATOM     19  H   UNL     1      29.731  38.116  13.389  1.00  0.00     0.296 HD
ENDBRANCH  16  18
ENDBRANCH   9  16
BRANCH  12  20
ATOM     20  O   UNL     1      32.836  36.326  17.305  1.00  0.00    -0.391 OA
ATOM     21  H   UNL     1      33.118  35.551  17.858  1.00  0.00     0.211 HD
ENDBRANCH  12  20
BRANCH  13  22
ATOM     22  N   UNL     1      30.777  34.870  18.139  1.00  0.00    -0.348 N 
ATOM     23  C   UNL     1      30.799  34.033  19.260  1.00  0.00     0.217 C 
ATOM     24  H   UNL     1      30.341  35.813  18.202  1.00  0.00     0.163 HD
ATOM     25  C   UNL     1      30.223  34.391  20.582  1.00  0.00     0.114 C 
ATOM     26  O   UNL     1      31.339  32.898  19.153  1.00  0.00    -0.275 OA
ENDBRANCH  13  22
ENDBRANCH   7   8
BRANCH   7  27
ATOM     27  O   UNL     1      31.553  32.185  15.033  1.00  0.00    -0.388 OA
ATOM     28  H   UNL     1      32.329  32.747  15.292  1.00  0.00     0.211 HD
ENDBRANCH   7  27
ENDBRANCH   6   7
BRANCH   6  29
ATOM     29  O   UNL     1      30.113  31.329  17.264  1.00  0.00    -0.388 OA
ATOM     30  H   UNL     1      29.490  30.763  17.772  1.00  0.00     0.211 HD
ENDBRANCH   6  29
ENDBRANCH   5   6
ENDBRANCH   1   5
BRANCH   2  31
ATOM     31  O   UNL     1      27.006  28.057  17.403  1.00  0.00    -0.443 OA
BRANCH  31  32
ATOM     32  C   UNL     1      26.839  28.123  18.788  1.00  0.00     0.294 C 
BRANCH  32  33
ATOM     33  C   UNL     1      28.055  28.656  19.456  1.00  0.00     0.120 A 
ATOM     34  C   UNL     1      28.911  27.910  20.226  1.00  0.00     0.139 A 
ATOM     35  N   UNL     1      28.539  29.898  19.447  1.00  0.00    -0.132 NA
ATOM     36  N   UNL     1      29.890  28.707  20.665  1.00  0.00    -0.244 N 
ATOM     37  N   UNL     1      29.636  29.921  20.171  1.00  0.00    -0.066 NA
BRANCH  36  38
ATOM     38  C   UNL     1      30.988  28.303  21.505  1.00  0.00     0.082 C 
ATOM     39  C   UNL     1      31.594  27.007  21.010  1.00  0.00     0.039 C 
ATOM     40  C   UNL     1      30.473  28.133  22.928  1.00  0.00     0.039 C 
BRANCH  38  41
ATOM     41  C   UNL     1      32.026  29.394  21.544  1.00  0.00     0.186 C 
BRANCH  41  42
ATOM     42  O   UNL     1      33.307  28.835  21.588  1.00  0.00    -0.394 OA
ATOM     43  H   UNL     1      33.316  28.126  22.280  1.00  0.00     0.210 HD
ENDBRANCH  41  42
ENDBRANCH  38  41
ENDBRANCH  36  38
ENDBRANCH  32  33
ENDBRANCH  31  32
ENDBRANCH   2  31
TORSDOF 17
BEGIN_RES LYS A 131
REMARK  4 active torsions:
REMARK  status: ('A' for Active; 'I' for Inactive)
REMARK    1  A    between atoms: CA   and  CB  
REMARK    2  A    between atoms: CB   and  CG  
REMARK    3  A    between atoms: CG   and  CD  
REMARK    4  A    between atoms: CD   and  CE  
ROOT
ATOM      1  CA  LYS A 131      29.867  25.555  16.977  1.00 20.52     0.186 C 
ENDROOT
BRANCH   1   2
ATOM      2  CB  LYS A 131      28.345  25.722  17.026  1.00 20.94     0.034 C 
BRANCH   2   3
ATOM      3  CG  LYS A 131      27.599  24.473  16.583  1.00 22.96     0.005 C 
BRANCH   3   4
ATOM      4  CD  LYS A 131      27.021  23.715  17.746  1.00 24.33     0.041 C 
BRANCH   4   5
ATOM      5  CE  LYS A 131      25.498  23.763  17.679  1.00 26.91     0.338 C 
ATOM      6  NZ  LYS A 131      24.940  22.394  17.585  1.00 27.40     0.618 N 
ENDBRANCH   4   5
ENDBRANCH   3   4
ENDBRANCH   2   3
ENDBRANCH   1   2
END_RES LYS A 131
BEGIN_RES LYS A 135
REMARK  4 active torsions:
REMARK  status: ('A' for Active; 'I' for Inactive)
REMARK    5  A    between atoms: CA   and  CB  
REMARK    6  A    between atoms: CB   and  CG  
REMARK    7  A    between atoms: CG   and  CD  
REMARK    8  A    between atoms: CD   and  CE  
ROOT
ATOM      7  CA  LYS A 135      33.193  34.663   9.290  1.00 25.02     0.186 C 
ENDROOT
BRANCH   7   8
ATOM      8  CB  LYS A 135      32.060  35.360  10.034  1.00 26.63     0.034 C 
BRANCH   8   9
ATOM      9  CG  LYS A 135      30.709  34.736   9.796  1.00 29.45     0.005 C 
BRANCH   9  10
ATOM     10  CD  LYS A 135      30.473  34.518   8.309  1.00 32.00     0.041 C 
BRANCH  10  11
ATOM     11  CE  LYS A 135      29.025  34.794   7.954  1.00 34.25     0.338 C 
ATOM     12  NZ  LYS A 135      28.920  35.537   6.667  1.00 35.99     0.618 N 
ENDBRANCH  10  11
ENDBRANCH   9  10
ENDBRANCH   8   9
ENDBRANCH   7   8
END_RES LYS A 135
