REMARK VINA RESULT:    -4.804      4.649      9.950
REMARK INTER + INTRA:         -15.558
REMARK INTER:                 -10.618
REMARK INTRA:                  -4.940
REMARK UNBOUND:                -6.121
REMARK SMILES CC(=O)N[C@@H]1[C@@H](O)C[C@](O)(C(=O)O)O[C@H]1C(O)[C@H](O)CNC(=O)OCc1cn(C[C@@H](C)CN2CCN(c3ccc(Cl)cc3)CC2)nn1
REMARK SMILES IDX 24 1 22 2 21 3 23 5 20 6 18 7 16 8 15 9 9 10 8 11 14 12 6 13
REMARK SMILES IDX 5 14 10 15 11 17 12 18 13 19 7 21 4 23 2 24 1 26 3 27 17 28
REMARK SMILES IDX 19 30 25 32 26 33 27 34 47 35 28 36 46 37 29 38 30 39 31 40
REMARK SMILES IDX 32 41 33 42 34 43 45 44 35 45 44 46 36 47 37 48 38 49 43 50
REMARK SMILES IDX 39 51 42 52 40 53 41 54
REMARK H PARENT 21 4 10 16 13 20 7 22 4 25 17 29 19 31
REMARK Flexibility Score: inf
ROOT
ATOM      1  O   UNL     1      24.700  36.169  10.725  1.00  0.00    -0.443 OA
ENDROOT
BRANCH   1   2
ATOM      2  C   UNL     1      25.337  36.382  11.937  1.00  0.00     0.407 C 
ATOM      3  N   UNL     1      25.058  35.652  13.126  1.00  0.00    -0.319 N 
ATOM      4  H   UNL     1      24.320  34.924  13.060  1.00  0.00     0.167 HD
ATOM      5  O   UNL     1      26.215  37.288  11.947  1.00  0.00    -0.225 OA
BRANCH   3   6
ATOM      6  C   UNL     1      25.814  35.989  14.287  1.00  0.00     0.154 C 
BRANCH   6   7
ATOM      7  C   UNL     1      26.758  34.968  14.784  1.00  0.00     0.165 C 
BRANCH   7   8
ATOM      8  C   UNL     1      28.218  35.202  14.443  1.00  0.00     0.176 C 
BRANCH   8   9
ATOM      9  C   UNL     1      28.884  33.850  14.706  1.00  0.00     0.178 C 
ATOM     10  C   UNL     1      28.890  32.209  16.365  1.00  0.00     0.269 C 
ATOM     11  C   UNL     1      30.369  32.028  16.179  1.00  0.00     0.112 C 
ATOM     12  O   UNL     1      28.410  33.407  15.910  1.00  0.00    -0.332 OA
ATOM     13  C   UNL     1      30.910  32.568  14.904  1.00  0.00     0.145 C 
ATOM     14  C   UNL     1      30.368  34.006  14.752  1.00  0.00     0.142 C 
BRANCH  10  15
ATOM     15  O   UNL     1      28.702  32.214  17.772  1.00  0.00    -0.357 OA
ATOM     16  H   UNL     1      28.290  33.045  18.071  1.00  0.00     0.214 HD
ENDBRANCH  10  15
BRANCH  10  17
ATOM     17  C   UNL     1      28.094  31.055  15.853  1.00  0.00     0.364 C 
ATOM     18  O   UNL     1      28.643  29.939  15.670  1.00  0.00    -0.246 OA
BRANCH  17  19
ATOM     19  O   UNL     1      26.741  31.143  15.559  1.00  0.00    -0.477 OA
ATOM     20  H   UNL     1      26.345  31.006  14.637  1.00  0.00     0.296 HD
ENDBRANCH  17  19
ENDBRANCH  10  17
BRANCH  13  21
ATOM     21  O   UNL     1      32.300  32.638  15.000  1.00  0.00    -0.391 OA
ATOM     22  H   UNL     1      32.573  33.367  15.617  1.00  0.00     0.211 HD
ENDBRANCH  13  21
BRANCH  14  23
ATOM     23  N   UNL     1      30.913  34.613  13.566  1.00  0.00    -0.348 N 
ATOM     24  C   UNL     1      31.820  35.693  13.644  1.00  0.00     0.217 C 
ATOM     25  H   UNL     1      30.632  34.249  12.640  1.00  0.00     0.163 HD
ATOM     26  C   UNL     1      32.323  36.248  12.353  1.00  0.00     0.114 C 
ATOM     27  O   UNL     1      32.209  36.186  14.724  1.00  0.00    -0.275 OA
ENDBRANCH  14  23
ENDBRANCH   8   9
BRANCH   8  28
ATOM     28  O   UNL     1      28.311  35.546  13.085  1.00  0.00    -0.388 OA
ATOM     29  H   UNL     1      27.517  36.106  12.889  1.00  0.00     0.211 HD
ENDBRANCH   8  28
ENDBRANCH   7   8
BRANCH   7  30
ATOM     30  O   UNL     1      26.445  33.761  14.098  1.00  0.00    -0.388 OA
ATOM     31  H   UNL     1      26.169  34.067  13.187  1.00  0.00     0.211 HD
ENDBRANCH   7  30
ENDBRANCH   6   7
ENDBRANCH   3   6
ENDBRANCH   1   2
BRANCH   1  32
ATOM     32  C   UNL     1      25.221  35.244   9.784  1.00  0.00     0.294 C 
BRANCH  32  33
ATOM     33  C   UNL     1      25.903  35.957   8.681  1.00  0.00     0.120 A 
ATOM     34  C   UNL     1      25.673  37.297   8.360  1.00  0.00     0.138 A 
ATOM     35  N   UNL     1      26.830  35.563   7.797  1.00  0.00    -0.132 NA
ATOM     36  N   UNL     1      26.442  37.667   7.326  1.00  0.00    -0.252 N 
ATOM     37  N   UNL     1      27.150  36.564   6.997  1.00  0.00    -0.067 NA
BRANCH  36  38
ATOM     38  C   UNL     1      26.557  38.958   6.672  1.00  0.00     0.150 C 
BRANCH  38  39
ATOM     39  C   UNL     1      27.912  39.043   5.958  1.00  0.00     0.022 C 
ATOM     40  C   UNL     1      27.773  38.933   4.486  1.00  0.00     0.011 C 
BRANCH  39  41
ATOM     41  C   UNL     1      28.767  40.096   6.528  1.00  0.00     0.089 C 
BRANCH  41  42
ATOM     42  N   UNL     1      30.163  39.901   6.287  1.00  0.00    -0.299 NA
ATOM     43  C   UNL     1      30.641  40.885   5.280  1.00  0.00     0.106 C 
ATOM     44  C   UNL     1      30.923  40.248   7.484  1.00  0.00     0.106 C 
ATOM     45  C   UNL     1      32.119  40.825   5.118  1.00  0.00     0.132 C 
ATOM     46  C   UNL     1      32.276  39.546   7.287  1.00  0.00     0.132 C 
ATOM     47  N   UNL     1      32.827  39.992   6.040  1.00  0.00    -0.369 N 
BRANCH  47  48
ATOM     48  C   UNL     1      34.150  39.579   5.721  1.00  0.00     0.037 A 
ATOM     49  C   UNL     1      34.459  39.242   4.421  1.00  0.00     0.027 A 
ATOM     50  C   UNL     1      35.130  39.501   6.701  1.00  0.00     0.027 A 
ATOM     51  C   UNL     1      35.738  38.835   4.120  1.00  0.00     0.022 A 
ATOM     52  C   UNL     1      36.400  39.093   6.389  1.00  0.00     0.022 A 
ATOM     53  C   UNL     1      36.703  38.758   5.079  1.00  0.00     0.041 A 
ATOM     54  Cl  UNL     1      38.322  38.233   4.701  1.00  0.00    -0.084 Cl
ENDBRANCH  47  48
ENDBRANCH  41  42
ENDBRANCH  39  41
ENDBRANCH  38  39
ENDBRANCH  36  38
ENDBRANCH  32  33
ENDBRANCH   1  32
TORSDOF 19
BEGIN_RES LYS A 131
REMARK  4 active torsions:
REMARK  status: ('A' for Active; 'I' for Inactive)
REMARK    1  A    between atoms: CA   and  CB  
REMARK    2  A    between atoms: CB   and  CG  
REMARK    3  A    between atoms: CG   and  CD  
REMARK    4  A    between atoms: CD   and  CE  
ROOT
ATOM      1  CA  LYS A 131      29.867  25.555  16.977  1.00 20.52     0.186 C 
ENDROOT
BRANCH   1   2
ATOM      2  CB  LYS A 131      28.345  25.722  17.026  1.00 20.94     0.034 C 
BRANCH   2   3
ATOM      3  CG  LYS A 131      27.601  24.403  16.887  1.00 22.96     0.005 C 
BRANCH   3   4
ATOM      4  CD  LYS A 131      26.160  24.519  17.298  1.00 24.33     0.041 C 
BRANCH   4   5
ATOM      5  CE  LYS A 131      26.080  24.953  18.759  1.00 26.91     0.338 C 
ATOM      6  NZ  LYS A 131      25.451  23.892  19.581  1.00 27.40     0.618 N 
ENDBRANCH   4   5
ENDBRANCH   3   4
ENDBRANCH   2   3
ENDBRANCH   1   2
END_RES LYS A 131
BEGIN_RES LYS A 135
REMARK  4 active torsions:
REMARK  status: ('A' for Active; 'I' for Inactive)
REMARK    5  A    between atoms: CA   and  CB  
REMARK    6  A    between atoms: CB   and  CG  
REMARK    7  A    between atoms: CG   and  CD  
REMARK    8  A    between atoms: CD   and  CE  
ROOT
ATOM      7  CA  LYS A 135      33.193  34.663   9.290  1.00 25.02     0.186 C 
ENDROOT
BRANCH   7   8
ATOM      8  CB  LYS A 135      32.060  35.360  10.034  1.00 26.63     0.034 C 
BRANCH   8   9
ATOM      9  CG  LYS A 135      30.739  35.303   9.310  1.00 29.45     0.005 C 
BRANCH   9  10
ATOM     10  CD  LYS A 135      30.259  36.703   8.959  1.00 32.00     0.041 C 
BRANCH  10  11
ATOM     11  CE  LYS A 135      29.255  37.194   9.984  1.00 34.25     0.338 C 
ATOM     12  NZ  LYS A 135      29.756  38.407  10.688  1.00 35.99     0.618 N 
ENDBRANCH  10  11
ENDBRANCH   9  10
ENDBRANCH   8   9
ENDBRANCH   7   8
END_RES LYS A 135
