REMARK VINA RESULT:    -5.919      2.189      3.032
REMARK INTER + INTRA:         -16.325
REMARK INTER:                 -10.406
REMARK INTRA:                  -5.920
REMARK UNBOUND:                -5.216
REMARK SMILES CC(=O)N[C@@H]1[C@@H](O)C[C@](O)(C(=O)O)O[C@H]1C(O)[C@H](O)CNC(=O)OCc1cn(-c2cc(C(=O)O)nc(-c3ccccc3)c2)nn1
REMARK SMILES IDX 21 1 22 2 23 3 20 5 18 6 16 7 15 8 9 9 8 10 14 11 6 12 5 13
REMARK SMILES IDX 10 14 11 16 12 17 13 18 7 20 4 22 2 23 1 25 3 26 17 27 19 29
REMARK SMILES IDX 24 31 25 32 26 33 27 34 45 35 28 36 44 37 29 38 30 39 43 40
REMARK SMILES IDX 31 41 36 42 35 43 32 44 33 45 34 46 37 48 38 49 42 50 39 51
REMARK SMILES IDX 41 52 40 53
REMARK H PARENT 21 4 10 15 13 19 7 21 4 24 17 28 19 30 34 47
REMARK Flexibility Score: inf
ROOT
ATOM      1  N   UNL     1      27.177  36.095  18.677  1.00  0.00    -0.319 N 
ATOM      2  C   UNL     1      25.878  35.584  18.366  1.00  0.00     0.407 C 
ATOM      3  O   UNL     1      25.426  34.643  19.068  1.00  0.00    -0.225 OA
ATOM      4  H   UNL     1      27.500  36.886  18.047  1.00  0.00     0.167 HD
ENDROOT
BRANCH   1   5
ATOM      5  C   UNL     1      27.993  35.593  19.749  1.00  0.00     0.154 C 
BRANCH   5   6
ATOM      6  C   UNL     1      29.269  35.003  19.228  1.00  0.00     0.165 C 
BRANCH   6   7
ATOM      7  C   UNL     1      29.123  33.487  19.231  1.00  0.00     0.176 C 
BRANCH   7   8
ATOM      8  C   UNL     1      29.456  32.938  17.887  1.00  0.00     0.178 C 
ATOM      9  C   UNL     1      28.807  33.112  15.661  1.00  0.00     0.269 C 
ATOM     10  C   UNL     1      30.084  32.300  15.483  1.00  0.00     0.112 C 
ATOM     11  O   UNL     1      28.649  33.596  16.934  1.00  0.00    -0.332 OA
ATOM     12  C   UNL     1      29.999  31.119  16.384  1.00  0.00     0.145 C 
ATOM     13  C   UNL     1      29.230  31.481  17.674  1.00  0.00     0.142 C 
BRANCH   9  14
ATOM     14  O   UNL     1      27.767  32.217  15.310  1.00  0.00    -0.357 OA
ATOM     15  H   UNL     1      27.887  31.436  15.909  1.00  0.00     0.214 HD
ENDBRANCH   9  14
BRANCH   9  16
ATOM     16  C   UNL     1      28.764  34.254  14.729  1.00  0.00     0.364 C 
ATOM     17  O   UNL     1      29.464  34.247  13.700  1.00  0.00    -0.246 OA
BRANCH  16  18
ATOM     18  O   UNL     1      27.951  35.337  14.986  1.00  0.00    -0.477 OA
ATOM     19  H   UNL     1      28.141  36.269  14.628  1.00  0.00     0.296 HD
ENDBRANCH  16  18
ENDBRANCH   9  16
BRANCH  12  20
ATOM     20  O   UNL     1      29.465  29.995  15.793  1.00  0.00    -0.391 OA
ATOM     21  H   UNL     1      30.172  29.436  15.402  1.00  0.00     0.211 HD
ENDBRANCH  12  20
BRANCH  13  22
ATOM     22  N   UNL     1      29.677  30.609  18.725  1.00  0.00    -0.348 N 
ATOM     23  C   UNL     1      28.743  29.834  19.506  1.00  0.00     0.217 C 
ATOM     24  H   UNL     1      30.676  30.519  18.928  1.00  0.00     0.163 HD
ATOM     25  C   UNL     1      29.158  28.930  20.590  1.00  0.00     0.114 C 
ATOM     26  O   UNL     1      27.524  29.984  19.196  1.00  0.00    -0.275 OA
ENDBRANCH  13  22
ENDBRANCH   7   8
BRANCH   7  27
ATOM     27  O   UNL     1      27.927  33.048  19.732  1.00  0.00    -0.388 OA
ATOM     28  H   UNL     1      27.723  33.309  20.647  1.00  0.00     0.211 HD
ENDBRANCH   7  27
ENDBRANCH   6   7
BRANCH   6  29
ATOM     29  O   UNL     1      30.262  35.367  20.160  1.00  0.00    -0.388 OA
ATOM     30  H   UNL     1      30.081  34.830  20.959  1.00  0.00     0.211 HD
ENDBRANCH   6  29
ENDBRANCH   5   6
ENDBRANCH   1   5
BRANCH   2  31
ATOM     31  O   UNL     1      25.143  36.115  17.317  1.00  0.00    -0.443 OA
BRANCH  31  32
ATOM     32  C   UNL     1      24.099  35.331  16.776  1.00  0.00     0.294 C 
BRANCH  32  33
ATOM     33  C   UNL     1      24.613  34.729  15.518  1.00  0.00     0.121 A 
ATOM     34  C   UNL     1      24.576  35.296  14.238  1.00  0.00     0.144 A 
ATOM     35  N   UNL     1      25.217  33.535  15.316  1.00  0.00    -0.131 NA
ATOM     36  N   UNL     1      25.137  34.454  13.352  1.00  0.00    -0.220 N 
ATOM     37  N   UNL     1      25.516  33.398  14.031  1.00  0.00    -0.062 NA
BRANCH  36  38
ATOM     38  C   UNL     1      25.259  34.738  11.943  1.00  0.00     0.071 A 
ATOM     39  C   UNL     1      24.178  35.111  11.187  1.00  0.00     0.064 A 
ATOM     40  C   UNL     1      26.493  34.637  11.311  1.00  0.00     0.057 A 
ATOM     41  C   UNL     1      24.260  35.388   9.838  1.00  0.00     0.151 A 
ATOM     42  C   UNL     1      26.589  34.909   9.971  1.00  0.00     0.073 A 
ATOM     43  N   UNL     1      25.479  35.272   9.288  1.00  0.00    -0.241 NA
BRANCH  41  44
ATOM     44  C   UNL     1      23.100  35.783   9.056  1.00  0.00     0.354 C 
ATOM     45  O   UNL     1      23.157  36.824   8.373  1.00  0.00    -0.245 OA
BRANCH  44  46
ATOM     46  O   UNL     1      21.942  35.034   9.053  1.00  0.00    -0.477 OA
ATOM     47  H   UNL     1      21.045  35.395   9.396  1.00  0.00     0.297 HD
ENDBRANCH  44  46
ENDBRANCH  41  44
BRANCH  42  48
ATOM     48  C   UNL     1      27.884  34.809   9.273  1.00  0.00     0.000 A 
ATOM     49  C   UNL     1      27.981  35.336   8.004  1.00  0.00     0.010 A 
ATOM     50  C   UNL     1      28.951  34.208   9.878  1.00  0.00     0.010 A 
ATOM     51  C   UNL     1      29.187  35.244   7.351  1.00  0.00     0.001 A 
ATOM     52  C   UNL     1      30.145  34.137   9.186  1.00  0.00     0.001 A 
ATOM     53  C   UNL     1      30.294  34.648   7.917  1.00  0.00     0.000 A 
ENDBRANCH  42  48
ENDBRANCH  36  38
ENDBRANCH  32  33
ENDBRANCH  31  32
ENDBRANCH   2  31
TORSDOF 18
BEGIN_RES LYS A 131
REMARK  4 active torsions:
REMARK  status: ('A' for Active; 'I' for Inactive)
REMARK    1  A    between atoms: CA   and  CB  
REMARK    2  A    between atoms: CB   and  CG  
REMARK    3  A    between atoms: CG   and  CD  
REMARK    4  A    between atoms: CD   and  CE  
ROOT
ATOM      1  CA  LYS A 131      29.867  25.555  16.977  1.00 20.52     0.186 C 
ENDROOT
BRANCH   1   2
ATOM      2  CB  LYS A 131      28.345  25.722  17.026  1.00 20.94     0.034 C 
BRANCH   2   3
ATOM      3  CG  LYS A 131      27.602  24.399  16.926  1.00 22.96     0.005 C 
BRANCH   3   4
ATOM      4  CD  LYS A 131      26.159  24.527  17.329  1.00 24.33     0.041 C 
BRANCH   4   5
ATOM      5  CE  LYS A 131      25.881  23.619  18.523  1.00 26.91     0.338 C 
ATOM      6  NZ  LYS A 131      25.498  24.422  19.708  1.00 27.40     0.618 N 
ENDBRANCH   4   5
ENDBRANCH   3   4
ENDBRANCH   2   3
ENDBRANCH   1   2
END_RES LYS A 131
BEGIN_RES LYS A 135
REMARK  4 active torsions:
REMARK  status: ('A' for Active; 'I' for Inactive)
REMARK    5  A    between atoms: CA   and  CB  
REMARK    6  A    between atoms: CB   and  CG  
REMARK    7  A    between atoms: CG   and  CD  
REMARK    8  A    between atoms: CD   and  CE  
ROOT
ATOM      7  CA  LYS A 135      33.193  34.663   9.290  1.00 25.02     0.186 C 
ENDROOT
BRANCH   7   8
ATOM      8  CB  LYS A 135      32.060  35.360  10.034  1.00 26.63     0.034 C 
BRANCH   8   9
ATOM      9  CG  LYS A 135      32.536  36.317  11.097  1.00 29.45     0.005 C 
BRANCH   9  10
ATOM     10  CD  LYS A 135      31.589  37.501  11.215  1.00 32.00     0.041 C 
BRANCH  10  11
ATOM     11  CE  LYS A 135      30.971  37.826   9.868  1.00 34.25     0.338 C 
ATOM     12  NZ  LYS A 135      29.500  38.025   9.987  1.00 35.99     0.618 N 
ENDBRANCH  10  11
ENDBRANCH   9  10
ENDBRANCH   8   9
ENDBRANCH   7   8
END_RES LYS A 135
