REMARK VINA RESULT:    -4.620      5.946     10.003
REMARK INTER + INTRA:         -16.654
REMARK INTER:                  -8.749
REMARK INTRA:                  -7.905
REMARK UNBOUND:                -7.171
REMARK SMILES CCOCCc1c(-c2ccccc2)nc(N)nc1-n1cc(COC(=O)NC[C@@H](O)C(O)[C@@H]2O[C@@](O)(C(=O)O)C[C@H](O)[C@H]2NC(C)=O)nn1
REMARK SMILES IDX 23 1 24 2 26 3 25 5 27 6 28 7 30 8 32 9 34 10 39 11 33 12
REMARK SMILES IDX 40 13 42 14 35 15 36 17 37 18 38 19 41 21 43 23 44 24 45 26
REMARK SMILES IDX 46 27 31 28 29 30 22 32 21 33 20 34 47 35 19 36 48 37 18 38
REMARK SMILES IDX 17 39 6 40 15 41 7 42 14 43 5 44 4 45 3 46 2 47 1 48 16 49
REMARK SMILES IDX 8 52 9 53 13 54 10 55 12 56 11 57
REMARK H PARENT 26 4 35 16 38 20 41 22 43 25 31 29 29 31 16 50 16 51
REMARK Flexibility Score: inf
ROOT
ATOM      1  O   UNL     1      30.310  36.195  12.997  1.00  0.00    -0.443 OA
ENDROOT
BRANCH   1   2
ATOM      2  C   UNL     1      29.810  35.300  13.917  1.00  0.00     0.407 C 
ATOM      3  N   UNL     1      30.178  33.904  13.894  1.00  0.00    -0.319 N 
ATOM      4  H   UNL     1      30.838  33.645  13.133  1.00  0.00     0.167 HD
ATOM      5  O   UNL     1      29.014  35.729  14.789  1.00  0.00    -0.225 OA
BRANCH   3   6
ATOM      6  C   UNL     1      29.623  33.010  14.883  1.00  0.00     0.154 C 
BRANCH   6   7
ATOM      7  C   UNL     1      30.781  32.271  15.540  1.00  0.00     0.165 C 
BRANCH   7   8
ATOM      8  C   UNL     1      30.812  32.717  16.982  1.00  0.00     0.176 C 
BRANCH   8   9
ATOM      9  C   UNL     1      29.565  32.430  17.760  1.00  0.00     0.178 C 
ATOM     10  C   UNL     1      30.516  32.817  19.865  1.00  0.00     0.269 C 
ATOM     11  C   UNL     1      30.690  31.312  19.976  1.00  0.00     0.112 C 
ATOM     12  O   UNL     1      29.606  33.176  18.913  1.00  0.00    -0.332 OA
ATOM     13  C   UNL     1      29.427  30.651  19.461  1.00  0.00     0.145 C 
ATOM     14  C   UNL     1      29.229  30.999  17.972  1.00  0.00     0.142 C 
BRANCH  10  15
ATOM     15  O   UNL     1      31.796  33.329  19.620  1.00  0.00    -0.357 OA
ATOM     16  H   UNL     1      32.308  32.768  18.996  1.00  0.00     0.214 HD
ENDBRANCH  10  15
BRANCH  10  17
ATOM     17  C   UNL     1      30.059  33.381  21.152  1.00  0.00     0.364 C 
ATOM     18  O   UNL     1      28.843  33.580  21.336  1.00  0.00    -0.246 OA
BRANCH  17  19
ATOM     19  O   UNL     1      30.962  33.684  22.137  1.00  0.00    -0.477 OA
ATOM     20  H   UNL     1      30.720  33.947  23.084  1.00  0.00     0.296 HD
ENDBRANCH  17  19
ENDBRANCH  10  17
BRANCH  13  21
ATOM     21  O   UNL     1      29.464  29.290  19.656  1.00  0.00    -0.391 OA
ATOM     22  H   UNL     1      28.584  28.938  19.910  1.00  0.00     0.211 HD
ENDBRANCH  13  21
BRANCH  14  23
ATOM     23  N   UNL     1      27.812  30.709  17.717  1.00  0.00    -0.348 N 
ATOM     24  C   UNL     1      27.441  30.022  16.537  1.00  0.00     0.217 C 
ATOM     25  H   UNL     1      27.071  31.002  18.390  1.00  0.00     0.163 HD
ATOM     26  C   UNL     1      26.018  29.694  16.213  1.00  0.00     0.114 C 
ATOM     27  O   UNL     1      28.365  29.683  15.746  1.00  0.00    -0.275 OA
ENDBRANCH  14  23
ENDBRANCH   8   9
BRANCH   8  28
ATOM     28  O   UNL     1      30.835  34.147  16.869  1.00  0.00    -0.388 OA
ATOM     29  H   UNL     1      30.342  34.545  17.613  1.00  0.00     0.211 HD
ENDBRANCH   8  28
ENDBRANCH   7   8
BRANCH   7  30
ATOM     30  O   UNL     1      31.915  32.605  14.816  1.00  0.00    -0.388 OA
ATOM     31  H   UNL     1      32.211  31.873  14.235  1.00  0.00     0.211 HD
ENDBRANCH   7  30
ENDBRANCH   6   7
ENDBRANCH   3   6
ENDBRANCH   1   2
BRANCH   1  32
ATOM     32  C   UNL     1      31.510  36.924  13.129  1.00  0.00     0.294 C 
BRANCH  32  33
ATOM     33  C   UNL     1      32.379  36.279  14.165  1.00  0.00     0.121 A 
ATOM     34  C   UNL     1      32.639  36.712  15.440  1.00  0.00     0.146 A 
ATOM     35  N   UNL     1      33.080  35.133  14.027  1.00  0.00    -0.131 NA
ATOM     36  N   UNL     1      33.487  35.837  16.062  1.00  0.00    -0.202 N 
ATOM     37  N   UNL     1      33.721  34.896  15.156  1.00  0.00    -0.060 NA
BRANCH  36  38
ATOM     38  C   UNL     1      34.003  35.946  17.376  1.00  0.00     0.164 A 
ATOM     39  N   UNL     1      33.211  35.807  18.449  1.00  0.00    -0.193 NA
ATOM     40  C   UNL     1      35.357  36.232  17.591  1.00  0.00     0.026 A 
ATOM     41  C   UNL     1      33.696  35.938  19.710  1.00  0.00     0.222 A 
ATOM     42  C   UNL     1      35.847  36.367  18.859  1.00  0.00     0.081 A 
ATOM     43  N   UNL     1      34.986  36.213  19.930  1.00  0.00    -0.213 NA
BRANCH  40  44
ATOM     44  C   UNL     1      36.229  36.418  16.414  1.00  0.00     0.070 C 
BRANCH  44  45
ATOM     45  C   UNL     1      37.161  35.274  16.126  1.00  0.00     0.165 C 
BRANCH  45  46
ATOM     46  O   UNL     1      38.461  35.672  15.985  1.00  0.00    -0.381 OA
BRANCH  46  47
ATOM     47  C   UNL     1      39.382  34.787  16.495  1.00  0.00     0.156 C 
ATOM     48  C   UNL     1      38.720  33.541  17.045  1.00  0.00     0.035 C 
ENDBRANCH  46  47
ENDBRANCH  45  46
ENDBRANCH  44  45
ENDBRANCH  40  44
BRANCH  41  49
ATOM     49  N   UNL     1      32.824  35.782  20.812  1.00  0.00    -0.368 N 
ATOM     50  H   UNL     1      32.079  35.064  20.789  1.00  0.00     0.159 HD
ATOM     51  H   UNL     1      32.903  36.371  21.661  1.00  0.00     0.159 HD
ENDBRANCH  41  49
BRANCH  42  52
ATOM     52  C   UNL     1      37.209  36.773  19.143  1.00  0.00     0.001 A 
ATOM     53  C   UNL     1      37.802  37.958  18.900  1.00  0.00     0.010 A 
ATOM     54  C   UNL     1      38.005  35.794  19.780  1.00  0.00     0.010 A 
ATOM     55  C   UNL     1      39.141  38.190  19.268  1.00  0.00     0.001 A 
ATOM     56  C   UNL     1      39.306  36.007  20.142  1.00  0.00     0.001 A 
ATOM     57  C   UNL     1      39.903  37.229  19.887  1.00  0.00     0.000 A 
ENDBRANCH  42  52
ENDBRANCH  36  38
ENDBRANCH  32  33
ENDBRANCH   1  32
TORSDOF 21
BEGIN_RES LYS A 131
REMARK  4 active torsions:
REMARK  status: ('A' for Active; 'I' for Inactive)
REMARK    1  A    between atoms: CA   and  CB  
REMARK    2  A    between atoms: CB   and  CG  
REMARK    3  A    between atoms: CG   and  CD  
REMARK    4  A    between atoms: CD   and  CE  
ROOT
ATOM      1  CA  LYS A 131      29.867  25.555  16.977  1.00 20.52     0.186 C 
ENDROOT
BRANCH   1   2
ATOM      2  CB  LYS A 131      28.345  25.722  17.026  1.00 20.94     0.034 C 
BRANCH   2   3
ATOM      3  CG  LYS A 131      27.601  24.403  16.888  1.00 22.96     0.005 C 
BRANCH   3   4
ATOM      4  CD  LYS A 131      26.445  24.301  17.843  1.00 24.33     0.041 C 
BRANCH   4   5
ATOM      5  CE  LYS A 131      25.668  23.018  17.569  1.00 26.91     0.338 C 
ATOM      6  NZ  LYS A 131      24.287  23.330  17.131  1.00 27.40     0.618 N 
ENDBRANCH   4   5
ENDBRANCH   3   4
ENDBRANCH   2   3
ENDBRANCH   1   2
END_RES LYS A 131
BEGIN_RES LYS A 135
REMARK  4 active torsions:
REMARK  status: ('A' for Active; 'I' for Inactive)
REMARK    5  A    between atoms: CA   and  CB  
REMARK    6  A    between atoms: CB   and  CG  
REMARK    7  A    between atoms: CG   and  CD  
REMARK    8  A    between atoms: CD   and  CE  
ROOT
ATOM      7  CA  LYS A 135      33.193  34.663   9.290  1.00 25.02     0.186 C 
ENDROOT
BRANCH   7   8
ATOM      8  CB  LYS A 135      32.060  35.360  10.034  1.00 26.63     0.034 C 
BRANCH   8   9
ATOM      9  CG  LYS A 135      30.820  35.553   9.199  1.00 29.45     0.005 C 
BRANCH   9  10
ATOM     10  CD  LYS A 135      29.771  34.509   9.547  1.00 32.00     0.041 C 
BRANCH  10  11
ATOM     11  CE  LYS A 135      28.717  34.431   8.460  1.00 34.25     0.338 C 
ATOM     12  NZ  LYS A 135      29.129  35.204   7.256  1.00 35.99     0.618 N 
ENDBRANCH  10  11
ENDBRANCH   9  10
ENDBRANCH   8   9
ENDBRANCH   7   8
END_RES LYS A 135
