REMARK VINA RESULT:    -5.574      4.537      8.343
REMARK INTER + INTRA:         -14.723
REMARK INTER:                  -9.024
REMARK INTRA:                  -5.699
REMARK UNBOUND:                -4.749
REMARK SMILES CC(=O)N[C@@H]1[C@@H](O)C[C@](O)(C(=O)O)O[C@H]1C(O)[C@H](O)CNC(=O)OCc1cn(-c2ccc([N+](=O)[O-])cc2)nn1
REMARK SMILES IDX 21 1 22 2 23 3 20 5 18 6 16 7 15 8 9 9 8 10 14 11 6 12 5 13
REMARK SMILES IDX 10 14 11 16 12 17 13 18 7 20 4 22 2 23 1 25 3 26 17 27 19 29
REMARK SMILES IDX 24 31 25 32 26 33 27 34 39 35 28 36 38 37 29 38 30 39 37 40
REMARK SMILES IDX 31 41 36 42 32 43 33 44 34 45 35 46
REMARK H PARENT 21 4 10 15 13 19 7 21 4 24 17 28 19 30
REMARK Flexibility Score: inf
ROOT
ATOM      1  N   UNL     1      28.897  30.294  18.340  1.00  0.00    -0.319 N 
ATOM      2  C   UNL     1      27.729  30.766  18.966  1.00  0.00     0.407 C 
ATOM      3  O   UNL     1      27.549  31.960  19.265  1.00  0.00    -0.225 OA
ATOM      4  H   UNL     1      28.918  29.241  18.108  1.00  0.00     0.167 HD
ENDROOT
BRANCH   1   5
ATOM      5  C   UNL     1      30.014  31.088  18.007  1.00  0.00     0.154 C 
BRANCH   5   6
ATOM      6  C   UNL     1      30.492  31.162  16.613  1.00  0.00     0.165 C 
BRANCH   6   7
ATOM      7  C   UNL     1      31.088  32.365  16.041  1.00  0.00     0.176 C 
BRANCH   7   8
ATOM      8  C   UNL     1      30.119  33.553  16.034  1.00  0.00     0.178 C 
ATOM      9  C   UNL     1      28.419  34.402  14.692  1.00  0.00     0.269 C 
ATOM     10  C   UNL     1      28.404  35.484  15.747  1.00  0.00     0.112 C 
ATOM     11  O   UNL     1      29.142  33.287  15.051  1.00  0.00    -0.332 OA
ATOM     12  C   UNL     1      29.776  35.948  16.124  1.00  0.00     0.145 C 
ATOM     13  C   UNL     1      30.755  34.846  15.676  1.00  0.00     0.142 C 
BRANCH   9  14
ATOM     14  O   UNL     1      28.857  34.980  13.513  1.00  0.00    -0.357 OA
ATOM     15  H   UNL     1      29.210  34.282  12.926  1.00  0.00     0.214 HD
ENDBRANCH   9  14
BRANCH   9  16
ATOM     16  C   UNL     1      27.009  33.972  14.506  1.00  0.00     0.364 C 
ATOM     17  O   UNL     1      26.308  34.448  13.576  1.00  0.00    -0.246 OA
BRANCH  16  18
ATOM     18  O   UNL     1      26.430  33.037  15.348  1.00  0.00    -0.477 OA
ATOM     19  H   UNL     1      26.962  32.260  15.746  1.00  0.00     0.296 HD
ENDBRANCH  16  18
ENDBRANCH   9  16
BRANCH  12  20
ATOM     20  O   UNL     1      30.129  37.171  15.602  1.00  0.00    -0.391 OA
ATOM     21  H   UNL     1      30.519  37.024  14.704  1.00  0.00     0.211 HD
ENDBRANCH  12  20
BRANCH  13  22
ATOM     22  N   UNL     1      31.993  35.137  16.368  1.00  0.00    -0.348 N 
ATOM     23  C   UNL     1      33.097  35.727  15.668  1.00  0.00     0.217 C 
ATOM     24  H   UNL     1      32.137  34.939  17.376  1.00  0.00     0.163 HD
ATOM     25  C   UNL     1      34.390  36.051  16.310  1.00  0.00     0.114 C 
ATOM     26  O   UNL     1      32.942  35.973  14.453  1.00  0.00    -0.275 OA
ENDBRANCH  13  22
ENDBRANCH   7   8
BRANCH   7  27
ATOM     27  O   UNL     1      31.607  32.139  14.793  1.00  0.00    -0.388 OA
ATOM     28  H   UNL     1      31.851  32.934  14.270  1.00  0.00     0.211 HD
ENDBRANCH   7  27
ENDBRANCH   6   7
BRANCH   6  29
ATOM     29  O   UNL     1      29.422  30.646  15.826  1.00  0.00    -0.388 OA
ATOM     30  H   UNL     1      29.775  29.990  15.171  1.00  0.00     0.211 HD
ENDBRANCH   6  29
ENDBRANCH   5   6
ENDBRANCH   1   5
BRANCH   2  31
ATOM     31  O   UNL     1      26.723  29.817  19.260  1.00  0.00    -0.443 OA
BRANCH  31  32
ATOM     32  C   UNL     1      26.590  28.748  18.345  1.00  0.00     0.294 C 
BRANCH  32  33
ATOM     33  C   UNL     1      25.955  29.235  17.073  1.00  0.00     0.121 A 
ATOM     34  C   UNL     1      24.724  28.885  16.563  1.00  0.00     0.144 A 
ATOM     35  N   UNL     1      26.462  30.113  16.173  1.00  0.00    -0.131 NA
ATOM     36  N   UNL     1      24.507  29.536  15.394  1.00  0.00    -0.220 N 
ATOM     37  N   UNL     1      25.589  30.263  15.207  1.00  0.00    -0.062 NA
BRANCH  36  38
ATOM     38  C   UNL     1      23.354  29.440  14.562  1.00  0.00     0.067 A 
ATOM     39  C   UNL     1      22.075  29.547  15.064  1.00  0.00     0.035 A 
ATOM     40  C   UNL     1      23.474  29.236  13.199  1.00  0.00     0.035 A 
ATOM     41  C   UNL     1      20.972  29.452  14.239  1.00  0.00     0.088 A 
ATOM     42  C   UNL     1      22.371  29.141  12.373  1.00  0.00     0.088 A 
ATOM     43  C   UNL     1      21.090  29.247  12.872  1.00  0.00     0.269 A 
BRANCH  43  44
ATOM     44  N   UNL     1      19.966  29.150  12.020  1.00  0.00     0.062 N 
ATOM     45  O   UNL     1      19.359  30.190  11.714  1.00  0.00    -0.258 OA
ATOM     46  O   UNL     1      19.504  27.972  11.504  1.00  0.00    -0.258 OA
ENDBRANCH  43  44
ENDBRANCH  36  38
ENDBRANCH  32  33
ENDBRANCH  31  32
ENDBRANCH   2  31
TORSDOF 16
BEGIN_RES LYS A 131
REMARK  4 active torsions:
REMARK  status: ('A' for Active; 'I' for Inactive)
REMARK    1  A    between atoms: CA   and  CB  
REMARK    2  A    between atoms: CB   and  CG  
REMARK    3  A    between atoms: CG   and  CD  
REMARK    4  A    between atoms: CD   and  CE  
ROOT
ATOM      1  CA  LYS A 131      29.867  25.555  16.977  1.00 20.52     0.186 C 
ENDROOT
BRANCH   1   2
ATOM      2  CB  LYS A 131      28.345  25.722  17.026  1.00 20.94     0.034 C 
BRANCH   2   3
ATOM      3  CG  LYS A 131      27.601  24.401  16.904  1.00 22.96     0.005 C 
BRANCH   3   4
ATOM      4  CD  LYS A 131      26.143  24.538  17.242  1.00 24.33     0.041 C 
BRANCH   4   5
ATOM      5  CE  LYS A 131      25.908  24.083  18.679  1.00 26.91     0.338 C 
ATOM      6  NZ  LYS A 131      25.706  25.252  19.567  1.00 27.40     0.618 N 
ENDBRANCH   4   5
ENDBRANCH   3   4
ENDBRANCH   2   3
ENDBRANCH   1   2
END_RES LYS A 131
BEGIN_RES LYS A 135
REMARK  4 active torsions:
REMARK  status: ('A' for Active; 'I' for Inactive)
REMARK    5  A    between atoms: CA   and  CB  
REMARK    6  A    between atoms: CB   and  CG  
REMARK    7  A    between atoms: CG   and  CD  
REMARK    8  A    between atoms: CD   and  CE  
ROOT
ATOM      7  CA  LYS A 135      33.193  34.663   9.290  1.00 25.02     0.186 C 
ENDROOT
BRANCH   7   8
ATOM      8  CB  LYS A 135      32.060  35.360  10.034  1.00 26.63     0.034 C 
BRANCH   8   9
ATOM      9  CG  LYS A 135      30.699  34.788   9.732  1.00 29.45     0.005 C 
BRANCH   9  10
ATOM     10  CD  LYS A 135      30.559  34.493   8.247  1.00 32.00     0.041 C 
BRANCH  10  11
ATOM     11  CE  LYS A 135      29.201  34.940   7.741  1.00 34.25     0.338 C 
ATOM     12  NZ  LYS A 135      28.107  34.423   8.610  1.00 35.99     0.618 N 
ENDBRANCH  10  11
ENDBRANCH   9  10
ENDBRANCH   8   9
ENDBRANCH   7   8
END_RES LYS A 135
