REMARK VINA RESULT:    -5.632      3.106      7.869
REMARK INTER + INTRA:         -15.491
REMARK INTER:                  -8.404
REMARK INTRA:                  -7.087
REMARK UNBOUND:                -5.414
REMARK SMILES CC(=O)N[C@@H]1[C@@H](O)C[C@](O)(C(=O)O)O[C@H]1C(O)[C@H](O)CNC(=O)OCc1cn(-c2ccccc2C(N)=O)nn1
REMARK SMILES IDX 21 1 22 2 23 3 20 5 18 6 16 7 15 8 9 9 8 10 14 11 6 12 5 13
REMARK SMILES IDX 10 14 11 16 12 17 13 18 7 20 4 22 2 23 1 25 3 26 17 27 19 29
REMARK SMILES IDX 24 31 25 32 26 33 27 34 39 35 28 36 38 37 29 38 34 39 30 40
REMARK SMILES IDX 33 41 31 42 32 43 35 44 37 45 36 46
REMARK H PARENT 21 4 10 15 13 19 7 21 4 24 17 28 19 30 36 47 36 48
REMARK Flexibility Score: inf
ROOT
ATOM      1  N   UNL     1      28.296  31.100  17.937  1.00  0.00    -0.319 N 
ATOM      2  C   UNL     1      27.772  30.103  18.801  1.00  0.00     0.407 C 
ATOM      3  O   UNL     1      28.554  29.295  19.335  1.00  0.00    -0.225 OA
ATOM      4  H   UNL     1      27.576  31.756  17.515  1.00  0.00     0.167 HD
ENDROOT
BRANCH   1   5
ATOM      5  C   UNL     1      29.692  31.262  17.616  1.00  0.00     0.154 C 
BRANCH   5   6
ATOM      6  C   UNL     1      29.999  30.918  16.168  1.00  0.00     0.165 C 
BRANCH   6   7
ATOM      7  C   UNL     1      30.338  32.137  15.363  1.00  0.00     0.176 C 
BRANCH   7   8
ATOM      8  C   UNL     1      29.599  33.362  15.749  1.00  0.00     0.178 C 
ATOM      9  C   UNL     1      27.377  34.064  15.952  1.00  0.00     0.269 C 
ATOM     10  C   UNL     1      28.041  35.257  16.574  1.00  0.00     0.112 C 
ATOM     11  O   UNL     1      28.219  33.044  15.644  1.00  0.00    -0.332 OA
ATOM     12  C   UNL     1      29.241  35.744  15.836  1.00  0.00     0.145 C 
ATOM     13  C   UNL     1      29.797  34.608  14.985  1.00  0.00     0.142 C 
BRANCH   9  14
ATOM     14  O   UNL     1      26.611  34.490  14.842  1.00  0.00    -0.357 OA
ATOM     15  H   UNL     1      27.141  34.286  14.017  1.00  0.00     0.214 HD
ENDBRANCH   9  14
BRANCH   9  16
ATOM     16  C   UNL     1      26.387  33.558  16.947  1.00  0.00     0.364 C 
ATOM     17  O   UNL     1      26.682  33.645  18.178  1.00  0.00    -0.246 OA
BRANCH  16  18
ATOM     18  O   UNL     1      25.173  33.002  16.606  1.00  0.00    -0.477 OA
ATOM     19  H   UNL     1      24.351  33.159  17.167  1.00  0.00     0.296 HD
ENDBRANCH  16  18
ENDBRANCH   9  16
BRANCH  12  20
ATOM     20  O   UNL     1      28.881  36.831  15.055  1.00  0.00    -0.391 OA
ATOM     21  H   UNL     1      28.858  36.633  14.086  1.00  0.00     0.211 HD
ENDBRANCH  12  20
BRANCH  13  22
ATOM     22  N   UNL     1      31.070  34.896  14.446  1.00  0.00    -0.348 N 
ATOM     23  C   UNL     1      31.234  35.448  13.159  1.00  0.00     0.217 C 
ATOM     24  H   UNL     1      31.935  34.726  14.997  1.00  0.00     0.163 HD
ATOM     25  C   UNL     1      32.541  35.769  12.546  1.00  0.00     0.114 C 
ATOM     26  O   UNL     1      30.204  35.685  12.490  1.00  0.00    -0.275 OA
ENDBRANCH  13  22
ENDBRANCH   7   8
BRANCH   7  27
ATOM     27  O   UNL     1      31.664  32.277  15.029  1.00  0.00    -0.388 OA
ATOM     28  H   UNL     1      31.930  33.245  15.084  1.00  0.00     0.211 HD
ENDBRANCH   7  27
ENDBRANCH   6   7
BRANCH   6  29
ATOM     29  O   UNL     1      29.073  30.076  15.620  1.00  0.00    -0.388 OA
ATOM     30  H   UNL     1      28.306  30.583  15.236  1.00  0.00     0.211 HD
ENDBRANCH   6  29
ENDBRANCH   5   6
ENDBRANCH   1   5
BRANCH   2  31
ATOM     31  O   UNL     1      26.414  29.996  19.076  1.00  0.00    -0.443 OA
BRANCH  31  32
ATOM     32  C   UNL     1      25.581  29.061  18.414  1.00  0.00     0.294 C 
BRANCH  32  33
ATOM     33  C   UNL     1      25.307  29.511  17.015  1.00  0.00     0.121 A 
ATOM     34  C   UNL     1      24.092  29.411  16.364  1.00  0.00     0.144 A 
ATOM     35  N   UNL     1      26.155  30.082  16.147  1.00  0.00    -0.131 NA
ATOM     36  N   UNL     1      24.257  29.932  15.111  1.00  0.00    -0.220 N 
ATOM     37  N   UNL     1      25.494  30.322  15.015  1.00  0.00    -0.062 NA
BRANCH  36  38
ATOM     38  C   UNL     1      23.230  30.007  14.114  1.00  0.00     0.079 A 
ATOM     39  C   UNL     1      22.753  31.208  13.646  1.00  0.00     0.065 A 
ATOM     40  C   UNL     1      22.716  28.813  13.619  1.00  0.00     0.029 A 
ATOM     41  C   UNL     1      21.750  31.198  12.672  1.00  0.00     0.016 A 
ATOM     42  C   UNL     1      21.730  28.823  12.662  1.00  0.00     0.002 A 
ATOM     43  C   UNL     1      21.255  30.021  12.197  1.00  0.00     0.001 A 
BRANCH  39  44
ATOM     44  C   UNL     1      23.248  32.491  14.121  1.00  0.00     0.250 C 
ATOM     45  O   UNL     1      22.604  33.054  15.064  1.00  0.00    -0.269 OA
ATOM     46  N   UNL     1      24.400  33.123  13.580  1.00  0.00    -0.366 N 
ATOM     47  H   UNL     1      25.357  32.774  13.749  1.00  0.00     0.159 HD
ATOM     48  H   UNL     1      24.227  33.991  12.989  1.00  0.00     0.159 HD
ENDBRANCH  39  44
ENDBRANCH  36  38
ENDBRANCH  32  33
ENDBRANCH  31  32
ENDBRANCH   2  31
TORSDOF 16
BEGIN_RES LYS A 131
REMARK  4 active torsions:
REMARK  status: ('A' for Active; 'I' for Inactive)
REMARK    1  A    between atoms: CA   and  CB  
REMARK    2  A    between atoms: CB   and  CG  
REMARK    3  A    between atoms: CG   and  CD  
REMARK    4  A    between atoms: CD   and  CE  
ROOT
ATOM      1  CA  LYS A 131      29.867  25.555  16.977  1.00 20.52     0.186 C 
ENDROOT
BRANCH   1   2
ATOM      2  CB  LYS A 131      28.345  25.722  17.026  1.00 20.94     0.034 C 
BRANCH   2   3
ATOM      3  CG  LYS A 131      27.601  24.406  16.862  1.00 22.96     0.005 C 
BRANCH   3   4
ATOM      4  CD  LYS A 131      26.422  24.302  17.790  1.00 24.33     0.041 C 
BRANCH   4   5
ATOM      5  CE  LYS A 131      25.594  23.074  17.426  1.00 26.91     0.338 C 
ATOM      6  NZ  LYS A 131      24.808  22.613  18.594  1.00 27.40     0.618 N 
ENDBRANCH   4   5
ENDBRANCH   3   4
ENDBRANCH   2   3
ENDBRANCH   1   2
END_RES LYS A 131
BEGIN_RES LYS A 135
REMARK  4 active torsions:
REMARK  status: ('A' for Active; 'I' for Inactive)
REMARK    5  A    between atoms: CA   and  CB  
REMARK    6  A    between atoms: CB   and  CG  
REMARK    7  A    between atoms: CG   and  CD  
REMARK    8  A    between atoms: CD   and  CE  
ROOT
ATOM      7  CA  LYS A 135      33.193  34.663   9.290  1.00 25.02     0.186 C 
ENDROOT
BRANCH   7   8
ATOM      8  CB  LYS A 135      32.060  35.360  10.034  1.00 26.63     0.034 C 
BRANCH   8   9
ATOM      9  CG  LYS A 135      30.818  35.546   9.202  1.00 29.45     0.005 C 
BRANCH   9  10
ATOM     10  CD  LYS A 135      30.171  34.204   8.895  1.00 32.00     0.041 C 
BRANCH  10  11
ATOM     11  CE  LYS A 135      28.737  34.396   8.440  1.00 34.25     0.338 C 
ATOM     12  NZ  LYS A 135      27.779  33.837   9.434  1.00 35.99     0.618 N 
ENDBRANCH  10  11
ENDBRANCH   9  10
ENDBRANCH   8   9
ENDBRANCH   7   8
END_RES LYS A 135
