REMARK VINA RESULT:    -4.922      2.630      6.937
REMARK INTER + INTRA:         -15.579
REMARK INTER:                  -7.560
REMARK INTRA:                  -8.019
REMARK UNBOUND:                -5.909
REMARK SMILES CC(=O)N[C@@H]1[C@@H](O)C[C@](O)(C(=O)O)O[C@H]1C(O)[C@H](O)CNC(=O)OCc1cn(CCNC(=O)NCc2ccco2)nn1
REMARK SMILES IDX 24 1 22 2 21 3 23 5 20 6 18 7 16 8 15 9 9 10 8 11 14 12 6 13
REMARK SMILES IDX 5 14 10 15 11 17 12 18 13 19 7 21 4 23 2 24 1 26 3 27 17 28
REMARK SMILES IDX 19 30 25 32 26 33 27 34 42 35 28 36 41 37 29 38 30 39 31 40
REMARK SMILES IDX 32 41 33 43 34 44 35 46 36 47 37 48 40 49 38 50 39 51
REMARK H PARENT 21 4 10 16 13 20 7 22 4 25 17 29 19 31 31 42 34 45
REMARK Flexibility Score: inf
ROOT
ATOM      1  O   UNL     1      32.807  35.648  18.611  1.00  0.00    -0.443 OA
ENDROOT
BRANCH   1   2
ATOM      2  C   UNL     1      32.329  36.102  17.387  1.00  0.00     0.407 C 
ATOM      3  N   UNL     1      32.712  35.581  16.143  1.00  0.00    -0.319 N 
ATOM      4  H   UNL     1      33.391  34.808  16.095  1.00  0.00     0.167 HD
ATOM      5  O   UNL     1      31.497  37.047  17.407  1.00  0.00    -0.225 OA
BRANCH   3   6
ATOM      6  C   UNL     1      32.144  36.137  14.910  1.00  0.00     0.154 C 
BRANCH   6   7
ATOM      7  C   UNL     1      32.272  35.114  13.813  1.00  0.00     0.165 C 
BRANCH   7   8
ATOM      8  C   UNL     1      30.946  34.763  13.197  1.00  0.00     0.176 C 
BRANCH   8   9
ATOM      9  C   UNL     1      29.925  34.342  14.214  1.00  0.00     0.178 C 
ATOM     10  C   UNL     1      29.438  32.484  15.544  1.00  0.00     0.269 C 
ATOM     11  C   UNL     1      27.999  32.876  15.633  1.00  0.00     0.112 C 
ATOM     12  O   UNL     1      30.116  32.974  14.474  1.00  0.00    -0.332 OA
ATOM     13  C   UNL     1      27.631  34.130  14.950  1.00  0.00     0.145 C 
ATOM     14  C   UNL     1      28.495  34.432  13.740  1.00  0.00     0.142 C 
BRANCH  10  15
ATOM     15  O   UNL     1      29.433  31.073  15.396  1.00  0.00    -0.357 OA
ATOM     16  H   UNL     1      30.271  30.762  14.972  1.00  0.00     0.214 HD
ENDBRANCH  10  15
BRANCH  10  17
ATOM     17  C   UNL     1      30.192  32.770  16.788  1.00  0.00     0.364 C 
ATOM     18  O   UNL     1      31.454  32.841  16.795  1.00  0.00    -0.246 OA
BRANCH  17  19
ATOM     19  O   UNL     1      29.570  32.975  18.014  1.00  0.00    -0.477 OA
ATOM     20  H   UNL     1      28.946  33.765  18.140  1.00  0.00     0.296 HD
ENDBRANCH  17  19
ENDBRANCH  10  17
BRANCH  13  21
ATOM     21  O   UNL     1      26.276  34.083  14.561  1.00  0.00    -0.391 OA
ATOM     22  H   UNL     1      25.737  34.742  15.045  1.00  0.00     0.211 HD
ENDBRANCH  13  21
BRANCH  14  23
ATOM     23  N   UNL     1      28.116  35.667  13.144  1.00  0.00    -0.348 N 
ATOM     24  C   UNL     1      27.231  35.647  12.022  1.00  0.00     0.217 C 
ATOM     25  H   UNL     1      28.431  36.604  13.472  1.00  0.00     0.163 HD
ATOM     26  C   UNL     1      26.778  36.875  11.334  1.00  0.00     0.114 C 
ATOM     27  O   UNL     1      26.804  34.540  11.581  1.00  0.00    -0.275 OA
ENDBRANCH  14  23
ENDBRANCH   8   9
BRANCH   8  28
ATOM     28  O   UNL     1      30.488  35.702  12.290  1.00  0.00    -0.388 OA
ATOM     29  H   UNL     1      29.900  36.392  12.690  1.00  0.00     0.211 HD
ENDBRANCH   8  28
ENDBRANCH   7   8
BRANCH   7  30
ATOM     30  O   UNL     1      32.710  33.924  14.454  1.00  0.00    -0.388 OA
ATOM     31  H   UNL     1      32.617  33.221  13.740  1.00  0.00     0.211 HD
ENDBRANCH   7  30
ENDBRANCH   6   7
ENDBRANCH   3   6
ENDBRANCH   1   2
BRANCH   1  32
ATOM     32  C   UNL     1      32.184  36.011  19.825  1.00  0.00     0.294 C 
BRANCH  32  33
ATOM     33  C   UNL     1      31.450  34.833  20.339  1.00  0.00     0.120 A 
ATOM     34  C   UNL     1      31.988  33.697  20.879  1.00  0.00     0.138 A 
ATOM     35  N   UNL     1      30.117  34.679  20.362  1.00  0.00    -0.132 NA
ATOM     36  N   UNL     1      30.969  32.885  21.216  1.00  0.00    -0.250 N 
ATOM     37  N   UNL     1      29.833  33.486  20.900  1.00  0.00    -0.067 NA
BRANCH  36  38
ATOM     38  C   UNL     1      31.064  31.558  21.828  1.00  0.00     0.167 C 
BRANCH  38  39
ATOM     39  C   UNL     1      31.485  30.592  20.752  1.00  0.00     0.141 C 
BRANCH  39  40
ATOM     40  N   UNL     1      30.558  30.668  19.652  1.00  0.00    -0.336 N 
ATOM     41  C   UNL     1      29.415  29.844  19.514  1.00  0.00     0.315 C 
ATOM     42  H   UNL     1      30.715  31.378  18.882  1.00  0.00     0.165 HD
ATOM     43  O   UNL     1      29.186  28.982  20.415  1.00  0.00    -0.249 OA
ATOM     44  N   UNL     1      28.562  29.995  18.390  1.00  0.00    -0.331 N 
ATOM     45  H   UNL     1      28.726  30.691  17.640  1.00  0.00     0.165 HD
BRANCH  44  46
ATOM     46  C   UNL     1      27.405  29.135  18.283  1.00  0.00     0.193 C 
BRANCH  46  47
ATOM     47  C   UNL     1      26.488  29.708  17.274  1.00  0.00     0.122 A 
ATOM     48  C   UNL     1      25.242  30.247  17.576  1.00  0.00     0.047 A 
ATOM     49  O   UNL     1      26.683  29.798  15.996  1.00  0.00    -0.467 OA
ATOM     50  C   UNL     1      24.720  30.662  16.370  1.00  0.00     0.042 A 
ATOM     51  C   UNL     1      25.666  30.356  15.414  1.00  0.00     0.195 A 
ENDBRANCH  46  47
ENDBRANCH  44  46
ENDBRANCH  39  40
ENDBRANCH  38  39
ENDBRANCH  36  38
ENDBRANCH  32  33
ENDBRANCH   1  32
TORSDOF 19
BEGIN_RES LYS A 131
REMARK  4 active torsions:
REMARK  status: ('A' for Active; 'I' for Inactive)
REMARK    1  A    between atoms: CA   and  CB  
REMARK    2  A    between atoms: CB   and  CG  
REMARK    3  A    between atoms: CG   and  CD  
REMARK    4  A    between atoms: CD   and  CE  
ROOT
ATOM      1  CA  LYS A 131      29.867  25.555  16.977  1.00 20.52     0.186 C 
ENDROOT
BRANCH   1   2
ATOM      2  CB  LYS A 131      28.345  25.722  17.026  1.00 20.94     0.034 C 
BRANCH   2   3
ATOM      3  CG  LYS A 131      27.601  24.403  16.885  1.00 22.96     0.005 C 
BRANCH   3   4
ATOM      4  CD  LYS A 131      26.517  24.251  17.916  1.00 24.33     0.041 C 
BRANCH   4   5
ATOM      5  CE  LYS A 131      25.154  24.349  17.239  1.00 26.91     0.338 C 
ATOM      6  NZ  LYS A 131      24.500  23.019  17.195  1.00 27.40     0.618 N 
ENDBRANCH   4   5
ENDBRANCH   3   4
ENDBRANCH   2   3
ENDBRANCH   1   2
END_RES LYS A 131
BEGIN_RES LYS A 135
REMARK  4 active torsions:
REMARK  status: ('A' for Active; 'I' for Inactive)
REMARK    5  A    between atoms: CA   and  CB  
REMARK    6  A    between atoms: CB   and  CG  
REMARK    7  A    between atoms: CG   and  CD  
REMARK    8  A    between atoms: CD   and  CE  
ROOT
ATOM      7  CA  LYS A 135      33.193  34.663   9.290  1.00 25.02     0.186 C 
ENDROOT
BRANCH   7   8
ATOM      8  CB  LYS A 135      32.060  35.360  10.034  1.00 26.63     0.034 C 
BRANCH   8   9
ATOM      9  CG  LYS A 135      30.878  35.691   9.159  1.00 29.45     0.005 C 
BRANCH   9  10
ATOM     10  CD  LYS A 135      30.361  34.442   8.462  1.00 32.00     0.041 C 
BRANCH  10  11
ATOM     11  CE  LYS A 135      28.974  34.088   8.964  1.00 34.25     0.338 C 
ATOM     12  NZ  LYS A 135      27.921  34.747   8.143  1.00 35.99     0.618 N 
ENDBRANCH  10  11
ENDBRANCH   9  10
ENDBRANCH   8   9
ENDBRANCH   7   8
END_RES LYS A 135
