REMARK VINA RESULT:    -4.359      3.766      7.624
REMARK INTER + INTRA:         -14.603
REMARK INTER:                  -7.657
REMARK INTRA:                  -6.946
REMARK UNBOUND:                -6.804
REMARK SMILES CC(=O)N[C@@H]1[C@@H](O)C[C@](O)(C(=O)O)O[C@H]1C(O)[C@H](O)CNC(=O)OCc1cn(-c2ccccc2C(C)=O)nn1
REMARK SMILES IDX 21 1 22 2 23 3 20 5 18 6 16 7 15 8 9 9 8 10 14 11 6 12 5 13
REMARK SMILES IDX 10 14 11 16 12 17 13 18 7 20 4 22 2 23 1 25 3 26 17 27 19 29
REMARK SMILES IDX 24 31 25 32 26 33 27 34 39 35 28 36 38 37 29 38 34 39 30 40
REMARK SMILES IDX 33 41 31 42 32 43 35 44 37 45 36 46
REMARK H PARENT 21 4 10 15 13 19 7 21 4 24 17 28 19 30
REMARK Flexibility Score: inf
ROOT
ATOM      1  N   UNL     1      28.564  32.732  22.965  1.00  0.00    -0.319 N 
ATOM      2  C   UNL     1      28.767  34.007  23.596  1.00  0.00     0.407 C 
ATOM      3  O   UNL     1      28.175  34.249  24.675  1.00  0.00    -0.225 OA
ATOM      4  H   UNL     1      29.078  32.566  22.077  1.00  0.00     0.167 HD
ENDROOT
BRANCH   1   5
ATOM      5  C   UNL     1      27.686  31.770  23.564  1.00  0.00     0.154 C 
BRANCH   5   6
ATOM      6  C   UNL     1      28.096  30.338  23.462  1.00  0.00     0.165 C 
BRANCH   6   7
ATOM      7  C   UNL     1      27.845  29.716  22.121  1.00  0.00     0.176 C 
BRANCH   7   8
ATOM      8  C   UNL     1      29.086  29.266  21.396  1.00  0.00     0.178 C 
ATOM      9  C   UNL     1      31.316  28.733  21.674  1.00  0.00     0.269 C 
ATOM     10  C   UNL     1      31.789  29.717  20.621  1.00  0.00     0.112 C 
ATOM     11  O   UNL     1      30.155  29.151  22.216  1.00  0.00    -0.332 OA
ATOM     12  C   UNL     1      30.752  30.742  20.304  1.00  0.00     0.145 C 
ATOM     13  C   UNL     1      29.374  30.199  20.240  1.00  0.00     0.142 C 
BRANCH   9  14
ATOM     14  O   UNL     1      32.349  28.786  22.671  1.00  0.00    -0.357 OA
ATOM     15  H   UNL     1      33.227  28.944  22.205  1.00  0.00     0.214 HD
ENDBRANCH   9  14
BRANCH   9  16
ATOM     16  C   UNL     1      31.381  27.371  21.134  1.00  0.00     0.364 C 
ATOM     17  O   UNL     1      30.940  26.366  21.737  1.00  0.00    -0.246 OA
BRANCH  16  18
ATOM     18  O   UNL     1      31.952  27.117  19.885  1.00  0.00    -0.477 OA
ATOM     19  H   UNL     1      32.758  26.508  19.803  1.00  0.00     0.296 HD
ENDBRANCH  16  18
ENDBRANCH   9  16
BRANCH  12  20
ATOM     20  O   UNL     1      30.797  31.731  21.302  1.00  0.00    -0.391 OA
ATOM     21  H   UNL     1      31.694  32.132  21.398  1.00  0.00     0.211 HD
ENDBRANCH  12  20
BRANCH  13  22
ATOM     22  N   UNL     1      29.079  29.646  18.956  1.00  0.00    -0.348 N 
ATOM     23  C   UNL     1      27.998  30.097  18.148  1.00  0.00     0.217 C 
ATOM     24  H   UNL     1      29.672  28.883  18.581  1.00  0.00     0.163 HD
ATOM     25  C   UNL     1      27.734  29.488  16.819  1.00  0.00     0.114 C 
ATOM     26  O   UNL     1      27.236  31.022  18.530  1.00  0.00    -0.275 OA
ENDBRANCH  13  22
ENDBRANCH   7   8
BRANCH   7  27
ATOM     27  O   UNL     1      26.921  30.376  21.352  1.00  0.00    -0.388 OA
ATOM     28  H   UNL     1      26.398  29.678  20.857  1.00  0.00     0.211 HD
ENDBRANCH   7  27
ENDBRANCH   6   7
BRANCH   6  29
ATOM     29  O   UNL     1      27.213  29.627  24.375  1.00  0.00    -0.388 OA
ATOM     30  H   UNL     1      26.515  29.262  23.768  1.00  0.00     0.211 HD
ENDBRANCH   6  29
ENDBRANCH   5   6
ENDBRANCH   1   5
BRANCH   2  31
ATOM     31  O   UNL     1      29.582  34.981  23.070  1.00  0.00    -0.443 OA
BRANCH  31  32
ATOM     32  C   UNL     1      29.337  35.553  21.787  1.00  0.00     0.294 C 
BRANCH  32  33
ATOM     33  C   UNL     1      30.234  34.975  20.755  1.00  0.00     0.121 A 
ATOM     34  C   UNL     1      29.955  34.709  19.441  1.00  0.00     0.144 A 
ATOM     35  N   UNL     1      31.529  34.597  20.935  1.00  0.00    -0.131 NA
ATOM     36  N   UNL     1      31.085  34.178  18.866  1.00  0.00    -0.220 N 
ATOM     37  N   UNL     1      32.006  34.131  19.809  1.00  0.00    -0.062 NA
BRANCH  36  38
ATOM     38  C   UNL     1      31.258  33.709  17.541  1.00  0.00     0.077 A 
ATOM     39  C   UNL     1      31.911  34.373  16.560  1.00  0.00     0.043 A 
ATOM     40  C   UNL     1      30.690  32.438  17.299  1.00  0.00     0.029 A 
ATOM     41  C   UNL     1      32.017  33.781  15.298  1.00  0.00     0.014 A 
ATOM     42  C   UNL     1      30.802  31.868  16.055  1.00  0.00     0.002 A 
ATOM     43  C   UNL     1      31.466  32.555  15.073  1.00  0.00     0.001 A 
BRANCH  39  44
ATOM     44  C   UNL     1      32.512  35.678  16.723  1.00  0.00     0.161 C 
ATOM     45  O   UNL     1      33.774  35.697  17.024  1.00  0.00    -0.294 OA
ATOM     46  C   UNL     1      31.872  36.987  16.592  1.00  0.00     0.093 C 
ENDBRANCH  39  44
ENDBRANCH  36  38
ENDBRANCH  32  33
ENDBRANCH  31  32
ENDBRANCH   2  31
TORSDOF 16
BEGIN_RES LYS A 131
REMARK  4 active torsions:
REMARK  status: ('A' for Active; 'I' for Inactive)
REMARK    1  A    between atoms: CA   and  CB  
REMARK    2  A    between atoms: CB   and  CG  
REMARK    3  A    between atoms: CG   and  CD  
REMARK    4  A    between atoms: CD   and  CE  
ROOT
ATOM      1  CA  LYS A 131      29.867  25.555  16.977  1.00 20.52     0.186 C 
ENDROOT
BRANCH   1   2
ATOM      2  CB  LYS A 131      28.345  25.722  17.026  1.00 20.94     0.034 C 
BRANCH   2   3
ATOM      3  CG  LYS A 131      27.601  24.400  16.907  1.00 22.96     0.005 C 
BRANCH   3   4
ATOM      4  CD  LYS A 131      26.158  24.525  17.308  1.00 24.33     0.041 C 
BRANCH   4   5
ATOM      5  CE  LYS A 131      25.983  24.027  18.739  1.00 26.91     0.338 C 
ATOM      6  NZ  LYS A 131      25.489  25.118  19.612  1.00 27.40     0.618 N 
ENDBRANCH   4   5
ENDBRANCH   3   4
ENDBRANCH   2   3
ENDBRANCH   1   2
END_RES LYS A 131
BEGIN_RES LYS A 135
REMARK  4 active torsions:
REMARK  status: ('A' for Active; 'I' for Inactive)
REMARK    5  A    between atoms: CA   and  CB  
REMARK    6  A    between atoms: CB   and  CG  
REMARK    7  A    between atoms: CG   and  CD  
REMARK    8  A    between atoms: CD   and  CE  
ROOT
ATOM      7  CA  LYS A 135      33.193  34.663   9.290  1.00 25.02     0.186 C 
ENDROOT
BRANCH   7   8
ATOM      8  CB  LYS A 135      32.060  35.360  10.034  1.00 26.63     0.034 C 
BRANCH   8   9
ATOM      9  CG  LYS A 135      30.707  34.747   9.782  1.00 29.45     0.005 C 
BRANCH   9  10
ATOM     10  CD  LYS A 135      30.505  34.484   8.297  1.00 32.00     0.041 C 
BRANCH  10  11
ATOM     11  CE  LYS A 135      29.182  35.059   7.830  1.00 34.25     0.338 C 
ATOM     12  NZ  LYS A 135      28.489  35.778   8.935  1.00 35.99     0.618 N 
ENDBRANCH  10  11
ENDBRANCH   9  10
ENDBRANCH   8   9
ENDBRANCH   7   8
END_RES LYS A 135
