REMARK VINA RESULT:    -5.655      3.920      6.995
REMARK INTER + INTRA:         -14.182
REMARK INTER:                  -8.860
REMARK INTRA:                  -5.323
REMARK UNBOUND:                -4.396
REMARK SMILES CC(=O)N[C@@H]1[C@@H](O)C[C@](O)(C(=O)O)O[C@H]1C(O)[C@H](O)CNC(=O)OCc1cn(-c2ccccc2Br)nn1
REMARK SMILES IDX 20 1 18 2 16 3 15 4 9 5 8 6 14 7 6 8 5 9 10 10 11 12 12 13
REMARK SMILES IDX 13 14 7 16 4 18 2 19 1 21 3 22 17 23 19 25 21 27 22 28 23 30
REMARK SMILES IDX 24 31 25 32 26 33 27 34 37 35 28 36 36 37 29 38 30 39 34 40
REMARK SMILES IDX 31 41 33 42 35 43 32 44
REMARK H PARENT 10 11 13 15 7 17 4 20 17 24 19 26 21 29
REMARK Flexibility Score: inf
ROOT
ATOM      1  C   UNL     1      26.749  36.493  16.350  1.00  0.00     0.154 C 
ENDROOT
BRANCH   1   2
ATOM      2  C   UNL     1      27.786  35.566  16.929  1.00  0.00     0.165 C 
BRANCH   2   3
ATOM      3  C   UNL     1      28.668  35.102  15.812  1.00  0.00     0.176 C 
BRANCH   3   4
ATOM      4  C   UNL     1      30.144  35.038  16.125  1.00  0.00     0.178 C 
ATOM      5  C   UNL     1      31.358  35.102  14.121  1.00  0.00     0.269 C 
ATOM      6  C   UNL     1      32.522  34.350  14.767  1.00  0.00     0.112 C 
ATOM      7  O   UNL     1      30.762  35.782  15.128  1.00  0.00    -0.332 OA
ATOM      8  C   UNL     1      31.888  33.266  15.592  1.00  0.00     0.145 C 
ATOM      9  C   UNL     1      30.691  33.704  16.393  1.00  0.00     0.142 C 
BRANCH   5  10
ATOM     10  O   UNL     1      30.601  34.171  13.456  1.00  0.00    -0.357 OA
ATOM     11  H   UNL     1      31.185  33.399  13.251  1.00  0.00     0.214 HD
ENDBRANCH   5  10
BRANCH   5  12
ATOM     12  C   UNL     1      31.900  36.066  13.123  1.00  0.00     0.364 C 
ATOM     13  O   UNL     1      32.781  35.677  12.317  1.00  0.00    -0.246 OA
BRANCH  12  14
ATOM     14  O   UNL     1      31.454  37.382  13.066  1.00  0.00    -0.477 OA
ATOM     15  H   UNL     1      32.050  38.180  13.269  1.00  0.00     0.296 HD
ENDBRANCH  12  14
ENDBRANCH   5  12
BRANCH   8  16
ATOM     16  O   UNL     1      31.511  32.261  14.700  1.00  0.00    -0.391 OA
ATOM     17  H   UNL     1      31.790  31.382  15.010  1.00  0.00     0.211 HD
ENDBRANCH   8  16
BRANCH   9  18
ATOM     18  N   UNL     1      31.046  33.629  17.826  1.00  0.00    -0.348 N 
ATOM     19  C   UNL     1      30.216  32.965  18.756  1.00  0.00     0.217 C 
ATOM     20  H   UNL     1      31.940  34.077  18.178  1.00  0.00     0.163 HD
ATOM     21  C   UNL     1      30.566  32.894  20.216  1.00  0.00     0.114 C 
ATOM     22  O   UNL     1      29.161  32.429  18.332  1.00  0.00    -0.275 OA
ENDBRANCH   9  18
ENDBRANCH   3   4
BRANCH   3  23
ATOM     23  O   UNL     1      28.148  33.983  15.214  1.00  0.00    -0.388 OA
ATOM     24  H   UNL     1      28.632  33.142  15.476  1.00  0.00     0.211 HD
ENDBRANCH   3  23
ENDBRANCH   2   3
BRANCH   2  25
ATOM     25  O   UNL     1      27.179  34.504  17.549  1.00  0.00    -0.388 OA
ATOM     26  H   UNL     1      26.232  34.692  17.799  1.00  0.00     0.211 HD
ENDBRANCH   2  25
ENDBRANCH   1   2
BRANCH   1  27
ATOM     27  N   UNL     1      26.140  36.092  15.127  1.00  0.00    -0.319 N 
ATOM     28  C   UNL     1      25.023  35.233  15.039  1.00  0.00     0.407 C 
ATOM     29  H   UNL     1      26.528  36.446  14.191  1.00  0.00     0.167 HD
ATOM     30  O   UNL     1      24.462  34.725  16.037  1.00  0.00    -0.225 OA
BRANCH  28  31
ATOM     31  O   UNL     1      24.512  34.930  13.768  1.00  0.00    -0.443 OA
BRANCH  31  32
ATOM     32  C   UNL     1      25.128  33.882  13.055  1.00  0.00     0.294 C 
BRANCH  32  33
ATOM     33  C   UNL     1      26.155  34.476  12.165  1.00  0.00     0.121 A 
ATOM     34  C   UNL     1      25.932  34.839  10.830  1.00  0.00     0.144 A 
ATOM     35  N   UNL     1      27.439  34.789  12.372  1.00  0.00    -0.131 NA
ATOM     36  N   UNL     1      27.059  35.342  10.298  1.00  0.00    -0.219 N 
ATOM     37  N   UNL     1      27.962  35.300  11.262  1.00  0.00    -0.062 NA
BRANCH  36  38
ATOM     38  C   UNL     1      27.223  35.820   8.963  1.00  0.00     0.081 A 
ATOM     39  C   UNL     1      27.645  34.994   7.945  1.00  0.00     0.029 A 
ATOM     40  C   UNL     1      26.961  37.134   8.640  1.00  0.00     0.043 A 
ATOM     41  C   UNL     1      27.799  35.477   6.644  1.00  0.00     0.002 A 
ATOM     42  C   UNL     1      27.114  37.618   7.350  1.00  0.00     0.018 A 
ATOM     43  Br  UNL     1      26.373  38.294  10.052  1.00  0.00    -0.048 Br
ATOM     44  C   UNL     1      27.536  36.794   6.329  1.00  0.00     0.001 A 
ENDBRANCH  36  38
ENDBRANCH  32  33
ENDBRANCH  31  32
ENDBRANCH  28  31
ENDBRANCH   1  27
TORSDOF 15
BEGIN_RES LYS A 131
REMARK  4 active torsions:
REMARK  status: ('A' for Active; 'I' for Inactive)
REMARK    1  A    between atoms: CA   and  CB  
REMARK    2  A    between atoms: CB   and  CG  
REMARK    3  A    between atoms: CG   and  CD  
REMARK    4  A    between atoms: CD   and  CE  
ROOT
ATOM      1  CA  LYS A 131      29.867  25.555  16.977  1.00 20.52     0.186 C 
ENDROOT
BRANCH   1   2
ATOM      2  CB  LYS A 131      28.345  25.722  17.026  1.00 20.94     0.034 C 
BRANCH   2   3
ATOM      3  CG  LYS A 131      27.601  24.403  16.883  1.00 22.96     0.005 C 
BRANCH   3   4
ATOM      4  CD  LYS A 131      26.589  24.203  17.977  1.00 24.33     0.041 C 
BRANCH   4   5
ATOM      5  CE  LYS A 131      25.673  23.038  17.615  1.00 26.91     0.338 C 
ATOM      6  NZ  LYS A 131      24.423  23.535  16.993  1.00 27.40     0.618 N 
ENDBRANCH   4   5
ENDBRANCH   3   4
ENDBRANCH   2   3
ENDBRANCH   1   2
END_RES LYS A 131
BEGIN_RES LYS A 135
REMARK  4 active torsions:
REMARK  status: ('A' for Active; 'I' for Inactive)
REMARK    5  A    between atoms: CA   and  CB  
REMARK    6  A    between atoms: CB   and  CG  
REMARK    7  A    between atoms: CG   and  CD  
REMARK    8  A    between atoms: CD   and  CE  
ROOT
ATOM      7  CA  LYS A 135      33.193  34.663   9.290  1.00 25.02     0.186 C 
ENDROOT
BRANCH   7   8
ATOM      8  CB  LYS A 135      32.060  35.360  10.034  1.00 26.63     0.034 C 
BRANCH   8   9
ATOM      9  CG  LYS A 135      30.954  35.843   9.132  1.00 29.45     0.005 C 
BRANCH   9  10
ATOM     10  CD  LYS A 135      30.450  37.206   9.582  1.00 32.00     0.041 C 
BRANCH  10  11
ATOM     11  CE  LYS A 135      30.959  38.295   8.658  1.00 34.25     0.338 C 
ATOM     12  NZ  LYS A 135      32.019  39.107   9.317  1.00 35.99     0.618 N 
ENDBRANCH  10  11
ENDBRANCH   9  10
ENDBRANCH   8   9
ENDBRANCH   7   8
END_RES LYS A 135
