REMARK VINA RESULT:    -4.711      2.259      7.112
REMARK INTER + INTRA:         -14.456
REMARK INTER:                  -8.492
REMARK INTRA:                  -5.964
REMARK UNBOUND:                -5.477
REMARK SMILES CC(=O)N[C@@H]1[C@@H](O)C[C@](O)(C(=O)O)O[C@H]1C(O)[C@H](O)CNC(=O)OCc1cn(CC(O)CO)nn1
REMARK SMILES IDX 21 1 22 2 23 3 20 5 18 6 16 7 15 8 9 9 8 10 14 11 6 12 5 13
REMARK SMILES IDX 10 14 11 16 12 17 13 18 7 20 4 22 2 23 1 25 3 26 17 27 19 29
REMARK SMILES IDX 24 31 25 32 26 33 27 34 35 35 28 36 34 37 29 38 30 39 31 40
REMARK SMILES IDX 32 42 33 43
REMARK H PARENT 21 4 10 15 13 19 7 21 4 24 17 28 19 30 31 41 33 44
REMARK Flexibility Score: inf
ROOT
ATOM      1  N   UNL     1      28.452  31.805  16.540  1.00  0.00    -0.319 N 
ATOM      2  C   UNL     1      28.362  30.392  16.478  1.00  0.00     0.407 C 
ATOM      3  O   UNL     1      28.716  29.766  15.464  1.00  0.00    -0.225 OA
ATOM      4  H   UNL     1      28.122  32.247  17.451  1.00  0.00     0.167 HD
ENDROOT
BRANCH   1   5
ATOM      5  C   UNL     1      28.952  32.571  15.450  1.00  0.00     0.154 C 
BRANCH   5   6
ATOM      6  C   UNL     1      30.436  32.851  15.534  1.00  0.00     0.165 C 
BRANCH   6   7
ATOM      7  C   UNL     1      30.681  34.116  14.720  1.00  0.00     0.176 C 
BRANCH   7   8
ATOM      8  C   UNL     1      32.030  34.736  15.102  1.00  0.00     0.178 C 
ATOM      9  C   UNL     1      32.223  35.380  17.325  1.00  0.00     0.269 C 
ATOM     10  C   UNL     1      33.332  36.357  16.985  1.00  0.00     0.112 C 
ATOM     11  O   UNL     1      32.285  34.373  16.394  1.00  0.00    -0.332 OA
ATOM     12  C   UNL     1      32.987  36.989  15.682  1.00  0.00     0.145 C 
ATOM     13  C   UNL     1      32.010  36.209  14.841  1.00  0.00     0.142 C 
BRANCH   9  14
ATOM     14  O   UNL     1      31.031  36.100  17.293  1.00  0.00    -0.357 OA
ATOM     15  H   UNL     1      31.133  36.984  16.872  1.00  0.00     0.214 HD
ENDBRANCH   9  14
BRANCH   9  16
ATOM     16  C   UNL     1      32.415  34.792  18.676  1.00  0.00     0.364 C 
ATOM     17  O   UNL     1      33.329  35.251  19.407  1.00  0.00    -0.246 OA
BRANCH  16  18
ATOM     18  O   UNL     1      31.604  33.767  19.102  1.00  0.00    -0.477 OA
ATOM     19  H   UNL     1      30.652  33.684  18.760  1.00  0.00     0.296 HD
ENDBRANCH  16  18
ENDBRANCH   9  16
BRANCH  12  20
ATOM     20  O   UNL     1      32.401  38.232  15.950  1.00  0.00    -0.391 OA
ATOM     21  H   UNL     1      33.099  38.890  16.123  1.00  0.00     0.211 HD
ENDBRANCH  12  20
BRANCH  13  22
ATOM     22  N   UNL     1      32.348  36.485  13.461  1.00  0.00    -0.348 N 
ATOM     23  C   UNL     1      31.607  37.461  12.746  1.00  0.00     0.217 C 
ATOM     24  H   UNL     1      33.122  35.993  12.959  1.00  0.00     0.163 HD
ATOM     25  C   UNL     1      31.913  37.789  11.310  1.00  0.00     0.114 C 
ATOM     26  O   UNL     1      30.658  38.109  13.256  1.00  0.00    -0.275 OA
ENDBRANCH  13  22
ENDBRANCH   7   8
BRANCH   7  27
ATOM     27  O   UNL     1      30.595  33.820  13.381  1.00  0.00    -0.388 OA
ATOM     28  H   UNL     1      30.819  34.610  12.815  1.00  0.00     0.211 HD
ENDBRANCH   7  27
ENDBRANCH   6   7
BRANCH   6  29
ATOM     29  O   UNL     1      31.166  31.778  15.021  1.00  0.00    -0.388 OA
ATOM     30  H   UNL     1      31.794  31.497  15.713  1.00  0.00     0.211 HD
ENDBRANCH   6  29
ENDBRANCH   5   6
ENDBRANCH   1   5
BRANCH   2  31
ATOM     31  O   UNL     1      27.868  29.651  17.564  1.00  0.00    -0.443 OA
BRANCH  31  32
ATOM     32  C   UNL     1      27.685  30.308  18.784  1.00  0.00     0.294 C 
BRANCH  32  33
ATOM     33  C   UNL     1      28.940  30.374  19.575  1.00  0.00     0.120 A 
ATOM     34  C   UNL     1      29.249  29.647  20.687  1.00  0.00     0.138 A 
ATOM     35  N   UNL     1      29.990  31.164  19.331  1.00  0.00    -0.132 NA
ATOM     36  N   UNL     1      30.494  30.033  21.076  1.00  0.00    -0.249 N 
ATOM     37  N   UNL     1      30.933  30.961  20.237  1.00  0.00    -0.067 NA
BRANCH  36  38
ATOM     38  C   UNL     1      31.208  29.496  22.233  1.00  0.00     0.180 C 
BRANCH  38  39
ATOM     39  C   UNL     1      31.898  28.234  21.754  1.00  0.00     0.161 C 
BRANCH  39  40
ATOM     40  O   UNL     1      32.624  28.515  20.603  1.00  0.00    -0.389 OA
ATOM     41  H   UNL     1      32.185  28.047  19.843  1.00  0.00     0.211 HD
ENDBRANCH  39  40
BRANCH  39  42
ATOM     42  C   UNL     1      32.840  27.706  22.840  1.00  0.00     0.189 C 
BRANCH  42  43
ATOM     43  O   UNL     1      34.110  28.256  22.656  1.00  0.00    -0.394 OA
ATOM     44  H   UNL     1      34.060  29.250  22.785  1.00  0.00     0.210 HD
ENDBRANCH  42  43
ENDBRANCH  39  42
ENDBRANCH  38  39
ENDBRANCH  36  38
ENDBRANCH  32  33
ENDBRANCH  31  32
ENDBRANCH   2  31
TORSDOF 19
BEGIN_RES LYS A 131
REMARK  4 active torsions:
REMARK  status: ('A' for Active; 'I' for Inactive)
REMARK    1  A    between atoms: CA   and  CB  
REMARK    2  A    between atoms: CB   and  CG  
REMARK    3  A    between atoms: CG   and  CD  
REMARK    4  A    between atoms: CD   and  CE  
ROOT
ATOM      1  CA  LYS A 131      29.867  25.555  16.977  1.00 20.52     0.186 C 
ENDROOT
BRANCH   1   2
ATOM      2  CB  LYS A 131      28.345  25.722  17.026  1.00 20.94     0.034 C 
BRANCH   2   3
ATOM      3  CG  LYS A 131      27.600  24.408  16.844  1.00 22.96     0.005 C 
BRANCH   3   4
ATOM      4  CD  LYS A 131      26.492  24.242  17.846  1.00 24.33     0.041 C 
BRANCH   4   5
ATOM      5  CE  LYS A 131      25.154  24.548  17.181  1.00 26.91     0.338 C 
ATOM      6  NZ  LYS A 131      24.336  23.317  17.069  1.00 27.40     0.618 N 
ENDBRANCH   4   5
ENDBRANCH   3   4
ENDBRANCH   2   3
ENDBRANCH   1   2
END_RES LYS A 131
BEGIN_RES LYS A 135
REMARK  4 active torsions:
REMARK  status: ('A' for Active; 'I' for Inactive)
REMARK    5  A    between atoms: CA   and  CB  
REMARK    6  A    between atoms: CB   and  CG  
REMARK    7  A    between atoms: CG   and  CD  
REMARK    8  A    between atoms: CD   and  CE  
ROOT
ATOM      7  CA  LYS A 135      33.193  34.663   9.290  1.00 25.02     0.186 C 
ENDROOT
BRANCH   7   8
ATOM      8  CB  LYS A 135      32.060  35.360  10.034  1.00 26.63     0.034 C 
BRANCH   8   9
ATOM      9  CG  LYS A 135      30.733  34.657   9.907  1.00 29.45     0.005 C 
BRANCH   9  10
ATOM     10  CD  LYS A 135      30.332  34.528   8.446  1.00 32.00     0.041 C 
BRANCH  10  11
ATOM     11  CE  LYS A 135      28.822  34.548   8.305  1.00 34.25     0.338 C 
ATOM     12  NZ  LYS A 135      28.169  33.806   9.418  1.00 35.99     0.618 N 
ENDBRANCH  10  11
ENDBRANCH   9  10
ENDBRANCH   8   9
ENDBRANCH   7   8
END_RES LYS A 135
