REMARK VINA RESULT:    -4.918      3.164      9.240
REMARK INTER + INTRA:         -17.264
REMARK INTER:                 -10.520
REMARK INTRA:                  -6.745
REMARK UNBOUND:                -7.171
REMARK SMILES CCOCCc1c(-c2ccccc2)nc(N)nc1-n1cc(COC(=O)NC[C@@H](O)C(O)[C@@H]2O[C@@](O)(C(=O)O)C[C@H](O)[C@H]2NC(C)=O)nn1
REMARK SMILES IDX 23 1 24 2 26 3 25 5 27 6 28 7 30 8 32 9 34 10 39 11 33 12
REMARK SMILES IDX 40 13 42 14 35 15 36 17 37 18 38 19 41 21 43 23 44 24 45 26
REMARK SMILES IDX 46 27 31 28 29 30 22 32 21 33 20 34 47 35 19 36 48 37 18 38
REMARK SMILES IDX 17 39 6 40 15 41 7 42 14 43 5 44 4 45 3 46 2 47 1 48 16 49
REMARK SMILES IDX 8 52 9 53 13 54 10 55 12 56 11 57
REMARK H PARENT 26 4 35 16 38 20 41 22 43 25 31 29 29 31 16 50 16 51
REMARK Flexibility Score: inf
ROOT
ATOM      1  O   UNL     1      30.251  39.500  13.723  1.00  0.00    -0.443 OA
ENDROOT
BRANCH   1   2
ATOM      2  C   UNL     1      31.068  38.409  13.919  1.00  0.00     0.407 C 
ATOM      3  N   UNL     1      31.514  37.590  12.817  1.00  0.00    -0.319 N 
ATOM      4  H   UNL     1      31.165  37.893  11.886  1.00  0.00     0.167 HD
ATOM      5  O   UNL     1      31.423  38.136  15.093  1.00  0.00    -0.225 OA
BRANCH   3   6
ATOM      6  C   UNL     1      32.371  36.457  13.079  1.00  0.00     0.154 C 
BRANCH   6   7
ATOM      7  C   UNL     1      31.478  35.245  13.309  1.00  0.00     0.165 C 
BRANCH   7   8
ATOM      8  C   UNL     1      31.900  34.645  14.628  1.00  0.00     0.176 C 
BRANCH   8   9
ATOM      9  C   UNL     1      30.878  34.737  15.720  1.00  0.00     0.178 C 
ATOM     10  C   UNL     1      30.513  32.428  15.883  1.00  0.00     0.269 C 
ATOM     11  C   UNL     1      29.294  32.639  15.001  1.00  0.00     0.112 C 
ATOM     12  O   UNL     1      30.952  33.583  16.464  1.00  0.00    -0.332 OA
ATOM     13  C   UNL     1      28.577  33.886  15.476  1.00  0.00     0.145 C 
ATOM     14  C   UNL     1      29.500  35.110  15.311  1.00  0.00     0.142 C 
BRANCH  10  15
ATOM     15  O   UNL     1      31.475  31.828  15.062  1.00  0.00    -0.357 OA
ATOM     16  H   UNL     1      31.908  32.475  14.462  1.00  0.00     0.214 HD
ENDBRANCH  10  15
BRANCH  10  17
ATOM     17  C   UNL     1      30.207  31.473  16.968  1.00  0.00     0.364 C 
ATOM     18  O   UNL     1      30.563  31.735  18.133  1.00  0.00    -0.246 OA
BRANCH  17  19
ATOM     19  O   UNL     1      29.539  30.308  16.699  1.00  0.00    -0.477 OA
ATOM     20  H   UNL     1      28.851  30.192  15.966  1.00  0.00     0.296 HD
ENDBRANCH  17  19
ENDBRANCH  10  17
BRANCH  13  21
ATOM     21  O   UNL     1      27.389  34.062  14.805  1.00  0.00    -0.391 OA
ATOM     22  H   UNL     1      26.741  34.564  15.344  1.00  0.00     0.211 HD
ENDBRANCH  13  21
BRANCH  14  23
ATOM     23  N   UNL     1      28.910  36.131  16.187  1.00  0.00    -0.348 N 
ATOM     24  C   UNL     1      28.073  37.128  15.633  1.00  0.00     0.217 C 
ATOM     25  H   UNL     1      29.097  36.136  17.213  1.00  0.00     0.163 HD
ATOM     26  C   UNL     1      27.440  38.197  16.465  1.00  0.00     0.114 C 
ATOM     27  O   UNL     1      27.869  37.090  14.388  1.00  0.00    -0.275 OA
ENDBRANCH  14  23
ENDBRANCH   8   9
BRANCH   8  28
ATOM     28  O   UNL     1      32.949  35.525  15.054  1.00  0.00    -0.388 OA
ATOM     29  H   UNL     1      32.826  36.406  14.649  1.00  0.00     0.211 HD
ENDBRANCH   8  28
ENDBRANCH   7   8
BRANCH   7  30
ATOM     30  O   UNL     1      31.668  34.411  12.218  1.00  0.00    -0.388 OA
ATOM     31  H   UNL     1      32.369  34.743  11.618  1.00  0.00     0.211 HD
ENDBRANCH   7  30
ENDBRANCH   6   7
ENDBRANCH   3   6
ENDBRANCH   1   2
BRANCH   1  32
ATOM     32  C   UNL     1      30.497  40.562  12.828  1.00  0.00     0.294 C 
BRANCH  32  33
ATOM     33  C   UNL     1      29.694  40.363  11.579  1.00  0.00     0.121 A 
ATOM     34  C   UNL     1      29.282  39.181  11.018  1.00  0.00     0.146 A 
ATOM     35  N   UNL     1      29.225  41.330  10.762  1.00  0.00    -0.131 NA
ATOM     36  N   UNL     1      28.573  39.435   9.876  1.00  0.00    -0.202 N 
ATOM     37  N   UNL     1      28.570  40.758   9.770  1.00  0.00    -0.060 NA
BRANCH  36  38
ATOM     38  C   UNL     1      27.997  38.477   9.005  1.00  0.00     0.164 A 
ATOM     39  N   UNL     1      28.665  38.015   7.939  1.00  0.00    -0.193 NA
ATOM     40  C   UNL     1      26.697  38.005   9.222  1.00  0.00     0.026 A 
ATOM     41  C   UNL     1      28.107  37.117   7.088  1.00  0.00     0.222 A 
ATOM     42  C   UNL     1      26.132  37.103   8.365  1.00  0.00     0.081 A 
ATOM     43  N   UNL     1      26.866  36.659   7.281  1.00  0.00    -0.213 NA
BRANCH  40  44
ATOM     44  C   UNL     1      25.943  38.533  10.377  1.00  0.00     0.070 C 
BRANCH  44  45
ATOM     45  C   UNL     1      25.179  39.800  10.112  1.00  0.00     0.165 C 
BRANCH  45  46
ATOM     46  O   UNL     1      23.839  39.670  10.347  1.00  0.00    -0.381 OA
BRANCH  46  47
ATOM     47  C   UNL     1      23.521  38.744  11.313  1.00  0.00     0.156 C 
ATOM     48  C   UNL     1      22.038  38.437  11.332  1.00  0.00     0.035 C 
ENDBRANCH  46  47
ENDBRANCH  45  46
ENDBRANCH  44  45
ENDBRANCH  40  44
BRANCH  41  49
ATOM     49  N   UNL     1      28.849  36.656   5.976  1.00  0.00    -0.368 N 
ATOM     50  H   UNL     1      29.866  36.843   5.914  1.00  0.00     0.159 HD
ATOM     51  H   UNL     1      28.406  36.127   5.202  1.00  0.00     0.159 HD
ENDBRANCH  41  49
BRANCH  42  52
ATOM     52  C   UNL     1      24.754  36.665   8.471  1.00  0.00     0.001 A 
ATOM     53  C   UNL     1      24.240  35.679   9.230  1.00  0.00     0.010 A 
ATOM     54  C   UNL     1      23.834  37.393   7.683  1.00  0.00     0.010 A 
ATOM     55  C   UNL     1      22.860  35.404   9.228  1.00  0.00     0.001 A 
ATOM     56  C   UNL     1      22.492  37.136   7.672  1.00  0.00     0.001 A 
ATOM     57  C   UNL     1      21.976  36.120   8.457  1.00  0.00     0.000 A 
ENDBRANCH  42  52
ENDBRANCH  36  38
ENDBRANCH  32  33
ENDBRANCH   1  32
TORSDOF 21
BEGIN_RES LYS A 131
REMARK  4 active torsions:
REMARK  status: ('A' for Active; 'I' for Inactive)
REMARK    1  A    between atoms: CA   and  CB  
REMARK    2  A    between atoms: CB   and  CG  
REMARK    3  A    between atoms: CG   and  CD  
REMARK    4  A    between atoms: CD   and  CE  
ROOT
ATOM      1  CA  LYS A 131      29.867  25.555  16.977  1.00 20.52     0.186 C 
ENDROOT
BRANCH   1   2
ATOM      2  CB  LYS A 131      28.345  25.722  17.026  1.00 20.94     0.034 C 
BRANCH   2   3
ATOM      3  CG  LYS A 131      27.602  24.399  16.919  1.00 22.96     0.005 C 
BRANCH   3   4
ATOM      4  CD  LYS A 131      26.553  24.252  17.986  1.00 24.33     0.041 C 
BRANCH   4   5
ATOM      5  CE  LYS A 131      26.001  25.626  18.352  1.00 26.91     0.338 C 
ATOM      6  NZ  LYS A 131      25.891  25.767  19.823  1.00 27.40     0.618 N 
ENDBRANCH   4   5
ENDBRANCH   3   4
ENDBRANCH   2   3
ENDBRANCH   1   2
END_RES LYS A 131
BEGIN_RES LYS A 135
REMARK  4 active torsions:
REMARK  status: ('A' for Active; 'I' for Inactive)
REMARK    5  A    between atoms: CA   and  CB  
REMARK    6  A    between atoms: CB   and  CG  
REMARK    7  A    between atoms: CG   and  CD  
REMARK    8  A    between atoms: CD   and  CE  
ROOT
ATOM      7  CA  LYS A 135      33.193  34.663   9.290  1.00 25.02     0.186 C 
ENDROOT
BRANCH   7   8
ATOM      8  CB  LYS A 135      32.060  35.360  10.034  1.00 26.63     0.034 C 
BRANCH   8   9
ATOM      9  CG  LYS A 135      30.791  35.474   9.229  1.00 29.45     0.005 C 
BRANCH   9  10
ATOM     10  CD  LYS A 135      30.212  34.098   8.941  1.00 32.00     0.041 C 
BRANCH  10  11
ATOM     11  CE  LYS A 135      28.713  34.092   9.169  1.00 34.25     0.338 C 
ATOM     12  NZ  LYS A 135      28.358  34.823  10.417  1.00 35.99     0.618 N 
ENDBRANCH  10  11
ENDBRANCH   9  10
ENDBRANCH   8   9
ENDBRANCH   7   8
END_RES LYS A 135
