REMARK VINA RESULT:    -5.399      4.336      8.106
REMARK INTER + INTRA:         -14.847
REMARK INTER:                  -8.523
REMARK INTRA:                  -6.324
REMARK UNBOUND:                -5.502
REMARK SMILES CC(=O)N[C@@H]1[C@@H](O)C[C@](O)(C(=O)O)O[C@H]1C(O)[C@H](O)CNC(=O)OCc1cn([C@@H]2C[C@H]3CC[C@@H](C2)N3C)nn1
REMARK SMILES IDX 20 1 18 2 16 3 15 4 9 5 8 6 14 7 6 8 5 9 10 10 11 12 12 13
REMARK SMILES IDX 13 14 7 16 4 18 2 19 1 21 3 22 17 23 19 25 21 27 22 28 23 30
REMARK SMILES IDX 24 31 25 32 26 33 27 34 39 35 28 36 38 37 29 38 35 39 30 40
REMARK SMILES IDX 34 41 31 42 36 43 33 44 32 45 37 46
REMARK H PARENT 10 11 13 15 7 17 4 20 17 24 19 26 21 29
REMARK Flexibility Score: inf
ROOT
ATOM      1  C   UNL     1      30.523  32.924  17.257  1.00  0.00     0.154 C 
ENDROOT
BRANCH   1   2
ATOM      2  C   UNL     1      30.899  32.538  15.857  1.00  0.00     0.165 C 
BRANCH   2   3
ATOM      3  C   UNL     1      29.905  33.111  14.854  1.00  0.00     0.176 C 
BRANCH   3   4
ATOM      4  C   UNL     1      30.584  34.285  14.149  1.00  0.00     0.178 C 
ATOM      5  C   UNL     1      32.568  35.495  14.410  1.00  0.00     0.269 C 
ATOM      6  C   UNL     1      31.872  36.804  14.615  1.00  0.00     0.112 C 
ATOM      7  O   UNL     1      31.825  34.384  14.636  1.00  0.00    -0.332 OA
ATOM      8  C   UNL     1      30.393  36.712  14.780  1.00  0.00     0.145 C 
ATOM      9  C   UNL     1      29.736  35.527  14.155  1.00  0.00     0.142 C 
BRANCH   5  10
ATOM     10  O   UNL     1      33.643  35.437  15.303  1.00  0.00    -0.357 OA
ATOM     11  H   UNL     1      34.213  36.242  15.263  1.00  0.00     0.214 HD
ENDBRANCH   5  10
BRANCH   5  12
ATOM     12  C   UNL     1      33.157  35.379  13.059  1.00  0.00     0.364 C 
ATOM     13  O   UNL     1      32.783  36.150  12.151  1.00  0.00    -0.246 OA
BRANCH  12  14
ATOM     14  O   UNL     1      34.126  34.442  12.714  1.00  0.00    -0.477 OA
ATOM     15  H   UNL     1      34.925  34.268  13.343  1.00  0.00     0.296 HD
ENDBRANCH  12  14
ENDBRANCH   5  12
BRANCH   8  16
ATOM     16  O   UNL     1      30.126  36.764  16.156  1.00  0.00    -0.391 OA
ATOM     17  H   UNL     1      29.208  37.090  16.311  1.00  0.00     0.211 HD
ENDBRANCH   8  16
BRANCH   9  18
ATOM     18  N   UNL     1      29.140  35.772  12.870  1.00  0.00    -0.348 N 
ATOM     19  C   UNL     1      27.820  35.402  12.525  1.00  0.00     0.217 C 
ATOM     20  H   UNL     1      29.700  36.257  12.118  1.00  0.00     0.163 HD
ATOM     21  C   UNL     1      27.188  35.643  11.210  1.00  0.00     0.114 C 
ATOM     22  O   UNL     1      27.170  34.828  13.431  1.00  0.00    -0.275 OA
ENDBRANCH   9  18
ENDBRANCH   3   4
BRANCH   3  23
ATOM     23  O   UNL     1      28.723  33.511  15.456  1.00  0.00    -0.388 OA
ATOM     24  H   UNL     1      28.747  34.498  15.548  1.00  0.00     0.211 HD
ENDBRANCH   3  23
ENDBRANCH   2   3
BRANCH   2  25
ATOM     25  O   UNL     1      30.956  31.186  15.667  1.00  0.00    -0.388 OA
ATOM     26  H   UNL     1      31.313  30.979  14.754  1.00  0.00     0.211 HD
ENDBRANCH   2  25
ENDBRANCH   1   2
BRANCH   1  27
ATOM     27  N   UNL     1      30.973  34.225  17.616  1.00  0.00    -0.319 N 
ATOM     28  C   UNL     1      31.594  34.564  18.830  1.00  0.00     0.407 C 
ATOM     29  H   UNL     1      30.837  35.024  16.918  1.00  0.00     0.167 HD
ATOM     30  O   UNL     1      31.806  33.734  19.733  1.00  0.00    -0.225 OA
BRANCH  28  31
ATOM     31  O   UNL     1      31.999  35.896  19.045  1.00  0.00    -0.443 OA
BRANCH  31  32
ATOM     32  C   UNL     1      33.288  36.131  19.573  1.00  0.00     0.294 C 
BRANCH  32  33
ATOM     33  C   UNL     1      34.203  36.578  18.523  1.00  0.00     0.120 A 
ATOM     34  C   UNL     1      35.465  36.052  18.274  1.00  0.00     0.138 A 
ATOM     35  N   UNL     1      34.007  37.549  17.632  1.00  0.00    -0.132 NA
ATOM     36  N   UNL     1      35.986  36.725  17.241  1.00  0.00    -0.249 N 
ATOM     37  N   UNL     1      35.088  37.615  16.877  1.00  0.00    -0.067 NA
BRANCH  36  38
ATOM     38  C   UNL     1      37.273  36.537  16.619  1.00  0.00     0.112 C 
ATOM     39  C   UNL     1      38.296  36.201  17.703  1.00  0.00     0.046 C 
ATOM     40  C   UNL     1      37.153  35.333  15.710  1.00  0.00     0.046 C 
ATOM     41  C   UNL     1      39.572  35.762  17.037  1.00  0.00     0.058 C 
ATOM     42  C   UNL     1      38.503  34.858  15.280  1.00  0.00     0.058 C 
ATOM     43  N   UNL     1      39.365  34.495  16.361  1.00  0.00    -0.300 NA
ATOM     44  C   UNL     1      39.897  36.682  15.876  1.00  0.00     0.021 C 
ATOM     45  C   UNL     1      39.232  36.068  14.682  1.00  0.00     0.021 C 
ATOM     46  C   UNL     1      38.831  33.480  17.221  1.00  0.00     0.105 C 
ENDBRANCH  36  38
ENDBRANCH  32  33
ENDBRANCH  31  32
ENDBRANCH  28  31
ENDBRANCH   1  27
TORSDOF 15
BEGIN_RES LYS A 131
REMARK  4 active torsions:
REMARK  status: ('A' for Active; 'I' for Inactive)
REMARK    1  A    between atoms: CA   and  CB  
REMARK    2  A    between atoms: CB   and  CG  
REMARK    3  A    between atoms: CG   and  CD  
REMARK    4  A    between atoms: CD   and  CE  
ROOT
ATOM      1  CA  LYS A 131      29.867  25.555  16.977  1.00 20.52     0.186 C 
ENDROOT
BRANCH   1   2
ATOM      2  CB  LYS A 131      28.345  25.722  17.026  1.00 20.94     0.034 C 
BRANCH   2   3
ATOM      3  CG  LYS A 131      27.601  24.403  16.887  1.00 22.96     0.005 C 
BRANCH   3   4
ATOM      4  CD  LYS A 131      26.153  24.526  17.272  1.00 24.33     0.041 C 
BRANCH   4   5
ATOM      5  CE  LYS A 131      25.725  23.284  18.047  1.00 26.91     0.338 C 
ATOM      6  NZ  LYS A 131      24.587  22.617  17.372  1.00 27.40     0.618 N 
ENDBRANCH   4   5
ENDBRANCH   3   4
ENDBRANCH   2   3
ENDBRANCH   1   2
END_RES LYS A 131
BEGIN_RES LYS A 135
REMARK  4 active torsions:
REMARK  status: ('A' for Active; 'I' for Inactive)
REMARK    5  A    between atoms: CA   and  CB  
REMARK    6  A    between atoms: CB   and  CG  
REMARK    7  A    between atoms: CG   and  CD  
REMARK    8  A    between atoms: CD   and  CE  
ROOT
ATOM      7  CA  LYS A 135      33.193  34.663   9.290  1.00 25.02     0.186 C 
ENDROOT
BRANCH   7   8
ATOM      8  CB  LYS A 135      32.060  35.360  10.034  1.00 26.63     0.034 C 
BRANCH   8   9
ATOM      9  CG  LYS A 135      30.705  34.755   9.772  1.00 29.45     0.005 C 
BRANCH   9  10
ATOM     10  CD  LYS A 135      29.966  35.539   8.699  1.00 32.00     0.041 C 
BRANCH  10  11
ATOM     11  CE  LYS A 135      28.989  34.643   7.962  1.00 34.25     0.338 C 
ATOM     12  NZ  LYS A 135      27.856  35.431   7.401  1.00 35.99     0.618 N 
ENDBRANCH  10  11
ENDBRANCH   9  10
ENDBRANCH   8   9
ENDBRANCH   7   8
END_RES LYS A 135
