REMARK VINA RESULT:    -5.256      5.511     11.478
REMARK INTER + INTRA:         -15.406
REMARK INTER:                  -8.671
REMARK INTRA:                  -6.735
REMARK UNBOUND:                -6.003
REMARK SMILES CC(=O)N[C@@H]1[C@@H](O)C[C@](O)(C(=O)O)O[C@H]1C(O)[C@H](O)CNC(=O)OCc1cn(Cc2ccc3c(c2)OCO3)nn1
REMARK SMILES IDX 21 1 22 2 23 3 20 5 18 6 16 7 15 8 9 9 8 10 14 11 6 12 5 13
REMARK SMILES IDX 10 14 11 16 12 17 13 18 7 20 4 22 2 23 1 25 3 26 17 27 19 29
REMARK SMILES IDX 24 31 25 32 26 33 27 34 40 35 28 36 39 37 29 38 30 39 31 40
REMARK SMILES IDX 35 41 32 42 34 43 33 44 36 45 38 46 37 47
REMARK H PARENT 21 4 10 15 13 19 7 21 4 24 17 28 19 30
REMARK Flexibility Score: inf
ROOT
ATOM      1  N   UNL     1      28.046  28.509  18.444  1.00  0.00    -0.319 N 
ATOM      2  C   UNL     1      27.116  28.910  17.445  1.00  0.00     0.407 C 
ATOM      3  O   UNL     1      26.020  28.274  17.317  1.00  0.00    -0.225 OA
ATOM      4  H   UNL     1      28.924  29.042  18.525  1.00  0.00     0.167 HD
ENDROOT
BRANCH   1   5
ATOM      5  C   UNL     1      27.686  27.385  19.271  1.00  0.00     0.154 C 
BRANCH   5   6
ATOM      6  C   UNL     1      27.674  27.697  20.734  1.00  0.00     0.165 C 
BRANCH   6   7
ATOM      7  C   UNL     1      29.064  27.789  21.323  1.00  0.00     0.176 C 
BRANCH   7   8
ATOM      8  C   UNL     1      29.372  29.222  21.750  1.00  0.00     0.178 C 
ATOM      9  C   UNL     1      29.809  30.856  20.162  1.00  0.00     0.269 C 
ATOM     10  C   UNL     1      30.841  31.555  21.016  1.00  0.00     0.112 C 
ATOM     11  O   UNL     1      28.886  30.143  20.871  1.00  0.00    -0.332 OA
ATOM     12  C   UNL     1      31.040  30.863  22.350  1.00  0.00     0.145 C 
ATOM     13  C   UNL     1      30.824  29.386  22.111  1.00  0.00     0.142 C 
BRANCH   9  14
ATOM     14  O   UNL     1      30.436  30.052  19.190  1.00  0.00    -0.357 OA
ATOM     15  H   UNL     1      29.996  29.190  19.077  1.00  0.00     0.214 HD
ENDBRANCH   9  14
BRANCH   9  16
ATOM     16  C   UNL     1      29.088  31.918  19.409  1.00  0.00     0.364 C 
ATOM     17  O   UNL     1      29.648  33.032  19.179  1.00  0.00    -0.246 OA
BRANCH  16  18
ATOM     18  O   UNL     1      27.799  31.771  18.925  1.00  0.00    -0.477 OA
ATOM     19  H   UNL     1      27.189  31.094  19.395  1.00  0.00     0.296 HD
ENDBRANCH  16  18
ENDBRANCH   9  16
BRANCH  12  20
ATOM     20  O   UNL     1      32.292  31.140  22.889  1.00  0.00    -0.391 OA
ATOM     21  H   UNL     1      32.301  30.789  23.812  1.00  0.00     0.211 HD
ENDBRANCH  12  20
BRANCH  13  22
ATOM     22  N   UNL     1      31.158  28.568  23.221  1.00  0.00    -0.348 N 
ATOM     23  C   UNL     1      32.051  27.469  23.118  1.00  0.00     0.217 C 
ATOM     24  H   UNL     1      30.709  28.807  24.154  1.00  0.00     0.163 HD
ATOM     25  C   UNL     1      32.382  26.626  24.311  1.00  0.00     0.114 C 
ATOM     26  O   UNL     1      32.542  27.248  21.982  1.00  0.00    -0.275 OA
ENDBRANCH  13  22
ENDBRANCH   7   8
BRANCH   7  27
ATOM     27  O   UNL     1      29.972  27.462  20.317  1.00  0.00    -0.388 OA
ATOM     28  H   UNL     1      30.349  28.288  19.926  1.00  0.00     0.211 HD
ENDBRANCH   7  27
ENDBRANCH   6   7
BRANCH   6  29
ATOM     29  O   UNL     1      26.955  26.689  21.375  1.00  0.00    -0.388 OA
ATOM     30  H   UNL     1      26.578  26.035  20.738  1.00  0.00     0.211 HD
ENDBRANCH   6  29
ENDBRANCH   5   6
ENDBRANCH   1   5
BRANCH   2  31
ATOM     31  O   UNL     1      27.350  29.980  16.587  1.00  0.00    -0.443 OA
BRANCH  31  32
ATOM     32  C   UNL     1      28.441  29.893  15.678  1.00  0.00     0.294 C 
BRANCH  32  33
ATOM     33  C   UNL     1      29.339  31.060  15.834  1.00  0.00     0.120 A 
ATOM     34  C   UNL     1      29.004  32.348  15.529  1.00  0.00     0.138 A 
ATOM     35  N   UNL     1      30.595  31.093  16.278  1.00  0.00    -0.132 NA
ATOM     36  N   UNL     1      30.065  33.123  15.796  1.00  0.00    -0.248 N 
ATOM     37  N   UNL     1      31.022  32.349  16.250  1.00  0.00    -0.067 NA
BRANCH  36  38
ATOM     38  C   UNL     1      30.121  34.556  15.609  1.00  0.00     0.181 C 
BRANCH  38  39
ATOM     39  C   UNL     1      31.470  35.002  16.059  1.00  0.00    -0.023 A 
ATOM     40  C   UNL     1      32.453  35.187  15.114  1.00  0.00     0.010 A 
ATOM     41  C   UNL     1      31.760  35.231  17.380  1.00  0.00     0.056 A 
ATOM     42  C   UNL     1      33.719  35.603  15.511  1.00  0.00     0.051 A 
ATOM     43  C   UNL     1      33.019  35.643  17.770  1.00  0.00     0.166 A 
ATOM     44  C   UNL     1      34.006  35.832  16.842  1.00  0.00     0.165 A 
ATOM     45  O   UNL     1      33.525  35.929  19.024  1.00  0.00    -0.454 OA
ATOM     46  O   UNL     1      35.159  36.240  17.479  1.00  0.00    -0.454 OA
ATOM     47  C   UNL     1      34.792  36.514  18.824  1.00  0.00     0.468 C 
ENDBRANCH  38  39
ENDBRANCH  36  38
ENDBRANCH  32  33
ENDBRANCH  31  32
ENDBRANCH   2  31
TORSDOF 16
BEGIN_RES LYS A 131
REMARK  4 active torsions:
REMARK  status: ('A' for Active; 'I' for Inactive)
REMARK    1  A    between atoms: CA   and  CB  
REMARK    2  A    between atoms: CB   and  CG  
REMARK    3  A    between atoms: CG   and  CD  
REMARK    4  A    between atoms: CD   and  CE  
ROOT
ATOM      1  CA  LYS A 131      29.867  25.555  16.977  1.00 20.52     0.186 C 
ENDROOT
BRANCH   1   2
ATOM      2  CB  LYS A 131      28.345  25.722  17.026  1.00 20.94     0.034 C 
BRANCH   2   3
ATOM      3  CG  LYS A 131      27.602  24.398  16.931  1.00 22.96     0.005 C 
BRANCH   3   4
ATOM      4  CD  LYS A 131      26.168  24.521  17.365  1.00 24.33     0.041 C 
BRANCH   4   5
ATOM      5  CE  LYS A 131      25.967  23.771  18.678  1.00 26.91     0.338 C 
ATOM      6  NZ  LYS A 131      25.066  24.531  19.577  1.00 27.40     0.618 N 
ENDBRANCH   4   5
ENDBRANCH   3   4
ENDBRANCH   2   3
ENDBRANCH   1   2
END_RES LYS A 131
BEGIN_RES LYS A 135
REMARK  4 active torsions:
REMARK  status: ('A' for Active; 'I' for Inactive)
REMARK    5  A    between atoms: CA   and  CB  
REMARK    6  A    between atoms: CB   and  CG  
REMARK    7  A    between atoms: CG   and  CD  
REMARK    8  A    between atoms: CD   and  CE  
ROOT
ATOM      7  CA  LYS A 135      33.193  34.663   9.290  1.00 25.02     0.186 C 
ENDROOT
BRANCH   7   8
ATOM      8  CB  LYS A 135      32.060  35.360  10.034  1.00 26.63     0.034 C 
BRANCH   8   9
ATOM      9  CG  LYS A 135      30.810  35.527   9.209  1.00 29.45     0.005 C 
BRANCH   9  10
ATOM     10  CD  LYS A 135      30.011  34.233   9.177  1.00 32.00     0.041 C 
BRANCH  10  11
ATOM     11  CE  LYS A 135      28.817  34.322  10.108  1.00 34.25     0.338 C 
ATOM     12  NZ  LYS A 135      27.577  33.841   9.437  1.00 35.99     0.618 N 
ENDBRANCH  10  11
ENDBRANCH   9  10
ENDBRANCH   8   9
ENDBRANCH   7   8
END_RES LYS A 135
