REMARK VINA RESULT:    -5.198      1.932      5.302
REMARK INTER + INTRA:         -14.714
REMARK INTER:                  -7.187
REMARK INTRA:                  -7.527
REMARK UNBOUND:                -5.414
REMARK SMILES CC(=O)N[C@@H]1[C@@H](O)C[C@](O)(C(=O)O)O[C@H]1C(O)[C@H](O)CNC(=O)OCc1cn(-c2ccccc2C(N)=O)nn1
REMARK SMILES IDX 21 1 22 2 23 3 20 5 18 6 16 7 15 8 9 9 8 10 14 11 6 12 5 13
REMARK SMILES IDX 10 14 11 16 12 17 13 18 7 20 4 22 2 23 1 25 3 26 17 27 19 29
REMARK SMILES IDX 24 31 25 32 26 33 27 34 39 35 28 36 38 37 29 38 34 39 30 40
REMARK SMILES IDX 33 41 31 42 32 43 35 44 37 45 36 46
REMARK H PARENT 21 4 10 15 13 19 7 21 4 24 17 28 19 30 36 47 36 48
REMARK Flexibility Score: inf
ROOT
ATOM      1  N   UNL     1      28.345  30.089  16.151  1.00  0.00    -0.319 N 
ATOM      2  C   UNL     1      27.019  30.513  15.871  1.00  0.00     0.407 C 
ATOM      3  O   UNL     1      26.799  31.723  15.683  1.00  0.00    -0.225 OA
ATOM      4  H   UNL     1      28.463  29.045  16.301  1.00  0.00     0.167 HD
ENDROOT
BRANCH   1   5
ATOM      5  C   UNL     1      29.489  30.962  16.238  1.00  0.00     0.154 C 
BRANCH   5   6
ATOM      6  C   UNL     1      29.620  31.613  17.605  1.00  0.00     0.165 C 
BRANCH   6   7
ATOM      7  C   UNL     1      29.320  30.649  18.714  1.00  0.00     0.176 C 
BRANCH   7   8
ATOM      8  C   UNL     1      30.412  30.476  19.700  1.00  0.00     0.178 C 
ATOM      9  C   UNL     1      31.183  28.832  21.175  1.00  0.00     0.269 C 
ATOM     10  C   UNL     1      32.323  29.798  21.308  1.00  0.00     0.112 C 
ATOM     11  O   UNL     1      30.263  29.168  20.233  1.00  0.00    -0.332 OA
ATOM     12  C   UNL     1      31.908  31.223  21.437  1.00  0.00     0.145 C 
ATOM     13  C   UNL     1      30.508  31.388  20.855  1.00  0.00     0.142 C 
BRANCH   9  14
ATOM     14  O   UNL     1      30.604  28.624  22.449  1.00  0.00    -0.357 OA
ATOM     15  H   UNL     1      30.537  29.518  22.896  1.00  0.00     0.214 HD
ENDBRANCH   9  14
BRANCH   9  16
ATOM     16  C   UNL     1      31.775  27.518  20.789  1.00  0.00     0.364 C 
ATOM     17  O   UNL     1      31.813  26.601  21.665  1.00  0.00    -0.246 OA
BRANCH  16  18
ATOM     18  O   UNL     1      32.283  27.245  19.537  1.00  0.00    -0.477 OA
ATOM     19  H   UNL     1      31.845  26.569  18.933  1.00  0.00     0.296 HD
ENDBRANCH  16  18
ENDBRANCH   9  16
BRANCH  12  20
ATOM     20  O   UNL     1      31.946  31.586  22.774  1.00  0.00    -0.391 OA
ATOM     21  H   UNL     1      32.829  31.923  23.069  1.00  0.00     0.211 HD
ENDBRANCH  12  20
BRANCH  13  22
ATOM     22  N   UNL     1      30.130  32.740  20.705  1.00  0.00    -0.348 N 
ATOM     23  C   UNL     1      29.232  33.372  21.590  1.00  0.00     0.217 C 
ATOM     24  H   UNL     1      30.522  33.323  19.939  1.00  0.00     0.163 HD
ATOM     25  C   UNL     1      28.802  34.782  21.480  1.00  0.00     0.114 C 
ATOM     26  O   UNL     1      28.768  32.695  22.533  1.00  0.00    -0.275 OA
ENDBRANCH  13  22
ENDBRANCH   7   8
BRANCH   7  27
ATOM     27  O   UNL     1      28.032  30.683  19.197  1.00  0.00    -0.388 OA
ATOM     28  H   UNL     1      27.489  31.347  18.673  1.00  0.00     0.211 HD
ENDBRANCH   7  27
ENDBRANCH   6   7
BRANCH   6  29
ATOM     29  O   UNL     1      28.989  32.822  17.674  1.00  0.00    -0.388 OA
ATOM     30  H   UNL     1      28.884  33.122  18.619  1.00  0.00     0.211 HD
ENDBRANCH   6  29
ENDBRANCH   5   6
ENDBRANCH   1   5
BRANCH   2  31
ATOM     31  O   UNL     1      25.954  29.623  15.797  1.00  0.00    -0.443 OA
BRANCH  31  32
ATOM     32  C   UNL     1      25.065  29.418  16.882  1.00  0.00     0.294 C 
BRANCH  32  33
ATOM     33  C   UNL     1      25.739  28.638  17.963  1.00  0.00     0.121 A 
ATOM     34  C   UNL     1      25.177  28.305  19.181  1.00  0.00     0.144 A 
ATOM     35  N   UNL     1      26.978  28.124  17.966  1.00  0.00    -0.131 NA
ATOM     36  N   UNL     1      26.112  27.594  19.881  1.00  0.00    -0.220 N 
ATOM     37  N   UNL     1      27.170  27.504  19.130  1.00  0.00    -0.062 NA
BRANCH  36  38
ATOM     38  C   UNL     1      25.922  27.070  21.201  1.00  0.00     0.079 A 
ATOM     39  C   UNL     1      26.084  27.846  22.324  1.00  0.00     0.065 A 
ATOM     40  C   UNL     1      25.563  25.732  21.325  1.00  0.00     0.029 A 
ATOM     41  C   UNL     1      25.880  27.261  23.578  1.00  0.00     0.016 A 
ATOM     42  C   UNL     1      25.368  25.175  22.566  1.00  0.00     0.002 A 
ATOM     43  C   UNL     1      25.530  25.949  23.685  1.00  0.00     0.001 A 
BRANCH  39  44
ATOM     44  C   UNL     1      26.456  29.251  22.264  1.00  0.00     0.250 C 
ATOM     45  O   UNL     1      25.517  30.108  22.331  1.00  0.00    -0.269 OA
ATOM     46  N   UNL     1      27.802  29.689  22.137  1.00  0.00    -0.366 N 
ATOM     47  H   UNL     1      28.485  29.616  22.907  1.00  0.00     0.159 HD
ATOM     48  H   UNL     1      28.073  30.109  21.197  1.00  0.00     0.159 HD
ENDBRANCH  39  44
ENDBRANCH  36  38
ENDBRANCH  32  33
ENDBRANCH  31  32
ENDBRANCH   2  31
TORSDOF 16
BEGIN_RES LYS A 131
REMARK  4 active torsions:
REMARK  status: ('A' for Active; 'I' for Inactive)
REMARK    1  A    between atoms: CA   and  CB  
REMARK    2  A    between atoms: CB   and  CG  
REMARK    3  A    between atoms: CG   and  CD  
REMARK    4  A    between atoms: CD   and  CE  
ROOT
ATOM      1  CA  LYS A 131      29.867  25.555  16.977  1.00 20.52     0.186 C 
ENDROOT
BRANCH   1   2
ATOM      2  CB  LYS A 131      28.345  25.722  17.026  1.00 20.94     0.034 C 
BRANCH   2   3
ATOM      3  CG  LYS A 131      27.601  24.406  16.860  1.00 22.96     0.005 C 
BRANCH   3   4
ATOM      4  CD  LYS A 131      26.589  24.186  17.951  1.00 24.33     0.041 C 
BRANCH   4   5
ATOM      5  CE  LYS A 131      25.253  24.794  17.536  1.00 26.91     0.338 C 
ATOM      6  NZ  LYS A 131      24.395  23.772  16.892  1.00 27.40     0.618 N 
ENDBRANCH   4   5
ENDBRANCH   3   4
ENDBRANCH   2   3
ENDBRANCH   1   2
END_RES LYS A 131
BEGIN_RES LYS A 135
REMARK  4 active torsions:
REMARK  status: ('A' for Active; 'I' for Inactive)
REMARK    5  A    between atoms: CA   and  CB  
REMARK    6  A    between atoms: CB   and  CG  
REMARK    7  A    between atoms: CG   and  CD  
REMARK    8  A    between atoms: CD   and  CE  
ROOT
ATOM      7  CA  LYS A 135      33.193  34.663   9.290  1.00 25.02     0.186 C 
ENDROOT
BRANCH   7   8
ATOM      8  CB  LYS A 135      32.060  35.360  10.034  1.00 26.63     0.034 C 
BRANCH   8   9
ATOM      9  CG  LYS A 135      30.701  34.778   9.743  1.00 29.45     0.005 C 
BRANCH   9  10
ATOM     10  CD  LYS A 135      30.559  34.459   8.263  1.00 32.00     0.041 C 
BRANCH  10  11
ATOM     11  CE  LYS A 135      29.240  34.985   7.729  1.00 34.25     0.338 C 
ATOM     12  NZ  LYS A 135      28.186  34.956   8.780  1.00 35.99     0.618 N 
ENDBRANCH  10  11
ENDBRANCH   9  10
ENDBRANCH   8   9
ENDBRANCH   7   8
END_RES LYS A 135
