REMARK VINA RESULT:    -5.508      0.000      0.000
REMARK INTER + INTRA:         -15.616
REMARK INTER:                  -8.590
REMARK INTRA:                  -7.026
REMARK UNBOUND:                -5.118
REMARK SMILES COc1ccc(Cn2cc(COC(=O)NC[C@@H](O)C(O)[C@@H]3O[C@@](O)(C(=O)O)C[C@H](O)[C@H]3NC(C)=O)nn2)cc1OC
REMARK SMILES IDX 15 1 13 2 14 3 16 5 17 6 19 7 21 8 23 9 28 10 22 11 29 12
REMARK SMILES IDX 31 13 24 14 25 16 26 17 27 18 30 20 32 22 33 23 34 25 35 26
REMARK SMILES IDX 20 27 18 29 12 31 11 32 10 33 9 34 36 35 8 36 37 37 7 38
REMARK SMILES IDX 6 39 38 40 5 41 39 42 4 43 3 44 40 45 41 46 2 47 1 48
REMARK H PARENT 15 4 24 15 27 19 30 21 32 24 20 28 18 30
REMARK Flexibility Score: inf
ROOT
ATOM      1  N   UNL     1      30.627  32.507  14.681  1.00  0.00    -0.319 N 
ATOM      2  C   UNL     1      30.713  33.889  14.465  1.00  0.00     0.407 C 
ATOM      3  O   UNL     1      30.868  34.688  15.413  1.00  0.00    -0.225 OA
ATOM      4  H   UNL     1      30.485  31.896  13.820  1.00  0.00     0.167 HD
ENDROOT
BRANCH   1   5
ATOM      5  C   UNL     1      30.716  31.837  15.967  1.00  0.00     0.154 C 
BRANCH   5   6
ATOM      6  C   UNL     1      29.495  31.032  16.231  1.00  0.00     0.165 C 
BRANCH   6   7
ATOM      7  C   UNL     1      29.245  30.739  17.690  1.00  0.00     0.176 C 
BRANCH   7   8
ATOM      8  C   UNL     1      27.813  30.797  18.103  1.00  0.00     0.178 C 
ATOM      9  C   UNL     1      27.031  28.601  18.031  1.00  0.00     0.269 C 
ATOM     10  C   UNL     1      25.597  28.974  17.682  1.00  0.00     0.112 C 
ATOM     11  O   UNL     1      27.530  29.610  18.809  1.00  0.00    -0.332 OA
ATOM     12  C   UNL     1      25.467  30.469  17.672  1.00  0.00     0.145 C 
ATOM     13  C   UNL     1      26.782  31.130  17.114  1.00  0.00     0.142 C 
BRANCH   9  14
ATOM     14  O   UNL     1      27.770  28.315  16.888  1.00  0.00    -0.357 OA
ATOM     15  H   UNL     1      28.505  27.671  17.060  1.00  0.00     0.214 HD
ENDBRANCH   9  14
BRANCH   9  16
ATOM     16  C   UNL     1      27.021  27.354  18.851  1.00  0.00     0.364 C 
ATOM     17  O   UNL     1      25.920  26.823  19.130  1.00  0.00    -0.246 OA
BRANCH  16  18
ATOM     18  O   UNL     1      28.181  26.758  19.319  1.00  0.00    -0.477 OA
ATOM     19  H   UNL     1      29.036  27.297  19.507  1.00  0.00     0.296 HD
ENDBRANCH  16  18
ENDBRANCH   9  16
BRANCH  12  20
ATOM     20  O   UNL     1      24.399  30.903  16.895  1.00  0.00    -0.391 OA
ATOM     21  H   UNL     1      24.464  30.570  15.975  1.00  0.00     0.211 HD
ENDBRANCH  12  20
BRANCH  13  22
ATOM     22  N   UNL     1      26.440  32.560  17.139  1.00  0.00    -0.348 N 
ATOM     23  C   UNL     1      26.805  33.479  16.127  1.00  0.00     0.217 C 
ATOM     24  H   UNL     1      25.884  32.961  17.951  1.00  0.00     0.163 HD
ATOM     25  C   UNL     1      26.449  34.919  16.182  1.00  0.00     0.114 C 
ATOM     26  O   UNL     1      27.460  33.076  15.133  1.00  0.00    -0.275 OA
ENDBRANCH  13  22
ENDBRANCH   7   8
BRANCH   7  27
ATOM     27  O   UNL     1      29.886  31.806  18.440  1.00  0.00    -0.388 OA
ATOM     28  H   UNL     1      30.859  31.651  18.377  1.00  0.00     0.211 HD
ENDBRANCH   7  27
ENDBRANCH   6   7
BRANCH   6  29
ATOM     29  O   UNL     1      29.264  29.981  15.382  1.00  0.00    -0.388 OA
ATOM     30  H   UNL     1      29.007  29.152  15.828  1.00  0.00     0.211 HD
ENDBRANCH   6  29
ENDBRANCH   5   6
ENDBRANCH   1   5
BRANCH   2  31
ATOM     31  O   UNL     1      30.626  34.425  13.162  1.00  0.00    -0.443 OA
BRANCH  31  32
ATOM     32  C   UNL     1      30.271  35.811  13.036  1.00  0.00     0.294 C 
BRANCH  32  33
ATOM     33  C   UNL     1      28.829  35.981  12.872  1.00  0.00     0.120 A 
ATOM     34  C   UNL     1      28.004  35.238  12.067  1.00  0.00     0.138 A 
ATOM     35  N   UNL     1      28.069  36.896  13.494  1.00  0.00    -0.132 NA
ATOM     36  N   UNL     1      26.769  35.708  12.211  1.00  0.00    -0.248 N 
ATOM     37  N   UNL     1      26.826  36.703  13.071  1.00  0.00    -0.067 NA
BRANCH  36  38
ATOM     38  C   UNL     1      25.560  35.235  11.548  1.00  0.00     0.181 C 
BRANCH  38  39
ATOM     39  C   UNL     1      24.731  34.501  12.554  1.00  0.00    -0.023 A 
ATOM     40  C   UNL     1      24.993  33.154  12.800  1.00  0.00     0.056 A 
ATOM     41  C   UNL     1      23.714  35.105  13.262  1.00  0.00     0.010 A 
ATOM     42  C   UNL     1      24.261  32.446  13.721  1.00  0.00     0.161 A 
ATOM     43  C   UNL     1      22.961  34.420  14.195  1.00  0.00     0.051 A 
ATOM     44  C   UNL     1      23.250  33.093  14.409  1.00  0.00     0.160 A 
BRANCH  42  45
ATOM     45  O   UNL     1      24.510  31.100  13.977  1.00  0.00    -0.493 OA
ATOM     46  C   UNL     1      24.013  30.139  13.063  1.00  0.00     0.278 C 
ENDBRANCH  42  45
BRANCH  44  47
ATOM     47  O   UNL     1      22.517  32.370  15.337  1.00  0.00    -0.493 OA
ATOM     48  C   UNL     1      21.202  31.921  15.068  1.00  0.00     0.278 C 
ENDBRANCH  44  47
ENDBRANCH  38  39
ENDBRANCH  36  38
ENDBRANCH  32  33
ENDBRANCH  31  32
ENDBRANCH   2  31
TORSDOF 18
BEGIN_RES LYS A 131
REMARK  4 active torsions:
REMARK  status: ('A' for Active; 'I' for Inactive)
REMARK    1  A    between atoms: CA   and  CB  
REMARK    2  A    between atoms: CB   and  CG  
REMARK    3  A    between atoms: CG   and  CD  
REMARK    4  A    between atoms: CD   and  CE  
ROOT
ATOM      1  CA  LYS A 131      29.867  25.555  16.977  1.00 20.52     0.186 C 
ENDROOT
BRANCH   1   2
ATOM      2  CB  LYS A 131      28.345  25.722  17.026  1.00 20.94     0.034 C 
BRANCH   2   3
ATOM      3  CG  LYS A 131      27.599  24.450  16.652  1.00 22.96     0.005 C 
BRANCH   3   4
ATOM      4  CD  LYS A 131      27.033  23.751  17.857  1.00 24.33     0.041 C 
BRANCH   4   5
ATOM      5  CE  LYS A 131      25.634  23.235  17.535  1.00 26.91     0.338 C 
ATOM      6  NZ  LYS A 131      24.803  24.315  16.952  1.00 27.40     0.618 N 
ENDBRANCH   4   5
ENDBRANCH   3   4
ENDBRANCH   2   3
ENDBRANCH   1   2
END_RES LYS A 131
BEGIN_RES LYS A 135
REMARK  4 active torsions:
REMARK  status: ('A' for Active; 'I' for Inactive)
REMARK    5  A    between atoms: CA   and  CB  
REMARK    6  A    between atoms: CB   and  CG  
REMARK    7  A    between atoms: CG   and  CD  
REMARK    8  A    between atoms: CD   and  CE  
ROOT
ATOM      7  CA  LYS A 135      33.193  34.663   9.290  1.00 25.02     0.186 C 
ENDROOT
BRANCH   7   8
ATOM      8  CB  LYS A 135      32.060  35.360  10.034  1.00 26.63     0.034 C 
BRANCH   8   9
ATOM      9  CG  LYS A 135      30.813  35.536   9.206  1.00 29.45     0.005 C 
BRANCH   9  10
ATOM     10  CD  LYS A 135      30.206  34.186   8.858  1.00 32.00     0.041 C 
BRANCH  10  11
ATOM     11  CE  LYS A 135      28.704  34.307   8.683  1.00 34.25     0.338 C 
ATOM     12  NZ  LYS A 135      28.367  35.215   7.551  1.00 35.99     0.618 N 
ENDBRANCH  10  11
ENDBRANCH   9  10
ENDBRANCH   8   9
ENDBRANCH   7   8
END_RES LYS A 135
