REMARK VINA RESULT:    -5.232      5.836     10.573
REMARK INTER + INTRA:         -15.091
REMARK INTER:                  -8.505
REMARK INTRA:                  -6.586
REMARK UNBOUND:                -5.118
REMARK SMILES COc1ccc(Cn2cc(COC(=O)NC[C@@H](O)C(O)[C@@H]3O[C@@](O)(C(=O)O)C[C@H](O)[C@H]3NC(C)=O)nn2)cc1OC
REMARK SMILES IDX 15 1 13 2 14 3 16 5 17 6 19 7 21 8 23 9 28 10 22 11 29 12
REMARK SMILES IDX 31 13 24 14 25 16 26 17 27 18 30 20 32 22 33 23 34 25 35 26
REMARK SMILES IDX 20 27 18 29 12 31 11 32 10 33 9 34 36 35 8 36 37 37 7 38
REMARK SMILES IDX 6 39 38 40 5 41 39 42 4 43 3 44 40 45 41 46 2 47 1 48
REMARK H PARENT 15 4 24 15 27 19 30 21 32 24 20 28 18 30
REMARK Flexibility Score: inf
ROOT
ATOM      1  N   UNL     1      19.525  34.111  10.511  1.00  0.00    -0.319 N 
ATOM      2  C   UNL     1      19.455  33.251  11.615  1.00  0.00     0.407 C 
ATOM      3  O   UNL     1      18.646  32.299  11.649  1.00  0.00    -0.225 OA
ATOM      4  H   UNL     1      20.234  34.904  10.567  1.00  0.00     0.167 HD
ENDROOT
BRANCH   1   5
ATOM      5  C   UNL     1      18.721  34.018   9.305  1.00  0.00     0.154 C 
BRANCH   5   6
ATOM      6  C   UNL     1      19.146  35.032   8.305  1.00  0.00     0.165 C 
BRANCH   6   7
ATOM      7  C   UNL     1      18.466  36.372   8.447  1.00  0.00     0.176 C 
BRANCH   7   8
ATOM      8  C   UNL     1      19.298  37.542   8.040  1.00  0.00     0.178 C 
ATOM      9  C   UNL     1      21.429  37.148   8.902  1.00  0.00     0.269 C 
ATOM     10  C   UNL     1      21.777  38.618   9.094  1.00  0.00     0.112 C 
ATOM     11  O   UNL     1      20.606  37.070   7.812  1.00  0.00    -0.332 OA
ATOM     12  C   UNL     1      20.654  39.461   8.562  1.00  0.00     0.145 C 
ATOM     13  C   UNL     1      19.269  38.770   8.843  1.00  0.00     0.142 C 
BRANCH   9  14
ATOM     14  O   UNL     1      20.916  36.595  10.071  1.00  0.00    -0.357 OA
ATOM     15  H   UNL     1      20.546  35.685   9.931  1.00  0.00     0.214 HD
ENDBRANCH   9  14
BRANCH   9  16
ATOM     16  C   UNL     1      22.677  36.393   8.589  1.00  0.00     0.364 C 
ATOM     17  O   UNL     1      23.562  36.947   7.896  1.00  0.00    -0.246 OA
BRANCH  16  18
ATOM     18  O   UNL     1      22.898  35.098   9.033  1.00  0.00    -0.477 OA
ATOM     19  H   UNL     1      22.133  34.422   9.152  1.00  0.00     0.296 HD
ENDBRANCH  16  18
ENDBRANCH   9  16
BRANCH  12  20
ATOM     20  O   UNL     1      20.631  40.730   9.130  1.00  0.00    -0.391 OA
ATOM     21  H   UNL     1      19.717  41.084   9.184  1.00  0.00     0.211 HD
ENDBRANCH  12  20
BRANCH  13  22
ATOM     22  N   UNL     1      18.321  39.755   8.302  1.00  0.00    -0.348 N 
ATOM     23  C   UNL     1      16.978  39.880   8.733  1.00  0.00     0.217 C 
ATOM     24  H   UNL     1      18.629  40.430   7.543  1.00  0.00     0.163 HD
ATOM     25  C   UNL     1      16.042  40.883   8.165  1.00  0.00     0.114 C 
ATOM     26  O   UNL     1      16.544  39.118   9.632  1.00  0.00    -0.275 OA
ENDBRANCH  13  22
ENDBRANCH   7   8
BRANCH   7  27
ATOM     27  O   UNL     1      18.231  36.566   9.868  1.00  0.00    -0.388 OA
ATOM     28  H   UNL     1      17.832  37.463   9.969  1.00  0.00     0.211 HD
ENDBRANCH   7  27
ENDBRANCH   6   7
BRANCH   6  29
ATOM     29  O   UNL     1      19.291  34.591   7.016  1.00  0.00    -0.388 OA
ATOM     30  H   UNL     1      18.619  34.931   6.395  1.00  0.00     0.211 HD
ENDBRANCH   6  29
ENDBRANCH   5   6
ENDBRANCH   1   5
BRANCH   2  31
ATOM     31  O   UNL     1      20.300  33.434  12.731  1.00  0.00    -0.443 OA
BRANCH  31  32
ATOM     32  C   UNL     1      21.625  32.885  12.658  1.00  0.00     0.294 C 
BRANCH  32  33
ATOM     33  C   UNL     1      22.618  33.921  12.380  1.00  0.00     0.120 A 
ATOM     34  C   UNL     1      23.981  33.778  12.414  1.00  0.00     0.138 A 
ATOM     35  N   UNL     1      22.354  35.191  12.034  1.00  0.00    -0.132 NA
ATOM     36  N   UNL     1      24.518  34.951  12.093  1.00  0.00    -0.248 N 
ATOM     37  N   UNL     1      23.527  35.788  11.867  1.00  0.00    -0.067 NA
BRANCH  36  38
ATOM     38  C   UNL     1      25.936  35.280  12.006  1.00  0.00     0.181 C 
BRANCH  38  39
ATOM     39  C   UNL     1      26.274  35.516  10.568  1.00  0.00    -0.023 A 
ATOM     40  C   UNL     1      26.537  36.814  10.134  1.00  0.00     0.056 A 
ATOM     41  C   UNL     1      26.345  34.496   9.643  1.00  0.00     0.010 A 
ATOM     42  C   UNL     1      26.859  37.073   8.824  1.00  0.00     0.161 A 
ATOM     43  C   UNL     1      26.666  34.724   8.320  1.00  0.00     0.051 A 
ATOM     44  C   UNL     1      26.920  36.019   7.932  1.00  0.00     0.160 A 
BRANCH  42  45
ATOM     45  O   UNL     1      27.124  38.365   8.377  1.00  0.00    -0.493 OA
ATOM     46  C   UNL     1      26.105  39.342   8.501  1.00  0.00     0.278 C 
ENDBRANCH  42  45
BRANCH  44  47
ATOM     47  O   UNL     1      27.246  36.290   6.612  1.00  0.00    -0.493 OA
ATOM     48  C   UNL     1      28.517  35.979   6.074  1.00  0.00     0.278 C 
ENDBRANCH  44  47
ENDBRANCH  38  39
ENDBRANCH  36  38
ENDBRANCH  32  33
ENDBRANCH  31  32
ENDBRANCH   2  31
TORSDOF 18
BEGIN_RES LYS A 131
REMARK  4 active torsions:
REMARK  status: ('A' for Active; 'I' for Inactive)
REMARK    1  A    between atoms: CA   and  CB  
REMARK    2  A    between atoms: CB   and  CG  
REMARK    3  A    between atoms: CG   and  CD  
REMARK    4  A    between atoms: CD   and  CE  
ROOT
ATOM      1  CA  LYS A 131      29.867  25.555  16.977  1.00 20.52     0.186 C 
ENDROOT
BRANCH   1   2
ATOM      2  CB  LYS A 131      28.345  25.722  17.026  1.00 20.94     0.034 C 
BRANCH   2   3
ATOM      3  CG  LYS A 131      27.603  24.395  16.980  1.00 22.96     0.005 C 
BRANCH   3   4
ATOM      4  CD  LYS A 131      26.111  24.578  17.023  1.00 24.33     0.041 C 
BRANCH   4   5
ATOM      5  CE  LYS A 131      25.473  23.389  17.734  1.00 26.91     0.338 C 
ATOM      6  NZ  LYS A 131      25.860  23.371  19.165  1.00 27.40     0.618 N 
ENDBRANCH   4   5
ENDBRANCH   3   4
ENDBRANCH   2   3
ENDBRANCH   1   2
END_RES LYS A 131
BEGIN_RES LYS A 135
REMARK  4 active torsions:
REMARK  status: ('A' for Active; 'I' for Inactive)
REMARK    5  A    between atoms: CA   and  CB  
REMARK    6  A    between atoms: CB   and  CG  
REMARK    7  A    between atoms: CG   and  CD  
REMARK    8  A    between atoms: CD   and  CE  
ROOT
ATOM      7  CA  LYS A 135      33.193  34.663   9.290  1.00 25.02     0.186 C 
ENDROOT
BRANCH   7   8
ATOM      8  CB  LYS A 135      32.060  35.360  10.034  1.00 26.63     0.034 C 
BRANCH   8   9
ATOM      9  CG  LYS A 135      30.689  34.961   9.553  1.00 29.45     0.005 C 
BRANCH   9  10
ATOM     10  CD  LYS A 135      29.738  34.788  10.728  1.00 32.00     0.041 C 
BRANCH  10  11
ATOM     11  CE  LYS A 135      30.502  34.798  12.038  1.00 34.25     0.338 C 
ATOM     12  NZ  LYS A 135      29.633  34.370  13.169  1.00 35.99     0.618 N 
ENDBRANCH  10  11
ENDBRANCH   9  10
ENDBRANCH   8   9
ENDBRANCH   7   8
END_RES LYS A 135
