REMARK VINA RESULT:    -4.622      3.509      6.793
REMARK INTER + INTRA:         -15.086
REMARK INTER:                  -9.339
REMARK INTRA:                  -5.747
REMARK UNBOUND:                -6.275
REMARK SMILES CC(=O)N[C@@H]1[C@@H](O)C[C@](O)(C(=O)O)O[C@H]1C(O)[C@H](O)CNC(=O)OCc1cn(Cc2ccccc2OC(C)=O)nn1
REMARK SMILES IDX 21 1 22 2 23 3 20 5 18 6 16 7 15 8 9 9 8 10 14 11 6 12 5 13
REMARK SMILES IDX 10 14 11 16 12 17 13 18 7 20 4 22 2 23 1 25 3 26 17 27 19 29
REMARK SMILES IDX 24 31 25 32 26 33 27 34 41 35 28 36 40 37 29 38 30 39 35 40
REMARK SMILES IDX 31 41 34 42 32 43 33 44 36 45 37 46 39 47 38 48
REMARK H PARENT 21 4 10 15 13 19 7 21 4 24 17 28 19 30
REMARK Flexibility Score: inf
ROOT
ATOM      1  N   UNL     1      23.442  38.403   9.495  1.00  0.00    -0.319 N 
ATOM      2  C   UNL     1      22.802  37.826   8.357  1.00  0.00     0.407 C 
ATOM      3  O   UNL     1      23.440  37.773   7.285  1.00  0.00    -0.225 OA
ATOM      4  H   UNL     1      22.902  38.444  10.380  1.00  0.00     0.167 HD
ENDROOT
BRANCH   1   5
ATOM      5  C   UNL     1      24.785  38.912   9.408  1.00  0.00     0.154 C 
BRANCH   5   6
ATOM      6  C   UNL     1      25.686  38.028  10.277  1.00  0.00     0.165 C 
BRANCH   6   7
ATOM      7  C   UNL     1      26.466  37.101   9.386  1.00  0.00     0.176 C 
BRANCH   7   8
ATOM      8  C   UNL     1      27.197  37.912   8.350  1.00  0.00     0.178 C 
ATOM      9  C   UNL     1      27.701  37.924   6.080  1.00  0.00     0.269 C 
ATOM     10  C   UNL     1      29.162  37.647   6.349  1.00  0.00     0.112 C 
ATOM     11  O   UNL     1      26.993  37.358   7.126  1.00  0.00    -0.332 OA
ATOM     12  C   UNL     1      29.552  38.352   7.603  1.00  0.00     0.145 C 
ATOM     13  C   UNL     1      28.615  38.109   8.753  1.00  0.00     0.142 C 
BRANCH   9  14
ATOM     14  O   UNL     1      27.379  37.164   4.935  1.00  0.00    -0.357 OA
ATOM     15  H   UNL     1      26.548  37.479   4.513  1.00  0.00     0.214 HD
ENDBRANCH   9  14
BRANCH   9  16
ATOM     16  C   UNL     1      27.400  39.351   5.849  1.00  0.00     0.364 C 
ATOM     17  O   UNL     1      28.274  40.244   5.737  1.00  0.00    -0.246 OA
BRANCH  16  18
ATOM     18  O   UNL     1      26.082  39.751   5.745  1.00  0.00    -0.477 OA
ATOM     19  H   UNL     1      25.285  39.131   5.905  1.00  0.00     0.296 HD
ENDBRANCH  16  18
ENDBRANCH   9  16
BRANCH  12  20
ATOM     20  O   UNL     1      30.853  37.912   7.934  1.00  0.00    -0.391 OA
ATOM     21  H   UNL     1      30.994  38.066   8.915  1.00  0.00     0.211 HD
ENDBRANCH  12  20
BRANCH  13  22
ATOM     22  N   UNL     1      28.689  39.252   9.643  1.00  0.00    -0.348 N 
ATOM     23  C   UNL     1      29.549  39.270  10.783  1.00  0.00     0.217 C 
ATOM     24  H   UNL     1      28.109  40.100   9.468  1.00  0.00     0.163 HD
ATOM     25  C   UNL     1      29.586  40.464  11.658  1.00  0.00     0.114 C 
ATOM     26  O   UNL     1      30.265  38.277  11.033  1.00  0.00    -0.275 OA
ENDBRANCH  13  22
ENDBRANCH   7   8
BRANCH   7  27
ATOM     27  O   UNL     1      25.637  36.159   8.765  1.00  0.00    -0.388 OA
ATOM     28  H   UNL     1      25.910  36.074   7.822  1.00  0.00     0.211 HD
ENDBRANCH   7  27
ENDBRANCH   6   7
BRANCH   6  29
ATOM     29  O   UNL     1      24.874  37.387  11.185  1.00  0.00    -0.388 OA
ATOM     30  H   UNL     1      24.771  36.426  11.022  1.00  0.00     0.211 HD
ENDBRANCH   6  29
ENDBRANCH   5   6
ENDBRANCH   1   5
BRANCH   2  31
ATOM     31  O   UNL     1      21.508  37.344   8.462  1.00  0.00    -0.443 OA
BRANCH  31  32
ATOM     32  C   UNL     1      21.229  35.965   8.523  1.00  0.00     0.294 C 
BRANCH  32  33
ATOM     33  C   UNL     1      21.827  35.411   9.747  1.00  0.00     0.120 A 
ATOM     34  C   UNL     1      21.139  34.889  10.846  1.00  0.00     0.138 A 
ATOM     35  N   UNL     1      23.139  35.291  10.071  1.00  0.00    -0.132 NA
ATOM     36  N   UNL     1      22.044  34.500  11.736  1.00  0.00    -0.248 N 
ATOM     37  N   UNL     1      23.254  34.744  11.265  1.00  0.00    -0.067 NA
BRANCH  36  38
ATOM     38  C   UNL     1      21.765  33.896  13.023  1.00  0.00     0.185 C 
BRANCH  38  39
ATOM     39  C   UNL     1      22.269  32.484  12.939  1.00  0.00     0.016 A 
ATOM     40  C   UNL     1      21.404  31.505  12.526  1.00  0.00     0.135 A 
ATOM     41  C   UNL     1      23.569  32.204  13.274  1.00  0.00     0.009 A 
ATOM     42  C   UNL     1      21.817  30.201  12.435  1.00  0.00     0.047 A 
ATOM     43  C   UNL     1      24.005  30.878  13.185  1.00  0.00     0.001 A 
ATOM     44  C   UNL     1      23.124  29.916  12.771  1.00  0.00     0.004 A 
BRANCH  40  45
ATOM     45  O   UNL     1      20.096  31.828  12.196  1.00  0.00    -0.426 OA
BRANCH  45  46
ATOM     46  C   UNL     1      19.078  31.174  12.888  1.00  0.00     0.308 C 
ATOM     47  O   UNL     1      18.955  31.355  14.122  1.00  0.00    -0.252 OA
ATOM     48  C   UNL     1      18.140  30.268  12.183  1.00  0.00     0.139 C 
ENDBRANCH  45  46
ENDBRANCH  40  45
ENDBRANCH  38  39
ENDBRANCH  36  38
ENDBRANCH  32  33
ENDBRANCH  31  32
ENDBRANCH   2  31
TORSDOF 18
BEGIN_RES LYS A 131
REMARK  4 active torsions:
REMARK  status: ('A' for Active; 'I' for Inactive)
REMARK    1  A    between atoms: CA   and  CB  
REMARK    2  A    between atoms: CB   and  CG  
REMARK    3  A    between atoms: CG   and  CD  
REMARK    4  A    between atoms: CD   and  CE  
ROOT
ATOM      1  CA  LYS A 131      29.867  25.555  16.977  1.00 20.52     0.186 C 
ENDROOT
BRANCH   1   2
ATOM      2  CB  LYS A 131      28.345  25.722  17.026  1.00 20.94     0.034 C 
BRANCH   2   3
ATOM      3  CG  LYS A 131      27.602  24.398  16.934  1.00 22.96     0.005 C 
BRANCH   3   4
ATOM      4  CD  LYS A 131      26.398  24.361  17.834  1.00 24.33     0.041 C 
BRANCH   4   5
ATOM      5  CE  LYS A 131      26.371  25.615  18.701  1.00 26.91     0.338 C 
ATOM      6  NZ  LYS A 131      25.077  26.321  18.554  1.00 27.40     0.618 N 
ENDBRANCH   4   5
ENDBRANCH   3   4
ENDBRANCH   2   3
ENDBRANCH   1   2
END_RES LYS A 131
BEGIN_RES LYS A 135
REMARK  4 active torsions:
REMARK  status: ('A' for Active; 'I' for Inactive)
REMARK    5  A    between atoms: CA   and  CB  
REMARK    6  A    between atoms: CB   and  CG  
REMARK    7  A    between atoms: CG   and  CD  
REMARK    8  A    between atoms: CD   and  CE  
ROOT
ATOM      7  CA  LYS A 135      33.193  34.663   9.290  1.00 25.02     0.186 C 
ENDROOT
BRANCH   7   8
ATOM      8  CB  LYS A 135      32.060  35.360  10.034  1.00 26.63     0.034 C 
BRANCH   8   9
ATOM      9  CG  LYS A 135      30.735  34.652   9.914  1.00 29.45     0.005 C 
BRANCH   9  10
ATOM     10  CD  LYS A 135      30.338  34.502   8.453  1.00 32.00     0.041 C 
BRANCH  10  11
ATOM     11  CE  LYS A 135      28.828  34.501   8.310  1.00 34.25     0.338 C 
ATOM     12  NZ  LYS A 135      28.182  33.770   9.434  1.00 35.99     0.618 N 
ENDBRANCH  10  11
ENDBRANCH   9  10
ENDBRANCH   8   9
ENDBRANCH   7   8
END_RES LYS A 135
