REMARK VINA RESULT:    -4.504      2.714      6.184
REMARK INTER + INTRA:         -14.593
REMARK INTER:                  -7.228
REMARK INTRA:                  -7.365
REMARK UNBOUND:                -5.744
REMARK SMILES CC(=O)N[C@@H]1[C@@H](O)C[C@](O)(C(=O)O)O[C@H]1C(O)[C@H](O)CNC(=O)OCc1cn([C@@H](CC(=O)O)C(=O)O)nn1
REMARK SMILES IDX 21 1 22 2 23 3 20 5 18 6 16 7 15 8 9 9 8 10 14 11 6 12 5 13
REMARK SMILES IDX 10 14 11 16 12 17 13 18 7 20 4 22 2 23 1 25 3 26 17 27 19 29
REMARK SMILES IDX 24 31 25 32 26 33 27 34 38 35 28 36 37 37 29 38 30 39 31 40
REMARK SMILES IDX 32 41 33 42 34 44 35 45 36 46
REMARK H PARENT 21 4 10 15 13 19 7 21 4 24 17 28 19 30 33 43 36 47
REMARK Flexibility Score: inf
ROOT
ATOM      1  N   UNL     1      24.966  33.972  16.907  1.00  0.00    -0.319 N 
ATOM      2  C   UNL     1      25.820  34.660  17.820  1.00  0.00     0.407 C 
ATOM      3  O   UNL     1      26.112  34.110  18.888  1.00  0.00    -0.225 OA
ATOM      4  H   UNL     1      24.761  34.501  16.019  1.00  0.00     0.167 HD
ENDROOT
BRANCH   1   5
ATOM      5  C   UNL     1      24.412  32.673  17.132  1.00  0.00     0.154 C 
BRANCH   5   6
ATOM      6  C   UNL     1      25.111  31.632  16.282  1.00  0.00     0.165 C 
BRANCH   6   7
ATOM      7  C   UNL     1      26.180  30.904  17.076  1.00  0.00     0.176 C 
BRANCH   7   8
ATOM      8  C   UNL     1      25.782  30.560  18.466  1.00  0.00     0.178 C 
ATOM      9  C   UNL     1      27.261  28.773  18.605  1.00  0.00     0.269 C 
ATOM     10  C   UNL     1      26.270  27.890  17.972  1.00  0.00     0.112 C 
ATOM     11  O   UNL     1      26.819  29.941  19.171  1.00  0.00    -0.332 OA
ATOM     12  C   UNL     1      24.849  28.293  17.978  1.00  0.00     0.145 C 
ATOM     13  C   UNL     1      24.574  29.667  18.520  1.00  0.00     0.142 C 
BRANCH   9  14
ATOM     14  O   UNL     1      28.265  29.159  17.679  1.00  0.00    -0.357 OA
ATOM     15  H   UNL     1      27.905  29.978  17.244  1.00  0.00     0.214 HD
ENDBRANCH   9  14
BRANCH   9  16
ATOM     16  C   UNL     1      28.013  28.053  19.669  1.00  0.00     0.364 C 
ATOM     17  O   UNL     1      28.369  28.570  20.753  1.00  0.00    -0.246 OA
BRANCH  16  18
ATOM     18  O   UNL     1      28.336  26.725  19.441  1.00  0.00    -0.477 OA
ATOM     19  H   UNL     1      28.327  26.022  20.191  1.00  0.00     0.296 HD
ENDBRANCH  16  18
ENDBRANCH   9  16
BRANCH  12  20
ATOM     20  O   UNL     1      24.302  28.178  16.703  1.00  0.00    -0.391 OA
ATOM     21  H   UNL     1      23.353  27.969  16.687  1.00  0.00     0.211 HD
ENDBRANCH  12  20
BRANCH  13  22
ATOM     22  N   UNL     1      24.119  29.577  19.929  1.00  0.00    -0.348 N 
ATOM     23  C   UNL     1      22.750  29.692  20.259  1.00  0.00     0.217 C 
ATOM     24  H   UNL     1      24.794  29.428  20.709  1.00  0.00     0.163 HD
ATOM     25  C   UNL     1      22.248  29.608  21.661  1.00  0.00     0.114 C 
ATOM     26  O   UNL     1      21.929  29.871  19.334  1.00  0.00    -0.275 OA
ENDBRANCH  13  22
ENDBRANCH   7   8
BRANCH   7  27
ATOM     27  O   UNL     1      27.246  31.849  17.108  1.00  0.00    -0.388 OA
ATOM     28  H   UNL     1      28.061  31.435  17.479  1.00  0.00     0.211 HD
ENDBRANCH   7  27
ENDBRANCH   6   7
BRANCH   6  29
ATOM     29  O   UNL     1      25.594  32.257  15.140  1.00  0.00    -0.388 OA
ATOM     30  H   UNL     1      24.945  32.267  14.393  1.00  0.00     0.211 HD
ENDBRANCH   6  29
ENDBRANCH   5   6
ENDBRANCH   1   5
BRANCH   2  31
ATOM     31  O   UNL     1      26.331  35.919  17.553  1.00  0.00    -0.443 OA
BRANCH  31  32
ATOM     32  C   UNL     1      26.877  36.206  16.290  1.00  0.00     0.294 C 
BRANCH  32  33
ATOM     33  C   UNL     1      27.815  35.159  15.820  1.00  0.00     0.120 A 
ATOM     34  C   UNL     1      29.114  35.073  16.260  1.00  0.00     0.139 A 
ATOM     35  N   UNL     1      27.636  34.164  14.955  1.00  0.00    -0.132 NA
ATOM     36  N   UNL     1      29.692  34.012  15.639  1.00  0.00    -0.237 N 
ATOM     37  N   UNL     1      28.776  33.498  14.870  1.00  0.00    -0.066 NA
BRANCH  36  38
ATOM     38  C   UNL     1      31.080  33.624  15.874  1.00  0.00     0.229 C 
BRANCH  38  39
ATOM     39  C   UNL     1      31.258  32.169  15.537  1.00  0.00     0.161 C 
BRANCH  39  40
ATOM     40  C   UNL     1      30.309  31.304  16.256  1.00  0.00     0.306 C 
ATOM     41  O   UNL     1      30.349  31.272  17.511  1.00  0.00    -0.252 OA
BRANCH  40  42
ATOM     42  O   UNL     1      29.399  30.549  15.534  1.00  0.00    -0.481 OA
ATOM     43  H   UNL     1      29.683  30.166  14.618  1.00  0.00     0.296 HD
ENDBRANCH  40  42
ENDBRANCH  39  40
ENDBRANCH  38  39
BRANCH  38  44
ATOM     44  C   UNL     1      31.944  34.399  14.943  1.00  0.00     0.329 C 
ATOM     45  O   UNL     1      32.975  35.024  15.299  1.00  0.00    -0.250 OA
BRANCH  44  46
ATOM     46  O   UNL     1      31.593  34.434  13.604  1.00  0.00    -0.480 OA
ATOM     47  H   UNL     1      31.978  33.794  12.920  1.00  0.00     0.296 HD
ENDBRANCH  44  46
ENDBRANCH  38  44
ENDBRANCH  36  38
ENDBRANCH  32  33
ENDBRANCH  31  32
ENDBRANCH   2  31
TORSDOF 20
BEGIN_RES LYS A 131
REMARK  4 active torsions:
REMARK  status: ('A' for Active; 'I' for Inactive)
REMARK    1  A    between atoms: CA   and  CB  
REMARK    2  A    between atoms: CB   and  CG  
REMARK    3  A    between atoms: CG   and  CD  
REMARK    4  A    between atoms: CD   and  CE  
ROOT
ATOM      1  CA  LYS A 131      29.867  25.555  16.977  1.00 20.52     0.186 C 
ENDROOT
BRANCH   1   2
ATOM      2  CB  LYS A 131      28.345  25.722  17.026  1.00 20.94     0.034 C 
BRANCH   2   3
ATOM      3  CG  LYS A 131      27.599  24.445  16.670  1.00 22.96     0.005 C 
BRANCH   3   4
ATOM      4  CD  LYS A 131      27.069  23.741  17.888  1.00 24.33     0.041 C 
BRANCH   4   5
ATOM      5  CE  LYS A 131      25.708  24.320  18.260  1.00 26.91     0.338 C 
ATOM      6  NZ  LYS A 131      24.841  24.419  17.063  1.00 27.40     0.618 N 
ENDBRANCH   4   5
ENDBRANCH   3   4
ENDBRANCH   2   3
ENDBRANCH   1   2
END_RES LYS A 131
BEGIN_RES LYS A 135
REMARK  4 active torsions:
REMARK  status: ('A' for Active; 'I' for Inactive)
REMARK    5  A    between atoms: CA   and  CB  
REMARK    6  A    between atoms: CB   and  CG  
REMARK    7  A    between atoms: CG   and  CD  
REMARK    8  A    between atoms: CD   and  CE  
ROOT
ATOM      7  CA  LYS A 135      33.193  34.663   9.290  1.00 25.02     0.186 C 
ENDROOT
BRANCH   7   8
ATOM      8  CB  LYS A 135      32.060  35.360  10.034  1.00 26.63     0.034 C 
BRANCH   8   9
ATOM      9  CG  LYS A 135      30.788  35.464   9.233  1.00 29.45     0.005 C 
BRANCH   9  10
ATOM     10  CD  LYS A 135      30.220  34.082   8.946  1.00 32.00     0.041 C 
BRANCH  10  11
ATOM     11  CE  LYS A 135      28.721  34.063   9.178  1.00 34.25     0.338 C 
ATOM     12  NZ  LYS A 135      28.002  34.797   8.100  1.00 35.99     0.618 N 
ENDBRANCH  10  11
ENDBRANCH   9  10
ENDBRANCH   8   9
ENDBRANCH   7   8
END_RES LYS A 135
