REMARK VINA RESULT:    -5.844      5.045      9.146
REMARK INTER + INTRA:         -14.662
REMARK INTER:                 -10.580
REMARK INTRA:                  -4.082
REMARK UNBOUND:                -4.548
REMARK SMILES CC(=O)N[C@@H]1[C@@H](O)C[C@](O)(C(=O)O)O[C@H]1C(O)[C@H](O)CNC(=O)OCc1cn(-c2ccc3c(c2)OCO3)nn1
REMARK SMILES IDX 20 1 18 2 16 3 15 4 9 5 8 6 14 7 6 8 5 9 10 10 11 12 12 13
REMARK SMILES IDX 13 14 7 16 4 18 2 19 1 21 3 22 17 23 19 25 21 27 22 28 23 30
REMARK SMILES IDX 24 31 25 32 26 33 27 34 39 35 28 36 38 37 29 38 30 39 34 40
REMARK SMILES IDX 31 41 33 42 32 43 35 44 37 45 36 46
REMARK H PARENT 10 11 13 15 7 17 4 20 17 24 19 26 21 29
REMARK Flexibility Score: inf
ROOT
ATOM      1  C   UNL     1      26.766  36.148  15.814  1.00  0.00     0.154 C 
ENDROOT
BRANCH   1   2
ATOM      2  C   UNL     1      28.221  36.415  15.621  1.00  0.00     0.165 C 
BRANCH   2   3
ATOM      3  C   UNL     1      29.061  35.684  16.681  1.00  0.00     0.176 C 
BRANCH   3   4
ATOM      4  C   UNL     1      30.210  35.055  15.979  1.00  0.00     0.178 C 
ATOM      5  C   UNL     1      31.345  34.872  14.011  1.00  0.00     0.269 C 
ATOM      6  C   UNL     1      32.246  34.065  14.921  1.00  0.00     0.112 C 
ATOM      7  O   UNL     1      30.317  35.502  14.666  1.00  0.00    -0.332 OA
ATOM      8  C   UNL     1      31.477  33.018  15.705  1.00  0.00     0.145 C 
ATOM      9  C   UNL     1      30.091  33.533  15.901  1.00  0.00     0.142 C 
BRANCH   5  10
ATOM     10  O   UNL     1      30.900  33.992  13.022  1.00  0.00    -0.357 OA
ATOM     11  H   UNL     1      31.464  34.174  12.223  1.00  0.00     0.214 HD
ENDBRANCH   5  10
BRANCH   5  12
ATOM     12  C   UNL     1      32.191  35.921  13.397  1.00  0.00     0.364 C 
ATOM     13  O   UNL     1      32.181  37.078  13.879  1.00  0.00    -0.246 OA
BRANCH  12  14
ATOM     14  O   UNL     1      33.004  35.682  12.302  1.00  0.00    -0.477 OA
ATOM     15  H   UNL     1      32.649  35.468  11.376  1.00  0.00     0.296 HD
ENDBRANCH  12  14
ENDBRANCH   5  12
BRANCH   8  16
ATOM     16  O   UNL     1      31.495  31.854  14.907  1.00  0.00    -0.391 OA
ATOM     17  H   UNL     1      31.060  32.012  14.050  1.00  0.00     0.211 HD
ENDBRANCH   8  16
BRANCH   9  18
ATOM     18  N   UNL     1      29.367  32.967  16.980  1.00  0.00    -0.348 N 
ATOM     19  C   UNL     1      28.753  31.687  17.013  1.00  0.00     0.217 C 
ATOM     20  H   UNL     1      29.266  33.539  17.847  1.00  0.00     0.163 HD
ATOM     21  C   UNL     1      28.010  31.183  18.205  1.00  0.00     0.114 C 
ATOM     22  O   UNL     1      28.857  30.976  15.987  1.00  0.00    -0.275 OA
ENDBRANCH   9  18
ENDBRANCH   3   4
BRANCH   3  23
ATOM     23  O   UNL     1      29.450  36.608  17.611  1.00  0.00    -0.388 OA
ATOM     24  H   UNL     1      28.858  37.342  17.809  1.00  0.00     0.211 HD
ENDBRANCH   3  23
ENDBRANCH   2   3
BRANCH   2  25
ATOM     25  O   UNL     1      28.513  37.750  15.701  1.00  0.00    -0.388 OA
ATOM     26  H   UNL     1      27.941  38.358  15.185  1.00  0.00     0.211 HD
ENDBRANCH   2  25
ENDBRANCH   1   2
BRANCH   1  27
ATOM     27  N   UNL     1      26.154  35.626  14.643  1.00  0.00    -0.319 N 
ATOM     28  C   UNL     1      26.169  34.265  14.299  1.00  0.00     0.407 C 
ATOM     29  H   UNL     1      25.648  36.273  13.965  1.00  0.00     0.167 HD
ATOM     30  O   UNL     1      26.718  33.365  14.955  1.00  0.00    -0.225 OA
BRANCH  28  31
ATOM     31  O   UNL     1      25.517  33.859  13.120  1.00  0.00    -0.443 OA
BRANCH  31  32
ATOM     32  C   UNL     1      24.298  34.445  12.777  1.00  0.00     0.294 C 
BRANCH  32  33
ATOM     33  C   UNL     1      24.364  34.915  11.369  1.00  0.00     0.121 A 
ATOM     34  C   UNL     1      25.519  35.159  10.634  1.00  0.00     0.144 A 
ATOM     35  N   UNL     1      23.352  35.196  10.530  1.00  0.00    -0.131 NA
ATOM     36  N   UNL     1      25.186  35.572   9.398  1.00  0.00    -0.220 N 
ATOM     37  N   UNL     1      23.866  35.580   9.377  1.00  0.00    -0.062 NA
BRANCH  36  38
ATOM     38  C   UNL     1      26.094  35.917   8.359  1.00  0.00     0.070 A 
ATOM     39  C   UNL     1      27.005  34.993   7.888  1.00  0.00     0.032 A 
ATOM     40  C   UNL     1      26.116  37.167   7.775  1.00  0.00     0.079 A 
ATOM     41  C   UNL     1      27.904  35.311   6.870  1.00  0.00     0.053 A 
ATOM     42  C   UNL     1      27.006  37.507   6.757  1.00  0.00     0.167 A 
ATOM     43  C   UNL     1      27.905  36.567   6.304  1.00  0.00     0.165 A 
ATOM     44  O   UNL     1      27.221  38.671   6.023  1.00  0.00    -0.454 OA
ATOM     45  O   UNL     1      28.657  37.188   5.292  1.00  0.00    -0.454 OA
ATOM     46  C   UNL     1      28.503  38.605   5.424  1.00  0.00     0.468 C 
ENDBRANCH  36  38
ENDBRANCH  32  33
ENDBRANCH  31  32
ENDBRANCH  28  31
ENDBRANCH   1  27
TORSDOF 15
BEGIN_RES LYS A 131
REMARK  4 active torsions:
REMARK  status: ('A' for Active; 'I' for Inactive)
REMARK    1  A    between atoms: CA   and  CB  
REMARK    2  A    between atoms: CB   and  CG  
REMARK    3  A    between atoms: CG   and  CD  
REMARK    4  A    between atoms: CD   and  CE  
ROOT
ATOM      1  CA  LYS A 131      29.867  25.555  16.977  1.00 20.52     0.186 C 
ENDROOT
BRANCH   1   2
ATOM      2  CB  LYS A 131      28.345  25.722  17.026  1.00 20.94     0.034 C 
BRANCH   2   3
ATOM      3  CG  LYS A 131      27.601  24.402  16.895  1.00 22.96     0.005 C 
BRANCH   3   4
ATOM      4  CD  LYS A 131      26.234  24.457  17.519  1.00 24.33     0.041 C 
BRANCH   4   5
ATOM      5  CE  LYS A 131      26.098  25.740  18.332  1.00 26.91     0.338 C 
ATOM      6  NZ  LYS A 131      25.700  25.432  19.725  1.00 27.40     0.618 N 
ENDBRANCH   4   5
ENDBRANCH   3   4
ENDBRANCH   2   3
ENDBRANCH   1   2
END_RES LYS A 131
BEGIN_RES LYS A 135
REMARK  4 active torsions:
REMARK  status: ('A' for Active; 'I' for Inactive)
REMARK    5  A    between atoms: CA   and  CB  
REMARK    6  A    between atoms: CB   and  CG  
REMARK    7  A    between atoms: CG   and  CD  
REMARK    8  A    between atoms: CD   and  CE  
ROOT
ATOM      7  CA  LYS A 135      33.193  34.663   9.290  1.00 25.02     0.186 C 
ENDROOT
BRANCH   7   8
ATOM      8  CB  LYS A 135      32.060  35.360  10.034  1.00 26.63     0.034 C 
BRANCH   8   9
ATOM      9  CG  LYS A 135      30.761  35.381   9.271  1.00 29.45     0.005 C 
BRANCH   9  10
ATOM     10  CD  LYS A 135      30.050  36.713   9.456  1.00 32.00     0.041 C 
BRANCH  10  11
ATOM     11  CE  LYS A 135      28.999  36.608  10.545  1.00 34.25     0.338 C 
ATOM     12  NZ  LYS A 135      29.409  37.364  11.761  1.00 35.99     0.618 N 
ENDBRANCH  10  11
ENDBRANCH   9  10
ENDBRANCH   8   9
ENDBRANCH   7   8
END_RES LYS A 135
