REMARK VINA RESULT:    -4.771      2.830      4.970
REMARK INTER + INTRA:         -13.529
REMARK INTER:                  -8.938
REMARK INTRA:                  -4.591
REMARK UNBOUND:                -5.272
REMARK SMILES CC(=O)N[C@@H]1[C@@H](O)C[C@](O)(C(=O)O)O[C@H]1C(O)[C@H](O)CNC(=O)OCc1cn(-c2ccncc2)nn1
REMARK SMILES IDX 20 1 18 2 16 3 15 4 9 5 8 6 14 7 6 8 5 9 10 10 11 12 12 13
REMARK SMILES IDX 13 14 7 16 4 18 2 19 1 21 3 22 17 23 19 25 21 27 22 28 23 30
REMARK SMILES IDX 24 31 25 32 26 33 27 34 36 35 28 36 35 37 29 38 30 39 34 40
REMARK SMILES IDX 31 41 33 42 32 43
REMARK H PARENT 10 11 13 15 7 17 4 20 17 24 19 26 21 29
REMARK Flexibility Score: inf
ROOT
ATOM      1  C   UNL     1      27.217  29.512  19.064  1.00  0.00     0.154 C 
ENDROOT
BRANCH   1   2
ATOM      2  C   UNL     1      27.077  28.041  19.239  1.00  0.00     0.165 C 
BRANCH   2   3
ATOM      3  C   UNL     1      27.188  27.611  20.693  1.00  0.00     0.176 C 
BRANCH   3   4
ATOM      4  C   UNL     1      28.432  28.080  21.359  1.00  0.00     0.178 C 
ATOM      5  C   UNL     1      30.710  27.764  21.534  1.00  0.00     0.269 C 
ATOM      6  C   UNL     1      30.611  28.816  22.610  1.00  0.00     0.112 C 
ATOM      7  O   UNL     1      29.586  27.661  20.760  1.00  0.00    -0.332 OA
ATOM      8  C   UNL     1      29.424  28.616  23.511  1.00  0.00     0.145 C 
ATOM      9  C   UNL     1      28.482  27.653  22.817  1.00  0.00     0.142 C 
BRANCH   5  10
ATOM     10  O   UNL     1      31.092  26.526  22.052  1.00  0.00    -0.357 OA
ATOM     11  H   UNL     1      30.983  26.489  23.039  1.00  0.00     0.214 HD
ENDBRANCH   5  10
BRANCH   5  12
ATOM     12  C   UNL     1      31.830  28.196  20.626  1.00  0.00     0.364 C 
ATOM     13  O   UNL     1      32.403  29.292  20.723  1.00  0.00    -0.246 OA
BRANCH  12  14
ATOM     14  O   UNL     1      32.199  27.280  19.644  1.00  0.00    -0.477 OA
ATOM     15  H   UNL     1      31.764  26.361  19.610  1.00  0.00     0.296 HD
ENDBRANCH  12  14
ENDBRANCH   5  12
BRANCH   8  16
ATOM     16  O   UNL     1      29.794  28.116  24.759  1.00  0.00    -0.391 OA
ATOM     17  H   UNL     1      29.891  27.135  24.706  1.00  0.00     0.211 HD
ENDBRANCH   8  16
BRANCH   9  18
ATOM     18  N   UNL     1      27.173  27.649  23.427  1.00  0.00    -0.348 N 
ATOM     19  C   UNL     1      26.639  26.461  23.996  1.00  0.00     0.217 C 
ATOM     20  H   UNL     1      26.590  28.504  23.469  1.00  0.00     0.163 HD
ATOM     21  C   UNL     1      25.286  26.421  24.638  1.00  0.00     0.114 C 
ATOM     22  O   UNL     1      27.326  25.409  23.960  1.00  0.00    -0.275 OA
ENDBRANCH   9  18
ENDBRANCH   3   4
BRANCH   3  23
ATOM     23  O   UNL     1      26.882  26.283  20.843  1.00  0.00    -0.388 OA
ATOM     24  H   UNL     1      27.575  25.852  21.413  1.00  0.00     0.211 HD
ENDBRANCH   3  23
ENDBRANCH   2   3
BRANCH   2  25
ATOM     25  O   UNL     1      28.040  27.318  18.559  1.00  0.00    -0.388 OA
ATOM     26  H   UNL     1      28.381  26.541  19.057  1.00  0.00     0.211 HD
ENDBRANCH   2  25
ENDBRANCH   1   2
BRANCH   1  27
ATOM     27  N   UNL     1      28.364  29.836  18.265  1.00  0.00    -0.319 N 
ATOM     28  C   UNL     1      29.238  30.920  18.409  1.00  0.00     0.407 C 
ATOM     29  H   UNL     1      28.599  29.174  17.447  1.00  0.00     0.167 HD
ATOM     30  O   UNL     1      29.073  31.754  19.300  1.00  0.00    -0.225 OA
BRANCH  28  31
ATOM     31  O   UNL     1      30.342  31.122  17.558  1.00  0.00    -0.443 OA
BRANCH  31  32
ATOM     32  C   UNL     1      30.141  31.117  16.140  1.00  0.00     0.294 C 
BRANCH  32  33
ATOM     33  C   UNL     1      30.561  32.387  15.542  1.00  0.00     0.121 A 
ATOM     34  C   UNL     1      29.880  33.219  14.683  1.00  0.00     0.144 A 
ATOM     35  N   UNL     1      31.756  32.978  15.754  1.00  0.00    -0.131 NA
ATOM     36  N   UNL     1      30.691  34.268  14.418  1.00  0.00    -0.220 N 
ATOM     37  N   UNL     1      31.818  34.114  15.067  1.00  0.00    -0.062 NA
BRANCH  36  38
ATOM     38  C   UNL     1      30.397  35.381  13.571  1.00  0.00     0.069 A 
ATOM     39  C   UNL     1      29.153  35.459  12.993  1.00  0.00     0.048 A 
ATOM     40  C   UNL     1      31.355  36.361  13.340  1.00  0.00     0.048 A 
ATOM     41  C   UNL     1      28.886  36.539  12.179  1.00  0.00     0.113 A 
ATOM     42  C   UNL     1      31.042  37.411  12.527  1.00  0.00     0.113 A 
ATOM     43  N   UNL     1      29.817  37.478  11.965  1.00  0.00    -0.265 NA
ENDBRANCH  36  38
ENDBRANCH  32  33
ENDBRANCH  31  32
ENDBRANCH  28  31
ENDBRANCH   1  27
TORSDOF 15
BEGIN_RES LYS A 131
REMARK  4 active torsions:
REMARK  status: ('A' for Active; 'I' for Inactive)
REMARK    1  A    between atoms: CA   and  CB  
REMARK    2  A    between atoms: CB   and  CG  
REMARK    3  A    between atoms: CG   and  CD  
REMARK    4  A    between atoms: CD   and  CE  
ROOT
ATOM      1  CA  LYS A 131      29.867  25.555  16.977  1.00 20.52     0.186 C 
ENDROOT
BRANCH   1   2
ATOM      2  CB  LYS A 131      28.345  25.722  17.026  1.00 20.94     0.034 C 
BRANCH   2   3
ATOM      3  CG  LYS A 131      27.600  24.408  16.848  1.00 22.96     0.005 C 
BRANCH   3   4
ATOM      4  CD  LYS A 131      26.587  24.179  17.936  1.00 24.33     0.041 C 
BRANCH   4   5
ATOM      5  CE  LYS A 131      25.233  24.724  17.492  1.00 26.91     0.338 C 
ATOM      6  NZ  LYS A 131      24.496  25.285  18.649  1.00 27.40     0.618 N 
ENDBRANCH   4   5
ENDBRANCH   3   4
ENDBRANCH   2   3
ENDBRANCH   1   2
END_RES LYS A 131
BEGIN_RES LYS A 135
REMARK  4 active torsions:
REMARK  status: ('A' for Active; 'I' for Inactive)
REMARK    5  A    between atoms: CA   and  CB  
REMARK    6  A    between atoms: CB   and  CG  
REMARK    7  A    between atoms: CG   and  CD  
REMARK    8  A    between atoms: CD   and  CE  
ROOT
ATOM      7  CA  LYS A 135      33.193  34.663   9.290  1.00 25.02     0.186 C 
ENDROOT
BRANCH   7   8
ATOM      8  CB  LYS A 135      32.060  35.360  10.034  1.00 26.63     0.034 C 
BRANCH   8   9
ATOM      9  CG  LYS A 135      30.803  35.507   9.216  1.00 29.45     0.005 C 
BRANCH   9  10
ATOM     10  CD  LYS A 135      30.115  34.162   9.042  1.00 32.00     0.041 C 
BRANCH  10  11
ATOM     11  CE  LYS A 135      28.650  34.353   8.700  1.00 34.25     0.338 C 
ATOM     12  NZ  LYS A 135      27.774  33.663   9.687  1.00 35.99     0.618 N 
ENDBRANCH  10  11
ENDBRANCH   9  10
ENDBRANCH   8   9
ENDBRANCH   7   8
END_RES LYS A 135
