REMARK VINA RESULT:    -5.003      7.720     14.134
REMARK INTER + INTRA:         -14.832
REMARK INTER:                 -10.000
REMARK INTRA:                  -4.831
REMARK UNBOUND:                -5.735
REMARK SMILES CC(=O)N[C@@H]1[C@@H](O)C[C@](O)(C(=O)O)O[C@H]1C(O)[C@H](O)CNC(=O)OCc1cn(-c2ccc(CO)cn2)nn1
REMARK SMILES IDX 21 1 22 2 23 3 20 5 18 6 16 7 15 8 9 9 8 10 14 11 6 12 5 13
REMARK SMILES IDX 10 14 11 16 12 17 13 18 7 20 4 22 2 23 1 25 3 26 17 27 19 29
REMARK SMILES IDX 24 31 25 32 26 33 27 34 38 35 28 36 37 37 29 38 30 39 36 40
REMARK SMILES IDX 31 41 35 42 32 43 33 44 34 45
REMARK H PARENT 21 4 10 15 13 19 7 21 4 24 17 28 19 30 34 46
REMARK Flexibility Score: inf
ROOT
ATOM      1  N   UNL     1      28.591  40.710   4.526  1.00  0.00    -0.319 N 
ATOM      2  C   UNL     1      28.290  41.971   5.142  1.00  0.00     0.407 C 
ATOM      3  O   UNL     1      27.098  42.156   5.473  1.00  0.00    -0.225 OA
ATOM      4  H   UNL     1      29.597  40.592   4.279  1.00  0.00     0.167 HD
ENDROOT
BRANCH   1   5
ATOM      5  C   UNL     1      27.567  39.722   4.317  1.00  0.00     0.154 C 
BRANCH   5   6
ATOM      6  C   UNL     1      27.873  38.488   5.151  1.00  0.00     0.165 C 
BRANCH   6   7
ATOM      7  C   UNL     1      27.343  38.774   6.526  1.00  0.00     0.176 C 
BRANCH   7   8
ATOM      8  C   UNL     1      27.679  37.789   7.608  1.00  0.00     0.178 C 
ATOM      9  C   UNL     1      29.703  37.134   8.628  1.00  0.00     0.269 C 
ATOM     10  C   UNL     1      29.306  35.679   8.647  1.00  0.00     0.112 C 
ATOM     11  O   UNL     1      29.046  37.844   7.684  1.00  0.00    -0.332 OA
ATOM     12  C   UNL     1      28.483  35.484   7.388  1.00  0.00     0.145 C 
ATOM     13  C   UNL     1      27.235  36.399   7.445  1.00  0.00     0.142 C 
BRANCH   9  14
ATOM     14  O   UNL     1      31.100  37.134   8.321  1.00  0.00    -0.357 OA
ATOM     15  H   UNL     1      31.583  36.618   9.015  1.00  0.00     0.214 HD
ENDBRANCH   9  14
BRANCH   9  16
ATOM     16  C   UNL     1      29.589  37.797   9.944  1.00  0.00     0.364 C 
ATOM     17  O   UNL     1      28.774  37.364  10.781  1.00  0.00    -0.246 OA
BRANCH  16  18
ATOM     18  O   UNL     1      30.374  38.887  10.265  1.00  0.00    -0.477 OA
ATOM     19  H   UNL     1      31.013  39.253   9.571  1.00  0.00     0.296 HD
ENDBRANCH  16  18
ENDBRANCH   9  16
BRANCH  12  20
ATOM     20  O   UNL     1      29.209  35.684   6.240  1.00  0.00    -0.391 OA
ATOM     21  H   UNL     1      29.684  36.562   6.296  1.00  0.00     0.211 HD
ENDBRANCH  12  20
BRANCH  13  22
ATOM     22  N   UNL     1      26.452  35.855   8.507  1.00  0.00    -0.348 N 
ATOM     23  C   UNL     1      25.096  36.176   8.683  1.00  0.00     0.217 C 
ATOM     24  H   UNL     1      26.901  35.204   9.175  1.00  0.00     0.163 HD
ATOM     25  C   UNL     1      24.283  35.610   9.786  1.00  0.00     0.114 C 
ATOM     26  O   UNL     1      24.549  36.963   7.886  1.00  0.00    -0.275 OA
ENDBRANCH  13  22
ENDBRANCH   7   8
BRANCH   7  27
ATOM     27  O   UNL     1      25.938  38.781   6.446  1.00  0.00    -0.388 OA
ATOM     28  H   UNL     1      25.527  38.267   7.192  1.00  0.00     0.211 HD
ENDBRANCH   7  27
ENDBRANCH   6   7
BRANCH   6  29
ATOM     29  O   UNL     1      29.295  38.476   5.189  1.00  0.00    -0.388 OA
ATOM     30  H   UNL     1      29.625  38.333   4.287  1.00  0.00     0.211 HD
ENDBRANCH   6  29
ENDBRANCH   5   6
ENDBRANCH   1   5
BRANCH   2  31
ATOM     31  O   UNL     1      29.231  42.937   5.371  1.00  0.00    -0.443 OA
BRANCH  31  32
ATOM     32  C   UNL     1      30.207  42.870   6.365  1.00  0.00     0.294 C 
BRANCH  32  33
ATOM     33  C   UNL     1      31.031  41.637   6.312  1.00  0.00     0.121 A 
ATOM     34  C   UNL     1      32.189  41.502   5.540  1.00  0.00     0.146 A 
ATOM     35  N   UNL     1      30.896  40.464   6.918  1.00  0.00    -0.131 NA
ATOM     36  N   UNL     1      32.684  40.277   5.714  1.00  0.00    -0.202 N 
ATOM     37  N   UNL     1      31.891  39.653   6.552  1.00  0.00    -0.061 NA
BRANCH  36  38
ATOM     38  C   UNL     1      33.861  39.744   5.089  1.00  0.00     0.155 A 
ATOM     39  C   UNL     1      34.118  39.875   3.740  1.00  0.00     0.049 A 
ATOM     40  N   UNL     1      34.761  39.073   5.824  1.00  0.00    -0.237 NA
ATOM     41  C   UNL     1      35.233  39.359   3.135  1.00  0.00     0.011 A 
ATOM     42  C   UNL     1      35.869  38.550   5.276  1.00  0.00     0.119 A 
ATOM     43  C   UNL     1      36.142  38.674   3.918  1.00  0.00    -0.004 A 
BRANCH  43  44
ATOM     44  C   UNL     1      37.388  38.074   3.361  1.00  0.00     0.193 C 
BRANCH  44  45
ATOM     45  O   UNL     1      37.513  36.775   3.836  1.00  0.00    -0.392 OA
ATOM     46  H   UNL     1      36.640  36.456   4.180  1.00  0.00     0.211 HD
ENDBRANCH  44  45
ENDBRANCH  43  44
ENDBRANCH  36  38
ENDBRANCH  32  33
ENDBRANCH  31  32
ENDBRANCH   2  31
TORSDOF 17
BEGIN_RES LYS A 131
REMARK  4 active torsions:
REMARK  status: ('A' for Active; 'I' for Inactive)
REMARK    1  A    between atoms: CA   and  CB  
REMARK    2  A    between atoms: CB   and  CG  
REMARK    3  A    between atoms: CG   and  CD  
REMARK    4  A    between atoms: CD   and  CE  
ROOT
ATOM      1  CA  LYS A 131      29.867  25.555  16.977  1.00 20.52     0.186 C 
ENDROOT
BRANCH   1   2
ATOM      2  CB  LYS A 131      28.345  25.722  17.026  1.00 20.94     0.034 C 
BRANCH   2   3
ATOM      3  CG  LYS A 131      27.602  24.399  16.926  1.00 22.96     0.005 C 
BRANCH   3   4
ATOM      4  CD  LYS A 131      26.599  24.227  18.033  1.00 24.33     0.041 C 
BRANCH   4   5
ATOM      5  CE  LYS A 131      25.286  23.710  17.455  1.00 26.91     0.338 C 
ATOM      6  NZ  LYS A 131      24.196  24.685  17.690  1.00 27.40     0.618 N 
ENDBRANCH   4   5
ENDBRANCH   3   4
ENDBRANCH   2   3
ENDBRANCH   1   2
END_RES LYS A 131
BEGIN_RES LYS A 135
REMARK  4 active torsions:
REMARK  status: ('A' for Active; 'I' for Inactive)
REMARK    5  A    between atoms: CA   and  CB  
REMARK    6  A    between atoms: CB   and  CG  
REMARK    7  A    between atoms: CG   and  CD  
REMARK    8  A    between atoms: CD   and  CE  
ROOT
ATOM      7  CA  LYS A 135      33.193  34.663   9.290  1.00 25.02     0.186 C 
ENDROOT
BRANCH   7   8
ATOM      8  CB  LYS A 135      32.060  35.360  10.034  1.00 26.63     0.034 C 
BRANCH   8   9
ATOM      9  CG  LYS A 135      32.500  36.033  11.309  1.00 29.45     0.005 C 
BRANCH   9  10
ATOM     10  CD  LYS A 135      31.515  35.750  12.432  1.00 32.00     0.041 C 
BRANCH  10  11
ATOM     11  CE  LYS A 135      30.576  34.624  12.047  1.00 34.25     0.338 C 
ATOM     12  NZ  LYS A 135      29.332  34.659  12.864  1.00 35.99     0.618 N 
ENDBRANCH  10  11
ENDBRANCH   9  10
ENDBRANCH   8   9
ENDBRANCH   7   8
END_RES LYS A 135
