REMARK VINA RESULT:    -4.740      8.707     14.542
REMARK INTER + INTRA:         -14.582
REMARK INTER:                  -8.465
REMARK INTRA:                  -6.118
REMARK UNBOUND:                -5.964
REMARK SMILES CC(=O)N[C@@H]1[C@@H](O)C[C@](O)(C(=O)O)O[C@H]1C(O)[C@H](O)CNC(=O)OCc1cn(-c2ccc(S(N)(=O)=O)cc2)nn1
REMARK SMILES IDX 21 1 22 2 23 3 20 5 18 6 16 7 15 8 9 9 8 10 14 11 6 12 5 13
REMARK SMILES IDX 10 14 11 16 12 17 13 18 7 20 4 22 2 23 1 25 3 26 17 27 19 29
REMARK SMILES IDX 24 31 25 32 26 33 27 34 40 35 28 36 39 37 29 38 30 39 38 40
REMARK SMILES IDX 31 41 37 42 32 43 33 44 35 45 36 46 34 47
REMARK H PARENT 21 4 10 15 13 19 7 21 4 24 17 28 19 30 34 48 34 49
REMARK Flexibility Score: inf
ROOT
ATOM      1  N   UNL     1      27.247  39.800   5.836  1.00  0.00    -0.319 N 
ATOM      2  C   UNL     1      26.453  40.893   5.463  1.00  0.00     0.407 C 
ATOM      3  O   UNL     1      25.917  40.940   4.344  1.00  0.00    -0.225 OA
ATOM      4  H   UNL     1      27.672  39.819   6.804  1.00  0.00     0.167 HD
ENDROOT
BRANCH   1   5
ATOM      5  C   UNL     1      27.486  38.700   4.970  1.00  0.00     0.154 C 
BRANCH   5   6
ATOM      6  C   UNL     1      28.304  37.591   5.621  1.00  0.00     0.165 C 
BRANCH   6   7
ATOM      7  C   UNL     1      27.839  37.430   7.040  1.00  0.00     0.176 C 
BRANCH   7   8
ATOM      8  C   UNL     1      28.600  38.218   8.035  1.00  0.00     0.178 C 
ATOM      9  C   UNL     1      30.810  38.650   8.636  1.00  0.00     0.269 C 
ATOM     10  C   UNL     1      30.088  39.720   9.418  1.00  0.00     0.112 C 
ATOM     11  O   UNL     1      29.968  37.855   7.910  1.00  0.00    -0.332 OA
ATOM     12  C   UNL     1      28.936  39.193  10.217  1.00  0.00     0.145 C 
ATOM     13  C   UNL     1      28.276  38.058   9.473  1.00  0.00     0.142 C 
BRANCH   9  14
ATOM     14  O   UNL     1      31.659  37.893   9.478  1.00  0.00    -0.357 OA
ATOM     15  H   UNL     1      31.155  37.164   9.920  1.00  0.00     0.214 HD
ENDBRANCH   9  14
BRANCH   9  16
ATOM     16  C   UNL     1      31.717  39.347   7.685  1.00  0.00     0.364 C 
ATOM     17  O   UNL     1      31.199  39.984   6.734  1.00  0.00    -0.246 OA
BRANCH  16  18
ATOM     18  O   UNL     1      33.096  39.337   7.782  1.00  0.00    -0.477 OA
ATOM     19  H   UNL     1      33.667  38.911   7.056  1.00  0.00     0.296 HD
ENDBRANCH  16  18
ENDBRANCH   9  16
BRANCH  12  20
ATOM     20  O   UNL     1      29.407  38.818  11.469  1.00  0.00    -0.391 OA
ATOM     21  H   UNL     1      29.936  39.584  11.810  1.00  0.00     0.211 HD
ENDBRANCH  12  20
BRANCH  13  22
ATOM     22  N   UNL     1      26.928  37.841   9.839  1.00  0.00    -0.348 N 
ATOM     23  C   UNL     1      26.555  37.003  10.914  1.00  0.00     0.217 C 
ATOM     24  H   UNL     1      26.162  38.321   9.326  1.00  0.00     0.163 HD
ATOM     25  C   UNL     1      25.116  36.782  11.289  1.00  0.00     0.114 C 
ATOM     26  O   UNL     1      27.462  36.440  11.553  1.00  0.00    -0.275 OA
ENDBRANCH  13  22
ENDBRANCH   7   8
BRANCH   7  27
ATOM     27  O   UNL     1      26.486  37.320   7.218  1.00  0.00    -0.388 OA
ATOM     28  H   UNL     1      26.254  37.624   8.124  1.00  0.00     0.211 HD
ENDBRANCH   7  27
ENDBRANCH   6   7
BRANCH   6  29
ATOM     29  O   UNL     1      29.635  37.868   5.459  1.00  0.00    -0.388 OA
ATOM     30  H   UNL     1      30.091  37.908   6.345  1.00  0.00     0.211 HD
ENDBRANCH   6  29
ENDBRANCH   5   6
ENDBRANCH   1   5
BRANCH   2  31
ATOM     31  O   UNL     1      26.220  41.981   6.319  1.00  0.00    -0.443 OA
BRANCH  31  32
ATOM     32  C   UNL     1      25.003  42.130   6.979  1.00  0.00     0.294 C 
BRANCH  32  33
ATOM     33  C   UNL     1      24.495  40.847   7.512  1.00  0.00     0.121 A 
ATOM     34  C   UNL     1      23.274  40.240   7.345  1.00  0.00     0.144 A 
ATOM     35  N   UNL     1      25.212  40.009   8.304  1.00  0.00    -0.131 NA
ATOM     36  N   UNL     1      23.259  39.074   8.016  1.00  0.00    -0.220 N 
ATOM     37  N   UNL     1      24.445  38.969   8.582  1.00  0.00    -0.062 NA
BRANCH  36  38
ATOM     38  C   UNL     1      22.207  38.120   8.123  1.00  0.00     0.066 A 
ATOM     39  C   UNL     1      20.963  38.464   8.607  1.00  0.00     0.030 A 
ATOM     40  C   UNL     1      22.392  36.803   7.745  1.00  0.00     0.030 A 
ATOM     41  C   UNL     1      19.935  37.554   8.717  1.00  0.00     0.024 A 
ATOM     42  C   UNL     1      21.365  35.889   7.853  1.00  0.00     0.024 A 
ATOM     43  C   UNL     1      20.117  36.220   8.336  1.00  0.00     0.082 A 
BRANCH  43  44
ATOM     44  S   UNL     1      18.809  35.068   8.478  1.00  0.00     0.238 S 
ATOM     45  O   UNL     1      19.105  34.205   9.673  1.00  0.00    -0.207 OA
ATOM     46  O   UNL     1      17.537  35.821   8.793  1.00  0.00    -0.207 OA
BRANCH  44  47
ATOM     47  N   UNL     1      18.617  34.104   7.076  1.00  0.00    -0.225 NA
ATOM     48  H   UNL     1      18.716  34.604   6.186  1.00  0.00     0.137 HD
ATOM     49  H   UNL     1      19.192  33.233   7.112  1.00  0.00     0.137 HD
ENDBRANCH  44  47
ENDBRANCH  43  44
ENDBRANCH  36  38
ENDBRANCH  32  33
ENDBRANCH  31  32
ENDBRANCH   2  31
TORSDOF 17
BEGIN_RES LYS A 131
REMARK  4 active torsions:
REMARK  status: ('A' for Active; 'I' for Inactive)
REMARK    1  A    between atoms: CA   and  CB  
REMARK    2  A    between atoms: CB   and  CG  
REMARK    3  A    between atoms: CG   and  CD  
REMARK    4  A    between atoms: CD   and  CE  
ROOT
ATOM      1  CA  LYS A 131      29.867  25.555  16.977  1.00 20.52     0.186 C 
ENDROOT
BRANCH   1   2
ATOM      2  CB  LYS A 131      28.345  25.722  17.026  1.00 20.94     0.034 C 
BRANCH   2   3
ATOM      3  CG  LYS A 131      27.601  24.402  16.895  1.00 22.96     0.005 C 
BRANCH   3   4
ATOM      4  CD  LYS A 131      26.681  24.152  18.058  1.00 24.33     0.041 C 
BRANCH   4   5
ATOM      5  CE  LYS A 131      26.421  25.464  18.792  1.00 26.91     0.338 C 
ATOM      6  NZ  LYS A 131      25.406  25.272  19.855  1.00 27.40     0.618 N 
ENDBRANCH   4   5
ENDBRANCH   3   4
ENDBRANCH   2   3
ENDBRANCH   1   2
END_RES LYS A 131
BEGIN_RES LYS A 135
REMARK  4 active torsions:
REMARK  status: ('A' for Active; 'I' for Inactive)
REMARK    5  A    between atoms: CA   and  CB  
REMARK    6  A    between atoms: CB   and  CG  
REMARK    7  A    between atoms: CG   and  CD  
REMARK    8  A    between atoms: CD   and  CE  
ROOT
ATOM      7  CA  LYS A 135      33.193  34.663   9.290  1.00 25.02     0.186 C 
ENDROOT
BRANCH   7   8
ATOM      8  CB  LYS A 135      32.060  35.360  10.034  1.00 26.63     0.034 C 
BRANCH   8   9
ATOM      9  CG  LYS A 135      30.741  34.637   9.937  1.00 29.45     0.005 C 
BRANCH   9  10
ATOM     10  CD  LYS A 135      30.301  34.517   8.486  1.00 32.00     0.041 C 
BRANCH  10  11
ATOM     11  CE  LYS A 135      28.796  34.354   8.398  1.00 34.25     0.338 C 
ATOM     12  NZ  LYS A 135      28.241  33.803   9.666  1.00 35.99     0.618 N 
ENDBRANCH  10  11
ENDBRANCH   9  10
ENDBRANCH   8   9
ENDBRANCH   7   8
END_RES LYS A 135
