REMARK VINA RESULT:    -9.079      3.465      5.922
REMARK INTER + INTRA:         -13.281
REMARK INTER:                  -8.941
REMARK INTRA:                  -4.340
REMARK UNBOUND:                 4.555
REMARK SMILES CC(=O)N[C@@H]1[C@@H](O)C[C@](O)(C(=O)O)O[C@H]1C(O)[C@H](O)CNC(=O)OCc1cn(C2CCc3ccccc3NC2=O)nn1
REMARK SMILES IDX 24 1 22 2 21 3 23 5 20 6 18 7 16 8 15 9 9 10 8 11 14 12 6 13
REMARK SMILES IDX 5 14 10 15 11 17 12 18 13 19 7 21 4 23 2 24 1 26 3 27 17 28
REMARK SMILES IDX 19 30 25 32 26 33 27 34 42 35 28 36 41 37 29 38 39 40 38 41
REMARK SMILES IDX 40 42 37 44 32 45 36 46 33 47 35 48 34 49 31 50 30 51
REMARK H PARENT 21 4 10 16 13 20 7 22 4 25 17 29 19 31 38 43
REMARK Flexibility Score: 80.00
ROOT
ATOM      1  O   UNL     1      27.983  37.623  16.108  1.00  0.00    -0.443 OA
ENDROOT
BRANCH   1   2
ATOM      2  C   UNL     1      28.159  37.033  17.336  1.00  0.00     0.407 C 
ATOM      3  N   UNL     1      28.479  35.637  17.423  1.00  0.00    -0.319 N 
ATOM      4  H   UNL     1      28.565  35.126  16.513  1.00  0.00     0.167 HD
ATOM      5  O   UNL     1      28.050  37.675  18.411  1.00  0.00    -0.225 OA
BRANCH   3   6
ATOM      6  C   UNL     1      28.671  34.973  18.699  1.00  0.00     0.154 C 
BRANCH   6   7
ATOM      7  C   UNL     1      27.491  34.063  18.943  1.00  0.00     0.165 C 
BRANCH   7   8
ATOM      8  C   UNL     1      27.908  32.688  19.419  1.00  0.00     0.176 C 
BRANCH   8   9
ATOM      9  C   UNL     1      28.660  31.940  18.308  1.00  0.00     0.178 C 
ATOM     10  C   UNL     1      29.481  32.505  16.184  1.00  0.00     0.269 C 
ATOM     11  C   UNL     1      29.166  31.092  15.801  1.00  0.00     0.112 C 
ATOM     12  O   UNL     1      29.147  32.860  17.462  1.00  0.00    -0.332 OA
ATOM     13  C   UNL     1      27.735  30.841  16.249  1.00  0.00     0.145 C 
ATOM     14  C   UNL     1      27.709  30.930  17.754  1.00  0.00     0.142 C 
BRANCH  10  15
ATOM     15  O   UNL     1      28.740  33.359  15.342  1.00  0.00    -0.357 OA
ATOM     16  H   UNL     1      28.020  33.726  15.917  1.00  0.00     0.214 HD
ENDBRANCH  10  15
BRANCH  10  17
ATOM     17  C   UNL     1      30.913  32.839  15.980  1.00  0.00     0.364 C 
ATOM     18  O   UNL     1      31.563  32.238  15.099  1.00  0.00    -0.246 OA
BRANCH  17  19
ATOM     19  O   UNL     1      31.565  33.807  16.740  1.00  0.00    -0.477 OA
ATOM     20  H   UNL     1      32.545  34.000  16.484  1.00  0.00     0.296 HD
ENDBRANCH  17  19
ENDBRANCH  10  17
BRANCH  13  21
ATOM     21  O   UNL     1      26.955  31.868  15.727  1.00  0.00    -0.391 OA
ATOM     22  H   UNL     1      26.357  31.472  15.048  1.00  0.00     0.211 HD
ENDBRANCH  13  21
BRANCH  14  23
ATOM     23  N   UNL     1      28.101  29.626  18.259  1.00  0.00    -0.348 N 
ATOM     24  C   UNL     1      27.240  28.786  19.013  1.00  0.00     0.217 C 
ATOM     25  H   UNL     1      29.087  29.277  18.056  1.00  0.00     0.163 HD
ATOM     26  C   UNL     1      27.755  27.476  19.476  1.00  0.00     0.114 C 
ATOM     27  O   UNL     1      26.073  29.190  19.259  1.00  0.00    -0.275 OA
ENDBRANCH  14  23
ENDBRANCH   8   9
BRANCH   8  28
ATOM     28  O   UNL     1      26.726  31.987  19.682  1.00  0.00    -0.388 OA
ATOM     29  H   UNL     1      25.966  32.570  19.894  1.00  0.00     0.211 HD
ENDBRANCH   8  28
ENDBRANCH   7   8
BRANCH   7  30
ATOM     30  O   UNL     1      26.683  33.970  17.817  1.00  0.00    -0.388 OA
ATOM     31  H   UNL     1      25.728  33.938  18.035  1.00  0.00     0.211 HD
ENDBRANCH   7  30
ENDBRANCH   6   7
ENDBRANCH   3   6
ENDBRANCH   1   2
BRANCH   1  32
ATOM     32  C   UNL     1      26.731  37.601  15.442  1.00  0.00     0.294 C 
BRANCH  32  33
ATOM     33  C   UNL     1      26.573  36.365  14.636  1.00  0.00     0.120 A 
ATOM     34  C   UNL     1      26.848  36.273  13.267  1.00  0.00     0.139 A 
ATOM     35  N   UNL     1      26.160  35.135  14.992  1.00  0.00    -0.132 NA
ATOM     36  N   UNL     1      26.594  35.020  12.855  1.00  0.00    -0.240 N 
ATOM     37  N   UNL     1      26.183  34.365  13.919  1.00  0.00    -0.066 NA
BRANCH  36  38
ATOM     38  C   UNL     1      26.735  34.501  11.513  1.00  0.00     0.198 CG0
ATOM     39  G   UNL     1      28.146  34.703  11.062  1.00  0.00     0.000 G0
BRANCH  38  40
ATOM     40  C   UNL     1      25.742  35.114  10.587  1.00  0.00     0.249 C 
ATOM     41  N   UNL     1      25.875  35.714   9.312  1.00  0.00    -0.324 N 
ATOM     42  O   UNL     1      24.576  35.078  11.051  1.00  0.00    -0.272 OA
ATOM     43  H   UNL     1      25.097  36.306   8.949  1.00  0.00     0.170 HD
BRANCH  41  44
ATOM     44  C   UNL     1      26.992  35.608   8.411  1.00  0.00     0.044 A 
ATOM     45  C   UNL     1      28.141  34.860   8.590  1.00  0.00    -0.024 A 
ATOM     46  C   UNL     1      26.783  36.374   7.281  1.00  0.00     0.026 A 
ATOM     47  C   UNL     1      29.090  34.889   7.615  1.00  0.00     0.006 A 
ATOM     48  C   UNL     1      27.745  36.401   6.295  1.00  0.00     0.002 A 
ATOM     49  C   UNL     1      28.889  35.656   6.475  1.00  0.00     0.000 A 
BRANCH  45  50
ATOM     50  C   UNL     1      28.471  34.003   9.760  1.00  0.00     0.040 C 
BRANCH  50  51
ATOM     51  C   UNL     1      28.171  34.689  11.082  1.00  0.00     0.042 CG0
ATOM     52  G   UNL     1      26.757  34.484  11.520  1.00  0.00     0.000 G0
ENDBRANCH  50  51
ENDBRANCH  45  50
ENDBRANCH  41  44
ENDBRANCH  38  40
ENDBRANCH  36  38
ENDBRANCH  32  33
ENDBRANCH   1  32
TORSDOF 15
BEGIN_RES LYS A 131
REMARK  4 active torsions:
REMARK  status: ('A' for Active; 'I' for Inactive)
REMARK    1  A    between atoms: CA   and  CB  
REMARK    2  A    between atoms: CB   and  CG  
REMARK    3  A    between atoms: CG   and  CD  
REMARK    4  A    between atoms: CD   and  CE  
ROOT
ATOM      1  CA  LYS A 131      29.867  25.555  16.977  1.00 20.52     0.186 C 
ENDROOT
BRANCH   1   2
ATOM      2  CB  LYS A 131      28.345  25.722  17.026  1.00 20.94     0.034 C 
BRANCH   2   3
ATOM      3  CG  LYS A 131      27.599  24.425  16.753  1.00 22.96     0.005 C 
BRANCH   3   4
ATOM      4  CD  LYS A 131      27.003  23.840  18.003  1.00 24.33     0.041 C 
BRANCH   4   5
ATOM      5  CE  LYS A 131      25.600  24.401  18.209  1.00 26.91     0.338 C 
ATOM      6  NZ  LYS A 131      24.837  24.368  16.940  1.00 27.40     0.618 N 
ENDBRANCH   4   5
ENDBRANCH   3   4
ENDBRANCH   2   3
ENDBRANCH   1   2
END_RES LYS A 131
BEGIN_RES LYS A 135
REMARK  4 active torsions:
REMARK  status: ('A' for Active; 'I' for Inactive)
REMARK    5  A    between atoms: CA   and  CB  
REMARK    6  A    between atoms: CB   and  CG  
REMARK    7  A    between atoms: CG   and  CD  
REMARK    8  A    between atoms: CD   and  CE  
ROOT
ATOM      7  CA  LYS A 135      33.193  34.663   9.290  1.00 25.02     0.186 C 
ENDROOT
BRANCH   7   8
ATOM      8  CB  LYS A 135      32.060  35.360  10.034  1.00 26.63     0.034 C 
BRANCH   8   9
ATOM      9  CG  LYS A 135      32.500  36.030  11.310  1.00 29.45     0.005 C 
BRANCH   9  10
ATOM     10  CD  LYS A 135      32.016  37.471  11.353  1.00 32.00     0.041 C 
BRANCH  10  11
ATOM     11  CE  LYS A 135      31.337  37.766  12.677  1.00 34.25     0.338 C 
ATOM     12  NZ  LYS A 135      30.908  36.509  13.351  1.00 35.99     0.618 N 
ENDBRANCH  10  11
ENDBRANCH   9  10
ENDBRANCH   8   9
ENDBRANCH   7   8
END_RES LYS A 135
