REMARK VINA RESULT:    -4.249      3.241      7.859
REMARK INTER + INTRA:         -14.350
REMARK INTER:                  -9.082
REMARK INTRA:                  -5.268
REMARK UNBOUND:                -6.624
REMARK SMILES CC(=O)N[C@@H]1[C@@H](O)C[C@](O)(C(=O)O)O[C@H]1C(O)[C@H](O)CNC(=O)OCc1cn(-c2cccc(S(N)(=O)=O)c2)nn1
REMARK SMILES IDX 21 1 22 2 23 3 20 5 18 6 16 7 15 8 9 9 8 10 14 11 6 12 5 13
REMARK SMILES IDX 10 14 11 16 12 17 13 18 7 20 4 22 2 23 1 25 3 26 17 27 19 29
REMARK SMILES IDX 24 31 25 32 26 33 27 34 40 35 28 36 39 37 29 38 38 39 30 40
REMARK SMILES IDX 33 41 31 42 32 43 34 44 36 45 37 46 35 47
REMARK H PARENT 21 4 10 15 13 19 7 21 4 24 17 28 19 30 35 48 35 49
REMARK Flexibility Score: inf
ROOT
ATOM      1  N   UNL     1      26.458  37.955  14.674  1.00  0.00    -0.319 N 
ATOM      2  C   UNL     1      25.433  37.193  15.291  1.00  0.00     0.407 C 
ATOM      3  O   UNL     1      25.746  36.174  15.930  1.00  0.00    -0.225 OA
ATOM      4  H   UNL     1      26.120  38.808  14.149  1.00  0.00     0.167 HD
ENDROOT
BRANCH   1   5
ATOM      5  C   UNL     1      27.852  37.601  14.753  1.00  0.00     0.154 C 
BRANCH   5   6
ATOM      6  C   UNL     1      28.225  36.618  13.664  1.00  0.00     0.165 C 
BRANCH   6   7
ATOM      7  C   UNL     1      29.566  35.982  14.003  1.00  0.00     0.176 C 
BRANCH   7   8
ATOM      8  C   UNL     1      29.406  34.465  13.951  1.00  0.00     0.178 C 
ATOM      9  C   UNL     1      27.909  33.424  15.382  1.00  0.00     0.269 C 
ATOM     10  C   UNL     1      28.750  32.174  15.491  1.00  0.00     0.112 C 
ATOM     11  O   UNL     1      28.117  34.109  14.202  1.00  0.00    -0.332 OA
ATOM     12  C   UNL     1      30.117  32.336  14.919  1.00  0.00     0.145 C 
ATOM     13  C   UNL     1      30.432  33.830  14.841  1.00  0.00     0.142 C 
BRANCH   9  14
ATOM     14  O   UNL     1      28.105  34.277  16.465  1.00  0.00    -0.357 OA
ATOM     15  H   UNL     1      29.096  34.384  16.613  1.00  0.00     0.214 HD
ENDBRANCH   9  14
BRANCH   9  16
ATOM     16  C   UNL     1      26.486  32.992  15.401  1.00  0.00     0.364 C 
ATOM     17  O   UNL     1      26.095  32.037  16.121  1.00  0.00    -0.246 OA
BRANCH  16  18
ATOM     18  O   UNL     1      25.515  33.624  14.622  1.00  0.00    -0.477 OA
ATOM     19  H   UNL     1      24.803  34.199  15.056  1.00  0.00     0.296 HD
ENDBRANCH  16  18
ENDBRANCH   9  16
BRANCH  12  20
ATOM     20  O   UNL     1      31.106  31.665  15.616  1.00  0.00    -0.391 OA
ATOM     21  H   UNL     1      30.803  31.331  16.508  1.00  0.00     0.211 HD
ENDBRANCH  12  20
BRANCH  13  22
ATOM     22  N   UNL     1      31.729  34.006  14.210  1.00  0.00    -0.348 N 
ATOM     23  C   UNL     1      32.838  34.589  14.892  1.00  0.00     0.217 C 
ATOM     24  H   UNL     1      31.854  33.690  13.209  1.00  0.00     0.163 HD
ATOM     25  C   UNL     1      34.117  34.718  14.148  1.00  0.00     0.114 C 
ATOM     26  O   UNL     1      32.674  34.954  16.069  1.00  0.00    -0.275 OA
ENDBRANCH  13  22
ENDBRANCH   7   8
BRANCH   7  27
ATOM     27  O   UNL     1      30.469  36.356  13.023  1.00  0.00    -0.388 OA
ATOM     28  H   UNL     1      31.156  35.662  12.884  1.00  0.00     0.211 HD
ENDBRANCH   7  27
ENDBRANCH   6   7
BRANCH   6  29
ATOM     29  O   UNL     1      28.327  37.326  12.454  1.00  0.00    -0.388 OA
ATOM     30  H   UNL     1      29.055  38.021  12.506  1.00  0.00     0.211 HD
ENDBRANCH   6  29
ENDBRANCH   5   6
ENDBRANCH   1   5
BRANCH   2  31
ATOM     31  O   UNL     1      24.088  37.564  15.194  1.00  0.00    -0.443 OA
BRANCH  31  32
ATOM     32  C   UNL     1      23.464  37.734  13.938  1.00  0.00     0.294 C 
BRANCH  32  33
ATOM     33  C   UNL     1      23.988  36.739  12.970  1.00  0.00     0.121 A 
ATOM     34  C   UNL     1      24.783  37.037  11.880  1.00  0.00     0.144 A 
ATOM     35  N   UNL     1      23.808  35.413  12.951  1.00  0.00    -0.131 NA
ATOM     36  N   UNL     1      25.028  35.862  11.279  1.00  0.00    -0.220 N 
ATOM     37  N   UNL     1      24.439  34.867  11.922  1.00  0.00    -0.062 NA
BRANCH  36  38
ATOM     38  C   UNL     1      25.814  35.687  10.102  1.00  0.00     0.068 A 
ATOM     39  C   UNL     1      26.002  36.689   9.175  1.00  0.00     0.050 A 
ATOM     40  C   UNL     1      26.430  34.473   9.846  1.00  0.00     0.028 A 
ATOM     41  C   UNL     1      26.772  36.509   8.027  1.00  0.00     0.084 A 
ATOM     42  C   UNL     1      27.191  34.273   8.727  1.00  0.00     0.004 A 
ATOM     43  C   UNL     1      27.360  35.292   7.820  1.00  0.00     0.022 A 
BRANCH  41  44
ATOM     44  S   UNL     1      27.004  37.774   6.863  1.00  0.00     0.238 S 
ATOM     45  O   UNL     1      28.265  38.518   7.220  1.00  0.00    -0.207 OA
ATOM     46  O   UNL     1      25.874  38.770   6.977  1.00  0.00    -0.207 OA
BRANCH  44  47
ATOM     47  N   UNL     1      27.146  37.155   5.268  1.00  0.00    -0.225 NA
ATOM     48  H   UNL     1      26.898  37.891   4.584  1.00  0.00     0.137 HD
ATOM     49  H   UNL     1      26.581  36.293   5.123  1.00  0.00     0.137 HD
ENDBRANCH  44  47
ENDBRANCH  41  44
ENDBRANCH  36  38
ENDBRANCH  32  33
ENDBRANCH  31  32
ENDBRANCH   2  31
TORSDOF 17
BEGIN_RES LYS A 131
REMARK  4 active torsions:
REMARK  status: ('A' for Active; 'I' for Inactive)
REMARK    1  A    between atoms: CA   and  CB  
REMARK    2  A    between atoms: CB   and  CG  
REMARK    3  A    between atoms: CG   and  CD  
REMARK    4  A    between atoms: CD   and  CE  
ROOT
ATOM      1  CA  LYS A 131      29.867  25.555  16.977  1.00 20.52     0.186 C 
ENDROOT
BRANCH   1   2
ATOM      2  CB  LYS A 131      28.345  25.722  17.026  1.00 20.94     0.034 C 
BRANCH   2   3
ATOM      3  CG  LYS A 131      27.599  24.419  16.782  1.00 22.96     0.005 C 
BRANCH   3   4
ATOM      4  CD  LYS A 131      26.834  23.969  17.996  1.00 24.33     0.041 C 
BRANCH   4   5
ATOM      5  CE  LYS A 131      25.481  23.411  17.566  1.00 26.91     0.338 C 
ATOM      6  NZ  LYS A 131      24.699  24.444  16.846  1.00 27.40     0.618 N 
ENDBRANCH   4   5
ENDBRANCH   3   4
ENDBRANCH   2   3
ENDBRANCH   1   2
END_RES LYS A 131
BEGIN_RES LYS A 135
REMARK  4 active torsions:
REMARK  status: ('A' for Active; 'I' for Inactive)
REMARK    5  A    between atoms: CA   and  CB  
REMARK    6  A    between atoms: CB   and  CG  
REMARK    7  A    between atoms: CG   and  CD  
REMARK    8  A    between atoms: CD   and  CE  
ROOT
ATOM      7  CA  LYS A 135      33.193  34.663   9.290  1.00 25.02     0.186 C 
ENDROOT
BRANCH   7   8
ATOM      8  CB  LYS A 135      32.060  35.360  10.034  1.00 26.63     0.034 C 
BRANCH   8   9
ATOM      9  CG  LYS A 135      30.802  35.503   9.218  1.00 29.45     0.005 C 
BRANCH   9  10
ATOM     10  CD  LYS A 135      30.163  36.864   9.450  1.00 32.00     0.041 C 
BRANCH  10  11
ATOM     11  CE  LYS A 135      31.198  37.863   9.931  1.00 34.25     0.338 C 
ATOM     12  NZ  LYS A 135      30.992  39.196   9.300  1.00 35.99     0.618 N 
ENDBRANCH  10  11
ENDBRANCH   9  10
ENDBRANCH   8   9
ENDBRANCH   7   8
END_RES LYS A 135
