REMARK VINA RESULT:    -5.804      1.717      2.541
REMARK INTER + INTRA:         -16.512
REMARK INTER:                 -11.506
REMARK INTRA:                  -5.006
REMARK UNBOUND:                -5.110
REMARK SMILES CC(=O)N[C@@H]1[C@@H](O)C[C@](O)(C(=O)O)O[C@H]1C(O)[C@H](O)CNC(=O)OCc1cn([C@@H](C)C(=O)OCc2ccccc2)nn1
REMARK SMILES IDX 24 1 22 2 21 3 23 5 20 6 18 7 16 8 15 9 9 10 8 11 14 12 6 13
REMARK SMILES IDX 5 14 10 15 11 17 12 18 13 19 7 21 4 23 2 24 1 26 3 27 17 28
REMARK SMILES IDX 19 30 25 32 26 33 27 34 42 35 28 36 41 37 29 38 30 39 31 40
REMARK SMILES IDX 32 41 33 42 34 43 35 44 36 45 40 46 37 47 39 48 38 49
REMARK H PARENT 21 4 10 16 13 20 7 22 4 25 17 29 19 31
REMARK Flexibility Score: inf
ROOT
ATOM      1  O   UNL     1      25.171  36.413  10.829  1.00  0.00    -0.443 OA
ENDROOT
BRANCH   1   2
ATOM      2  C   UNL     1      24.097  36.460   9.909  1.00  0.00     0.407 C 
ATOM      3  N   UNL     1      23.393  37.664   9.694  1.00  0.00    -0.319 N 
ATOM      4  H   UNL     1      23.722  38.497  10.278  1.00  0.00     0.167 HD
ATOM      5  O   UNL     1      23.838  35.389   9.328  1.00  0.00    -0.225 OA
BRANCH   3   6
ATOM      6  C   UNL     1      22.311  37.791   8.770  1.00  0.00     0.154 C 
BRANCH   6   7
ATOM      7  C   UNL     1      20.982  37.752   9.446  1.00  0.00     0.165 C 
BRANCH   7   8
ATOM      8  C   UNL     1      20.023  36.858   8.664  1.00  0.00     0.176 C 
BRANCH   8   9
ATOM      9  C   UNL     1      20.236  35.397   8.909  1.00  0.00     0.178 C 
ATOM     10  C   UNL     1      18.102  34.637   8.310  1.00  0.00     0.269 C 
ATOM     11  C   UNL     1      17.765  34.522   9.762  1.00  0.00     0.112 C 
ATOM     12  O   UNL     1      19.449  34.621   8.040  1.00  0.00    -0.332 OA
ATOM     13  C   UNL     1      18.957  33.949  10.500  1.00  0.00     0.145 C 
ATOM     14  C   UNL     1      20.094  34.945  10.325  1.00  0.00     0.142 C 
BRANCH  10  15
ATOM     15  O   UNL     1      17.491  35.741   7.762  1.00  0.00    -0.357 OA
ATOM     16  H   UNL     1      18.041  36.569   7.839  1.00  0.00     0.214 HD
ENDBRANCH  10  15
BRANCH  10  17
ATOM     17  C   UNL     1      17.538  33.428   7.607  1.00  0.00     0.364 C 
ATOM     18  O   UNL     1      17.027  32.484   8.263  1.00  0.00    -0.246 OA
BRANCH  17  19
ATOM     19  O   UNL     1      17.557  33.305   6.226  1.00  0.00    -0.477 OA
ATOM     20  H   UNL     1      18.369  32.912   5.726  1.00  0.00     0.296 HD
ENDBRANCH  17  19
ENDBRANCH  10  17
BRANCH  13  21
ATOM     21  O   UNL     1      18.656  33.737  11.831  1.00  0.00    -0.391 OA
ATOM     22  H   UNL     1      18.103  32.930  11.981  1.00  0.00     0.211 HD
ENDBRANCH  13  21
BRANCH  14  23
ATOM     23  N   UNL     1      21.327  34.362  10.863  1.00  0.00    -0.348 N 
ATOM     24  C   UNL     1      21.788  34.626  12.187  1.00  0.00     0.217 C 
ATOM     25  H   UNL     1      21.921  33.719  10.277  1.00  0.00     0.163 HD
ATOM     26  C   UNL     1      23.054  34.002  12.679  1.00  0.00     0.114 C 
ATOM     27  O   UNL     1      21.124  35.383  12.933  1.00  0.00    -0.275 OA
ENDBRANCH  14  23
ENDBRANCH   8   9
BRANCH   8  28
ATOM     28  O   UNL     1      20.197  37.105   7.296  1.00  0.00    -0.388 OA
ATOM     29  H   UNL     1      21.166  37.236   7.112  1.00  0.00     0.211 HD
ENDBRANCH   8  28
ENDBRANCH   7   8
BRANCH   7  30
ATOM     30  O   UNL     1      20.456  39.041   9.524  1.00  0.00    -0.388 OA
ATOM     31  H   UNL     1      21.171  39.741   9.579  1.00  0.00     0.211 HD
ENDBRANCH   7  30
ENDBRANCH   6   7
ENDBRANCH   3   6
ENDBRANCH   1   2
BRANCH   1  32
ATOM     32  C   UNL     1      25.846  37.613  11.142  1.00  0.00     0.294 C 
BRANCH  32  33
ATOM     33  C   UNL     1      26.944  37.895  10.198  1.00  0.00     0.120 A 
ATOM     34  C   UNL     1      26.895  38.544   8.986  1.00  0.00     0.139 A 
ATOM     35  N   UNL     1      28.231  37.554  10.373  1.00  0.00    -0.132 NA
ATOM     36  N   UNL     1      28.141  38.580   8.456  1.00  0.00    -0.238 N 
ATOM     37  N   UNL     1      28.923  37.979   9.311  1.00  0.00    -0.066 NA
BRANCH  36  38
ATOM     38  C   UNL     1      28.502  39.174   7.196  1.00  0.00     0.215 C 
ATOM     39  C   UNL     1      30.004  39.151   7.020  1.00  0.00     0.046 C 
BRANCH  38  40
ATOM     40  C   UNL     1      27.789  38.487   6.111  1.00  0.00     0.331 C 
ATOM     41  O   UNL     1      27.489  39.126   5.059  1.00  0.00    -0.250 OA
BRANCH  40  42
ATOM     42  O   UNL     1      27.425  37.159   6.182  1.00  0.00    -0.459 OA
BRANCH  42  43
ATOM     43  C   UNL     1      28.255  36.056   5.992  1.00  0.00     0.268 C 
BRANCH  43  44
ATOM     44  C   UNL     1      28.318  35.270   7.255  1.00  0.00    -0.011 A 
ATOM     45  C   UNL     1      27.161  34.921   7.916  1.00  0.00     0.007 A 
ATOM     46  C   UNL     1      29.529  34.885   7.763  1.00  0.00     0.007 A 
ATOM     47  C   UNL     1      27.214  34.192   9.079  1.00  0.00     0.000 A 
ATOM     48  C   UNL     1      29.612  34.160   8.919  1.00  0.00     0.000 A 
ATOM     49  C   UNL     1      28.455  33.815   9.575  1.00  0.00     0.000 A 
ENDBRANCH  43  44
ENDBRANCH  42  43
ENDBRANCH  40  42
ENDBRANCH  38  40
ENDBRANCH  36  38
ENDBRANCH  32  33
ENDBRANCH   1  32
TORSDOF 19
BEGIN_RES LYS A 131
REMARK  4 active torsions:
REMARK  status: ('A' for Active; 'I' for Inactive)
REMARK    1  A    between atoms: CA   and  CB  
REMARK    2  A    between atoms: CB   and  CG  
REMARK    3  A    between atoms: CG   and  CD  
REMARK    4  A    between atoms: CD   and  CE  
ROOT
ATOM      1  CA  LYS A 131      29.867  25.555  16.977  1.00 20.52     0.186 C 
ENDROOT
BRANCH   1   2
ATOM      2  CB  LYS A 131      28.345  25.722  17.026  1.00 20.94     0.034 C 
BRANCH   2   3
ATOM      3  CG  LYS A 131      27.601  24.401  16.904  1.00 22.96     0.005 C 
BRANCH   3   4
ATOM      4  CD  LYS A 131      26.161  24.521  17.319  1.00 24.33     0.041 C 
BRANCH   4   5
ATOM      5  CE  LYS A 131      25.958  23.822  18.659  1.00 26.91     0.338 C 
ATOM      6  NZ  LYS A 131      25.577  24.803  19.703  1.00 27.40     0.618 N 
ENDBRANCH   4   5
ENDBRANCH   3   4
ENDBRANCH   2   3
ENDBRANCH   1   2
END_RES LYS A 131
BEGIN_RES LYS A 135
REMARK  4 active torsions:
REMARK  status: ('A' for Active; 'I' for Inactive)
REMARK    5  A    between atoms: CA   and  CB  
REMARK    6  A    between atoms: CB   and  CG  
REMARK    7  A    between atoms: CG   and  CD  
REMARK    8  A    between atoms: CD   and  CE  
ROOT
ATOM      7  CA  LYS A 135      33.193  34.663   9.290  1.00 25.02     0.186 C 
ENDROOT
BRANCH   7   8
ATOM      8  CB  LYS A 135      32.060  35.360  10.034  1.00 26.63     0.034 C 
BRANCH   8   9
ATOM      9  CG  LYS A 135      32.239  35.372  11.530  1.00 29.45     0.005 C 
BRANCH   9  10
ATOM     10  CD  LYS A 135      32.182  36.794  12.066  1.00 32.00     0.041 C 
BRANCH  10  11
ATOM     11  CE  LYS A 135      31.929  36.790  13.561  1.00 34.25     0.338 C 
ATOM     12  NZ  LYS A 135      30.948  35.735  13.937  1.00 35.99     0.618 N 
ENDBRANCH  10  11
ENDBRANCH   9  10
ENDBRANCH   8   9
ENDBRANCH   7   8
END_RES LYS A 135
