REMARK VINA RESULT:    -5.621      1.571      3.218
REMARK INTER + INTRA:         -15.876
REMARK INTER:                 -12.832
REMARK INTRA:                  -3.044
REMARK UNBOUND:                -5.490
REMARK SMILES CC(=O)N[C@@H]1[C@@H](O)C[C@](O)(C(=O)O)O[C@H]1C(O)[C@H](O)CNC(=O)OCc1cn(C(c2ccccc2)c2ccccc2)nn1
REMARK SMILES IDX 21 1 22 2 23 3 20 5 18 6 16 7 15 8 9 9 8 10 14 11 6 12 5 13
REMARK SMILES IDX 10 14 11 16 12 17 13 18 7 20 4 22 2 23 1 25 3 26 17 27 19 29
REMARK SMILES IDX 24 31 25 32 26 33 27 34 43 35 28 36 42 37 29 38 30 39 31 40
REMARK SMILES IDX 35 41 32 42 34 43 33 44 36 45 37 46 41 47 38 48 40 49 39 50
REMARK H PARENT 21 4 10 15 13 19 7 21 4 24 17 28 19 30
REMARK Flexibility Score: inf
ROOT
ATOM      1  N   UNL     1      29.821  34.936  15.478  1.00  0.00    -0.319 N 
ATOM      2  C   UNL     1      29.270  36.218  15.259  1.00  0.00     0.407 C 
ATOM      3  O   UNL     1      30.020  37.196  15.029  1.00  0.00    -0.225 OA
ATOM      4  H   UNL     1      29.172  34.146  15.669  1.00  0.00     0.167 HD
ENDROOT
BRANCH   1   5
ATOM      5  C   UNL     1      31.232  34.711  15.441  1.00  0.00     0.154 C 
BRANCH   5   6
ATOM      6  C   UNL     1      31.548  33.440  16.231  1.00  0.00     0.165 C 
BRANCH   6   7
ATOM      7  C   UNL     1      30.372  32.507  15.989  1.00  0.00     0.176 C 
BRANCH   7   8
ATOM      8  C   UNL     1      30.361  31.273  16.846  1.00  0.00     0.178 C 
ATOM      9  C   UNL     1      28.087  30.678  16.700  1.00  0.00     0.269 C 
ATOM     10  C   UNL     1      27.857  31.086  18.138  1.00  0.00     0.112 C 
ATOM     11  O   UNL     1      29.373  30.447  16.346  1.00  0.00    -0.332 OA
ATOM     12  C   UNL     1      28.857  32.090  18.627  1.00  0.00     0.145 C 
ATOM     13  C   UNL     1      30.221  31.568  18.286  1.00  0.00     0.142 C 
BRANCH   9  14
ATOM     14  O   UNL     1      27.598  31.735  15.929  1.00  0.00    -0.357 OA
ATOM     15  H   UNL     1      28.140  31.749  15.090  1.00  0.00     0.214 HD
ENDBRANCH   9  14
BRANCH   9  16
ATOM     16  C   UNL     1      27.205  29.491  16.401  1.00  0.00     0.364 C 
ATOM     17  O   UNL     1      26.021  29.630  16.081  1.00  0.00    -0.246 OA
BRANCH  16  18
ATOM     18  O   UNL     1      27.755  28.234  16.493  1.00  0.00    -0.477 OA
ATOM     19  H   UNL     1      27.505  27.528  15.792  1.00  0.00     0.296 HD
ENDBRANCH  16  18
ENDBRANCH   9  16
BRANCH  12  20
ATOM     20  O   UNL     1      28.558  33.305  18.080  1.00  0.00    -0.391 OA
ATOM     21  H   UNL     1      28.125  33.209  17.188  1.00  0.00     0.211 HD
ENDBRANCH  12  20
BRANCH  13  22
ATOM     22  N   UNL     1      30.427  30.352  19.099  1.00  0.00    -0.348 N 
ATOM     23  C   UNL     1      31.123  30.377  20.320  1.00  0.00     0.217 C 
ATOM     24  H   UNL     1      30.040  29.454  18.740  1.00  0.00     0.163 HD
ATOM     25  C   UNL     1      31.308  29.130  21.107  1.00  0.00     0.114 C 
ATOM     26  O   UNL     1      31.599  31.458  20.764  1.00  0.00    -0.275 OA
ENDBRANCH  13  22
ENDBRANCH   7   8
BRANCH   7  27
ATOM     27  O   UNL     1      30.540  32.079  14.621  1.00  0.00    -0.388 OA
ATOM     28  H   UNL     1      31.416  32.326  14.287  1.00  0.00     0.211 HD
ENDBRANCH   7  27
ENDBRANCH   6   7
BRANCH   6  29
ATOM     29  O   UNL     1      31.637  33.846  17.554  1.00  0.00    -0.388 OA
ATOM     30  H   UNL     1      31.873  33.123  18.167  1.00  0.00     0.211 HD
ENDBRANCH   6  29
ENDBRANCH   5   6
ENDBRANCH   1   5
BRANCH   2  31
ATOM     31  O   UNL     1      27.899  36.441  15.290  1.00  0.00    -0.443 OA
BRANCH  31  32
ATOM     32  C   UNL     1      27.297  37.108  14.214  1.00  0.00     0.294 C 
BRANCH  32  33
ATOM     33  C   UNL     1      26.856  36.105  13.210  1.00  0.00     0.120 A 
ATOM     34  C   UNL     1      26.904  36.278  11.824  1.00  0.00     0.139 A 
ATOM     35  N   UNL     1      26.336  34.876  13.373  1.00  0.00    -0.132 NA
ATOM     36  N   UNL     1      26.426  35.180  11.234  1.00  0.00    -0.240 N 
ATOM     37  N   UNL     1      26.088  34.346  12.181  1.00  0.00    -0.066 NA
BRANCH  36  38
ATOM     38  C   UNL     1      26.288  34.918   9.809  1.00  0.00     0.169 C 
BRANCH  38  39
ATOM     39  C   UNL     1      25.256  35.762   9.204  1.00  0.00    -0.019 A 
ATOM     40  C   UNL     1      25.562  36.972   8.570  1.00  0.00     0.006 A 
ATOM     41  C   UNL     1      23.935  35.362   9.230  1.00  0.00     0.006 A 
ATOM     42  C   UNL     1      24.572  37.737   7.994  1.00  0.00     0.000 A 
ATOM     43  C   UNL     1      22.962  36.148   8.646  1.00  0.00     0.000 A 
ATOM     44  C   UNL     1      23.250  37.342   8.019  1.00  0.00     0.000 A 
ENDBRANCH  38  39
BRANCH  38  45
ATOM     45  C   UNL     1      27.568  34.848   9.100  1.00  0.00    -0.019 A 
ATOM     46  C   UNL     1      28.680  34.230   9.698  1.00  0.00     0.006 A 
ATOM     47  C   UNL     1      27.701  35.376   7.838  1.00  0.00     0.006 A 
ATOM     48  C   UNL     1      29.878  34.154   9.035  1.00  0.00     0.000 A 
ATOM     49  C   UNL     1      28.928  35.294   7.172  1.00  0.00     0.000 A 
ATOM     50  C   UNL     1      30.007  34.686   7.771  1.00  0.00     0.000 A 
ENDBRANCH  38  45
ENDBRANCH  36  38
ENDBRANCH  32  33
ENDBRANCH  31  32
ENDBRANCH   2  31
TORSDOF 17
BEGIN_RES LYS A 131
REMARK  4 active torsions:
REMARK  status: ('A' for Active; 'I' for Inactive)
REMARK    1  A    between atoms: CA   and  CB  
REMARK    2  A    between atoms: CB   and  CG  
REMARK    3  A    between atoms: CG   and  CD  
REMARK    4  A    between atoms: CD   and  CE  
ROOT
ATOM      1  CA  LYS A 131      29.867  25.555  16.977  1.00 20.52     0.186 C 
ENDROOT
BRANCH   1   2
ATOM      2  CB  LYS A 131      28.345  25.722  17.026  1.00 20.94     0.034 C 
BRANCH   2   3
ATOM      3  CG  LYS A 131      27.601  24.400  16.907  1.00 22.96     0.005 C 
BRANCH   3   4
ATOM      4  CD  LYS A 131      26.148  24.534  17.268  1.00 24.33     0.041 C 
BRANCH   4   5
ATOM      5  CE  LYS A 131      25.958  25.743  18.177  1.00 26.91     0.338 C 
ATOM      6  NZ  LYS A 131      24.827  26.576  17.705  1.00 27.40     0.618 N 
ENDBRANCH   4   5
ENDBRANCH   3   4
ENDBRANCH   2   3
ENDBRANCH   1   2
END_RES LYS A 131
BEGIN_RES LYS A 135
REMARK  4 active torsions:
REMARK  status: ('A' for Active; 'I' for Inactive)
REMARK    5  A    between atoms: CA   and  CB  
REMARK    6  A    between atoms: CB   and  CG  
REMARK    7  A    between atoms: CG   and  CD  
REMARK    8  A    between atoms: CD   and  CE  
ROOT
ATOM      7  CA  LYS A 135      33.193  34.663   9.290  1.00 25.02     0.186 C 
ENDROOT
BRANCH   7   8
ATOM      8  CB  LYS A 135      32.060  35.360  10.034  1.00 26.63     0.034 C 
BRANCH   8   9
ATOM      9  CG  LYS A 135      32.360  35.611  11.489  1.00 29.45     0.005 C 
BRANCH   9  10
ATOM     10  CD  LYS A 135      31.833  36.972  11.919  1.00 32.00     0.041 C 
BRANCH  10  11
ATOM     11  CE  LYS A 135      30.398  37.156  11.462  1.00 34.25     0.338 C 
ATOM     12  NZ  LYS A 135      29.919  38.537  11.744  1.00 35.99     0.618 N 
ENDBRANCH  10  11
ENDBRANCH   9  10
ENDBRANCH   8   9
ENDBRANCH   7   8
END_RES LYS A 135
