REMARK VINA RESULT:    -4.793      2.725      6.760
REMARK INTER + INTRA:         -14.091
REMARK INTER:                  -7.794
REMARK INTRA:                  -6.297
REMARK UNBOUND:                -5.796
REMARK SMILES CC(=O)N[C@@H]1[C@@H](O)C[C@](O)(C(=O)O)O[C@H]1C(O)[C@H](O)CNC(=O)OCc1cn(C2CCCCC2)nn1
REMARK SMILES IDX 20 1 18 2 16 3 15 4 9 5 8 6 14 7 6 8 5 9 10 10 11 12 12 13
REMARK SMILES IDX 13 14 7 16 4 18 2 19 1 21 3 22 17 23 19 25 21 27 22 28 23 30
REMARK SMILES IDX 24 31 25 32 26 33 27 34 36 35 28 36 35 37 29 38 30 39 34 40
REMARK SMILES IDX 31 41 33 42 32 43
REMARK H PARENT 10 11 13 15 7 17 4 20 17 24 19 26 21 29
REMARK Flexibility Score: inf
ROOT
ATOM      1  C   UNL     1      29.348  31.084  15.484  1.00  0.00     0.154 C 
ENDROOT
BRANCH   1   2
ATOM      2  C   UNL     1      30.699  31.521  16.029  1.00  0.00     0.165 C 
BRANCH   2   3
ATOM      3  C   UNL     1      30.440  32.578  17.058  1.00  0.00     0.176 C 
BRANCH   3   4
ATOM      4  C   UNL     1      31.263  33.837  16.902  1.00  0.00     0.178 C 
ATOM      5  C   UNL     1      31.366  34.994  18.950  1.00  0.00     0.269 C 
ATOM      6  C   UNL     1      30.997  36.301  18.268  1.00  0.00     0.112 C 
ATOM      7  O   UNL     1      31.942  34.170  18.042  1.00  0.00    -0.332 OA
ATOM      8  C   UNL     1      30.077  36.065  17.100  1.00  0.00     0.145 C 
ATOM      9  C   UNL     1      30.577  34.955  16.198  1.00  0.00     0.142 C 
BRANCH   5  10
ATOM     10  O   UNL     1      30.272  34.467  19.634  1.00  0.00    -0.357 OA
ATOM     11  H   UNL     1      30.556  34.306  20.589  1.00  0.00     0.214 HD
ENDBRANCH   5  10
BRANCH   5  12
ATOM     12  C   UNL     1      32.403  35.356  19.955  1.00  0.00     0.364 C 
ATOM     13  O   UNL     1      33.043  34.457  20.545  1.00  0.00    -0.246 OA
BRANCH  12  14
ATOM     14  O   UNL     1      32.655  36.669  20.230  1.00  0.00    -0.477 OA
ATOM     15  H   UNL     1      31.944  37.379  20.351  1.00  0.00     0.296 HD
ENDBRANCH  12  14
ENDBRANCH   5  12
BRANCH   8  16
ATOM     16  O   UNL     1      28.775  35.836  17.527  1.00  0.00    -0.391 OA
ATOM     17  H   UNL     1      28.684  34.907  17.852  1.00  0.00     0.211 HD
ENDBRANCH   8  16
BRANCH   9  18
ATOM     18  N   UNL     1      31.436  35.536  15.163  1.00  0.00    -0.348 N 
ATOM     19  C   UNL     1      31.286  35.085  13.835  1.00  0.00     0.217 C 
ATOM     20  H   UNL     1      32.143  36.263  15.383  1.00  0.00     0.163 HD
ATOM     21  C   UNL     1      32.115  35.617  12.709  1.00  0.00     0.114 C 
ATOM     22  O   UNL     1      30.436  34.198  13.506  1.00  0.00    -0.275 OA
ENDBRANCH   9  18
ENDBRANCH   3   4
BRANCH   3  23
ATOM     23  O   UNL     1      29.108  32.776  17.312  1.00  0.00    -0.388 OA
ATOM     24  H   UNL     1      28.640  33.305  16.592  1.00  0.00     0.211 HD
ENDBRANCH   3  23
ENDBRANCH   2   3
BRANCH   2  25
ATOM     25  O   UNL     1      31.478  31.908  14.965  1.00  0.00    -0.388 OA
ATOM     26  H   UNL     1      31.992  31.149  14.647  1.00  0.00     0.211 HD
ENDBRANCH   2  25
ENDBRANCH   1   2
BRANCH   1  27
ATOM     27  N   UNL     1      28.811  30.075  16.367  1.00  0.00    -0.319 N 
ATOM     28  C   UNL     1      27.441  29.732  16.479  1.00  0.00     0.407 C 
ATOM     29  H   UNL     1      29.459  29.517  17.005  1.00  0.00     0.167 HD
ATOM     30  O   UNL     1      26.596  30.333  15.773  1.00  0.00    -0.225 OA
BRANCH  28  31
ATOM     31  O   UNL     1      27.009  28.742  17.357  1.00  0.00    -0.443 OA
BRANCH  31  32
ATOM     32  C   UNL     1      26.473  29.103  18.605  1.00  0.00     0.294 C 
BRANCH  32  33
ATOM     33  C   UNL     1      27.463  29.963  19.305  1.00  0.00     0.120 A 
ATOM     34  C   UNL     1      28.498  29.522  20.139  1.00  0.00     0.138 A 
ATOM     35  N   UNL     1      27.595  31.303  19.310  1.00  0.00    -0.132 NA
ATOM     36  N   UNL     1      29.188  30.582  20.596  1.00  0.00    -0.249 N 
ATOM     37  N   UNL     1      28.614  31.652  20.074  1.00  0.00    -0.067 NA
BRANCH  36  38
ATOM     38  C   UNL     1      30.338  30.555  21.489  1.00  0.00     0.109 C 
ATOM     39  C   UNL     1      30.823  29.129  21.629  1.00  0.00     0.027 C 
ATOM     40  C   UNL     1      31.464  31.378  20.904  1.00  0.00     0.027 C 
ATOM     41  C   UNL     1      32.087  28.887  20.825  1.00  0.00     0.002 C 
ATOM     42  C   UNL     1      32.692  31.107  21.755  1.00  0.00     0.002 C 
ATOM     43  C   UNL     1      33.206  29.736  21.365  1.00  0.00     0.000 C 
ENDBRANCH  36  38
ENDBRANCH  32  33
ENDBRANCH  31  32
ENDBRANCH  28  31
ENDBRANCH   1  27
TORSDOF 15
BEGIN_RES LYS A 131
REMARK  4 active torsions:
REMARK  status: ('A' for Active; 'I' for Inactive)
REMARK    1  A    between atoms: CA   and  CB  
REMARK    2  A    between atoms: CB   and  CG  
REMARK    3  A    between atoms: CG   and  CD  
REMARK    4  A    between atoms: CD   and  CE  
ROOT
ATOM      1  CA  LYS A 131      29.867  25.555  16.977  1.00 20.52     0.186 C 
ENDROOT
BRANCH   1   2
ATOM      2  CB  LYS A 131      28.345  25.722  17.026  1.00 20.94     0.034 C 
BRANCH   2   3
ATOM      3  CG  LYS A 131      27.601  24.402  16.896  1.00 22.96     0.005 C 
BRANCH   3   4
ATOM      4  CD  LYS A 131      26.282  24.421  17.617  1.00 24.33     0.041 C 
BRANCH   4   5
ATOM      5  CE  LYS A 131      26.342  25.429  18.760  1.00 26.91     0.338 C 
ATOM      6  NZ  LYS A 131      25.468  24.999  19.877  1.00 27.40     0.618 N 
ENDBRANCH   4   5
ENDBRANCH   3   4
ENDBRANCH   2   3
ENDBRANCH   1   2
END_RES LYS A 131
BEGIN_RES LYS A 135
REMARK  4 active torsions:
REMARK  status: ('A' for Active; 'I' for Inactive)
REMARK    5  A    between atoms: CA   and  CB  
REMARK    6  A    between atoms: CB   and  CG  
REMARK    7  A    between atoms: CG   and  CD  
REMARK    8  A    between atoms: CD   and  CE  
ROOT
ATOM      7  CA  LYS A 135      33.193  34.663   9.290  1.00 25.02     0.186 C 
ENDROOT
BRANCH   7   8
ATOM      8  CB  LYS A 135      32.060  35.360  10.034  1.00 26.63     0.034 C 
BRANCH   8   9
ATOM      9  CG  LYS A 135      30.849  35.624   9.177  1.00 29.45     0.005 C 
BRANCH   9  10
ATOM     10  CD  LYS A 135      30.044  34.350   8.978  1.00 32.00     0.041 C 
BRANCH  10  11
ATOM     11  CE  LYS A 135      28.973  34.225  10.045  1.00 34.25     0.338 C 
ATOM     12  NZ  LYS A 135      27.676  33.790   9.455  1.00 35.99     0.618 N 
ENDBRANCH  10  11
ENDBRANCH   9  10
ENDBRANCH   8   9
ENDBRANCH   7   8
END_RES LYS A 135
