REMARK VINA RESULT:    -4.569      2.192      3.837
REMARK INTER + INTRA:         -14.470
REMARK INTER:                  -8.175
REMARK INTRA:                  -6.295
REMARK UNBOUND:                -6.295
REMARK SMILES CC(=O)N[C@@H]1[C@@H](O)C[C@](O)(C(=O)O)O[C@H]1C(O)[C@H](O)CNC(=O)OCc1cn(Cc2cccc(Br)c2)nn1
REMARK SMILES IDX 21 1 22 2 23 3 20 5 18 6 16 7 15 8 9 9 8 10 14 11 6 12 5 13
REMARK SMILES IDX 10 14 11 16 12 17 13 18 7 20 4 22 2 23 1 25 3 26 17 27 19 29
REMARK SMILES IDX 24 31 25 32 26 33 27 34 38 35 28 36 37 37 29 38 30 39 31 40
REMARK SMILES IDX 36 41 32 42 34 43 33 44 35 45
REMARK H PARENT 21 4 10 15 13 19 7 21 4 24 17 28 19 30
REMARK Flexibility Score: inf
ROOT
ATOM      1  N   UNL     1      25.881  30.680  18.819  1.00  0.00    -0.319 N 
ATOM      2  C   UNL     1      25.154  31.823  18.408  1.00  0.00     0.407 C 
ATOM      3  O   UNL     1      25.757  32.840  17.934  1.00  0.00    -0.225 OA
ATOM      4  H   UNL     1      25.347  29.871  19.201  1.00  0.00     0.167 HD
ENDROOT
BRANCH   1   5
ATOM      5  C   UNL     1      27.311  30.723  18.676  1.00  0.00     0.154 C 
BRANCH   5   6
ATOM      6  C   UNL     1      27.806  29.639  17.708  1.00  0.00     0.165 C 
BRANCH   6   7
ATOM      7  C   UNL     1      28.186  30.357  16.461  1.00  0.00     0.176 C 
BRANCH   7   8
ATOM      8  C   UNL     1      28.895  31.668  16.640  1.00  0.00     0.178 C 
ATOM      9  C   UNL     1      29.076  33.662  15.439  1.00  0.00     0.269 C 
ATOM     10  C   UNL     1      30.466  33.812  16.028  1.00  0.00     0.112 C 
ATOM     11  O   UNL     1      28.719  32.337  15.423  1.00  0.00    -0.332 OA
ATOM     12  C   UNL     1      31.153  32.461  16.146  1.00  0.00     0.145 C 
ATOM     13  C   UNL     1      30.301  31.601  17.098  1.00  0.00     0.142 C 
BRANCH   9  14
ATOM     14  O   UNL     1      29.208  34.030  14.082  1.00  0.00    -0.357 OA
ATOM     15  H   UNL     1      30.137  34.202  13.837  1.00  0.00     0.214 HD
ENDBRANCH   9  14
BRANCH   9  16
ATOM     16  C   UNL     1      28.103  34.571  16.049  1.00  0.00     0.364 C 
ATOM     17  O   UNL     1      27.249  35.151  15.339  1.00  0.00    -0.246 OA
BRANCH  16  18
ATOM     18  O   UNL     1      28.069  34.837  17.410  1.00  0.00    -0.477 OA
ATOM     19  H   UNL     1      28.579  35.619  17.770  1.00  0.00     0.296 HD
ENDBRANCH  16  18
ENDBRANCH   9  16
BRANCH  12  20
ATOM     20  O   UNL     1      31.320  31.869  14.921  1.00  0.00    -0.391 OA
ATOM     21  H   UNL     1      31.171  30.876  15.020  1.00  0.00     0.211 HD
ENDBRANCH  12  20
BRANCH  13  22
ATOM     22  N   UNL     1      30.476  32.247  18.405  1.00  0.00    -0.348 N 
ATOM     23  C   UNL     1      30.721  31.488  19.581  1.00  0.00     0.217 C 
ATOM     24  H   UNL     1      30.427  33.282  18.530  1.00  0.00     0.163 HD
ATOM     25  C   UNL     1      30.895  32.172  20.912  1.00  0.00     0.114 C 
ATOM     26  O   UNL     1      30.800  30.249  19.556  1.00  0.00    -0.275 OA
ENDBRANCH  13  22
ENDBRANCH   7   8
BRANCH   7  27
ATOM     27  O   UNL     1      26.963  30.693  15.822  1.00  0.00    -0.388 OA
ATOM     28  H   UNL     1      27.024  31.679  15.671  1.00  0.00     0.211 HD
ENDBRANCH   7  27
ENDBRANCH   6   7
BRANCH   6  29
ATOM     29  O   UNL     1      26.742  28.753  17.561  1.00  0.00    -0.388 OA
ATOM     30  H   UNL     1      26.725  28.157  18.341  1.00  0.00     0.211 HD
ENDBRANCH   6  29
ENDBRANCH   5   6
ENDBRANCH   1   5
BRANCH   2  31
ATOM     31  O   UNL     1      23.773  31.915  18.491  1.00  0.00    -0.443 OA
BRANCH  31  32
ATOM     32  C   UNL     1      22.889  30.950  17.948  1.00  0.00     0.294 C 
BRANCH  32  33
ATOM     33  C   UNL     1      23.286  30.569  16.566  1.00  0.00     0.120 A 
ATOM     34  C   UNL     1      22.782  31.117  15.381  1.00  0.00     0.138 A 
ATOM     35  N   UNL     1      24.182  29.649  16.166  1.00  0.00    -0.132 NA
ATOM     36  N   UNL     1      23.383  30.517  14.349  1.00  0.00    -0.248 N 
ATOM     37  N   UNL     1      24.226  29.633  14.849  1.00  0.00    -0.067 NA
BRANCH  36  38
ATOM     38  C   UNL     1      23.190  30.748  12.934  1.00  0.00     0.181 C 
BRANCH  38  39
ATOM     39  C   UNL     1      21.814  30.352  12.534  1.00  0.00    -0.025 A 
ATOM     40  C   UNL     1      21.496  29.035  12.286  1.00  0.00     0.006 A 
ATOM     41  C   UNL     1      20.837  31.300  12.408  1.00  0.00     0.021 A 
ATOM     42  C   UNL     1      20.203  28.660  11.909  1.00  0.00     0.002 A 
ATOM     43  C   UNL     1      19.544  30.939  12.033  1.00  0.00     0.018 A 
ATOM     44  C   UNL     1      19.229  29.613  11.784  1.00  0.00     0.016 A 
ATOM     45  Br  UNL     1      18.214  32.283  11.867  1.00  0.00    -0.051 Br
ENDBRANCH  38  39
ENDBRANCH  36  38
ENDBRANCH  32  33
ENDBRANCH  31  32
ENDBRANCH   2  31
TORSDOF 16
BEGIN_RES LYS A 131
REMARK  4 active torsions:
REMARK  status: ('A' for Active; 'I' for Inactive)
REMARK    1  A    between atoms: CA   and  CB  
REMARK    2  A    between atoms: CB   and  CG  
REMARK    3  A    between atoms: CG   and  CD  
REMARK    4  A    between atoms: CD   and  CE  
ROOT
ATOM      1  CA  LYS A 131      29.867  25.555  16.977  1.00 20.52     0.186 C 
ENDROOT
BRANCH   1   2
ATOM      2  CB  LYS A 131      28.345  25.722  17.026  1.00 20.94     0.034 C 
BRANCH   2   3
ATOM      3  CG  LYS A 131      27.601  24.402  16.890  1.00 22.96     0.005 C 
BRANCH   3   4
ATOM      4  CD  LYS A 131      26.193  24.490  17.410  1.00 24.33     0.041 C 
BRANCH   4   5
ATOM      5  CE  LYS A 131      25.626  23.085  17.582  1.00 26.91     0.338 C 
ATOM      6  NZ  LYS A 131      24.224  23.029  17.104  1.00 27.40     0.618 N 
ENDBRANCH   4   5
ENDBRANCH   3   4
ENDBRANCH   2   3
ENDBRANCH   1   2
END_RES LYS A 131
BEGIN_RES LYS A 135
REMARK  4 active torsions:
REMARK  status: ('A' for Active; 'I' for Inactive)
REMARK    5  A    between atoms: CA   and  CB  
REMARK    6  A    between atoms: CB   and  CG  
REMARK    7  A    between atoms: CG   and  CD  
REMARK    8  A    between atoms: CD   and  CE  
ROOT
ATOM      7  CA  LYS A 135      33.193  34.663   9.290  1.00 25.02     0.186 C 
ENDROOT
BRANCH   7   8
ATOM      8  CB  LYS A 135      32.060  35.360  10.034  1.00 26.63     0.034 C 
BRANCH   8   9
ATOM      9  CG  LYS A 135      30.850  35.627   9.176  1.00 29.45     0.005 C 
BRANCH   9  10
ATOM     10  CD  LYS A 135      30.331  34.336   8.563  1.00 32.00     0.041 C 
BRANCH  10  11
ATOM     11  CE  LYS A 135      28.976  33.979   9.143  1.00 34.25     0.338 C 
ATOM     12  NZ  LYS A 135      27.892  34.773   8.501  1.00 35.99     0.618 N 
ENDBRANCH  10  11
ENDBRANCH   9  10
ENDBRANCH   8   9
ENDBRANCH   7   8
END_RES LYS A 135
