REMARK VINA RESULT:    -5.059      3.495      7.708
REMARK INTER + INTRA:         -13.782
REMARK INTER:                  -8.211
REMARK INTRA:                  -5.572
REMARK UNBOUND:                -5.026
REMARK SMILES CC(=O)N[C@@H]1[C@@H](O)C[C@](O)(C(=O)O)O[C@H]1C(O)[C@H](O)CNC(=O)OCc1cn(C2CCCC2)nn1
REMARK SMILES IDX 20 1 18 2 16 3 15 4 9 5 8 6 14 7 6 8 5 9 10 10 11 12 12 13
REMARK SMILES IDX 13 14 7 16 4 18 2 19 1 21 3 22 17 23 19 25 21 27 22 28 23 30
REMARK SMILES IDX 24 31 25 32 26 33 27 34 35 35 28 36 34 37 29 38 30 39 33 40
REMARK SMILES IDX 31 41 32 42
REMARK H PARENT 10 11 13 15 7 17 4 20 17 24 19 26 21 29
REMARK Flexibility Score: inf
ROOT
ATOM      1  C   UNL     1      28.048  32.226  19.833  1.00  0.00     0.154 C 
ENDROOT
BRANCH   1   2
ATOM      2  C   UNL     1      28.101  30.850  20.436  1.00  0.00     0.165 C 
BRANCH   2   3
ATOM      3  C   UNL     1      29.314  30.167  19.834  1.00  0.00     0.176 C 
BRANCH   3   4
ATOM      4  C   UNL     1      29.983  29.235  20.794  1.00  0.00     0.178 C 
ATOM      5  C   UNL     1      31.975  28.967  21.948  1.00  0.00     0.269 C 
ATOM      6  C   UNL     1      31.240  27.716  22.405  1.00  0.00     0.112 C 
ATOM      7  O   UNL     1      31.341  29.450  20.801  1.00  0.00    -0.332 OA
ATOM      8  C   UNL     1      30.808  26.977  21.155  1.00  0.00     0.145 C 
ATOM      9  C   UNL     1      29.668  27.786  20.549  1.00  0.00     0.142 C 
BRANCH   5  10
ATOM     10  O   UNL     1      33.280  28.579  21.667  1.00  0.00    -0.357 OA
ATOM     11  H   UNL     1      33.618  28.085  22.476  1.00  0.00     0.214 HD
ENDBRANCH   5  10
BRANCH   5  12
ATOM     12  C   UNL     1      31.999  30.004  22.987  1.00  0.00     0.364 C 
ATOM     13  O   UNL     1      31.894  29.716  24.205  1.00  0.00    -0.246 OA
BRANCH  12  14
ATOM     14  O   UNL     1      32.139  31.340  22.650  1.00  0.00    -0.477 OA
ATOM     15  H   UNL     1      32.123  32.089  23.354  1.00  0.00     0.296 HD
ENDBRANCH  12  14
ENDBRANCH   5  12
BRANCH   8  16
ATOM     16  O   UNL     1      31.906  26.987  20.278  1.00  0.00    -0.391 OA
ATOM     17  H   UNL     1      31.750  27.722  19.629  1.00  0.00     0.211 HD
ENDBRANCH   8  16
BRANCH   9  18
ATOM     18  N   UNL     1      28.427  27.381  21.178  1.00  0.00    -0.348 N 
ATOM     19  C   UNL     1      27.301  27.030  20.401  1.00  0.00     0.217 C 
ATOM     20  H   UNL     1      28.356  27.344  22.211  1.00  0.00     0.163 HD
ATOM     21  C   UNL     1      26.001  26.606  20.979  1.00  0.00     0.114 C 
ATOM     22  O   UNL     1      27.404  27.079  19.155  1.00  0.00    -0.275 OA
ENDBRANCH   9  18
ENDBRANCH   3   4
BRANCH   3  23
ATOM     23  O   UNL     1      28.849  29.411  18.757  1.00  0.00    -0.388 OA
ATOM     24  H   UNL     1      28.974  28.448  18.869  1.00  0.00     0.211 HD
ENDBRANCH   3  23
ENDBRANCH   2   3
BRANCH   2  25
ATOM     25  O   UNL     1      26.970  30.119  20.160  1.00  0.00    -0.388 OA
ATOM     26  H   UNL     1      26.187  30.731  20.112  1.00  0.00     0.211 HD
ENDBRANCH   2  25
ENDBRANCH   1   2
BRANCH   1  27
ATOM     27  N   UNL     1      28.336  32.307  18.436  1.00  0.00    -0.319 N 
ATOM     28  C   UNL     1      27.420  32.141  17.392  1.00  0.00     0.407 C 
ATOM     29  H   UNL     1      29.353  32.516  18.178  1.00  0.00     0.167 HD
ATOM     30  O   UNL     1      26.220  31.888  17.641  1.00  0.00    -0.225 OA
BRANCH  28  31
ATOM     31  O   UNL     1      27.839  32.257  16.053  1.00  0.00    -0.443 OA
BRANCH  31  32
ATOM     32  C   UNL     1      28.945  31.471  15.649  1.00  0.00     0.294 C 
BRANCH  32  33
ATOM     33  C   UNL     1      30.079  32.377  15.365  1.00  0.00     0.120 A 
ATOM     34  C   UNL     1      30.042  33.378  14.402  1.00  0.00     0.138 A 
ATOM     35  N   UNL     1      31.288  32.441  15.910  1.00  0.00    -0.132 NA
ATOM     36  N   UNL     1      31.224  33.994  14.414  1.00  0.00    -0.249 N 
ATOM     37  N   UNL     1      31.972  33.416  15.333  1.00  0.00    -0.067 NA
BRANCH  36  38
ATOM     38  C   UNL     1      31.564  35.107  13.535  1.00  0.00     0.109 C 
ATOM     39  C   UNL     1      30.381  36.033  13.495  1.00  0.00     0.027 C 
ATOM     40  C   UNL     1      32.713  35.878  14.145  1.00  0.00     0.027 C 
ATOM     41  C   UNL     1      30.873  37.378  13.923  1.00  0.00     0.002 C 
ATOM     42  C   UNL     1      32.050  37.071  14.809  1.00  0.00     0.002 C 
ENDBRANCH  36  38
ENDBRANCH  32  33
ENDBRANCH  31  32
ENDBRANCH  28  31
ENDBRANCH   1  27
TORSDOF 15
BEGIN_RES LYS A 131
REMARK  4 active torsions:
REMARK  status: ('A' for Active; 'I' for Inactive)
REMARK    1  A    between atoms: CA   and  CB  
REMARK    2  A    between atoms: CB   and  CG  
REMARK    3  A    between atoms: CG   and  CD  
REMARK    4  A    between atoms: CD   and  CE  
ROOT
ATOM      1  CA  LYS A 131      29.867  25.555  16.977  1.00 20.52     0.186 C 
ENDROOT
BRANCH   1   2
ATOM      2  CB  LYS A 131      28.345  25.722  17.026  1.00 20.94     0.034 C 
BRANCH   2   3
ATOM      3  CG  LYS A 131      27.602  24.399  16.921  1.00 22.96     0.005 C 
BRANCH   3   4
ATOM      4  CD  LYS A 131      26.123  24.561  17.142  1.00 24.33     0.041 C 
BRANCH   4   5
ATOM      5  CE  LYS A 131      25.565  23.298  17.791  1.00 26.91     0.338 C 
ATOM      6  NZ  LYS A 131      25.729  23.354  19.262  1.00 27.40     0.618 N 
ENDBRANCH   4   5
ENDBRANCH   3   4
ENDBRANCH   2   3
ENDBRANCH   1   2
END_RES LYS A 131
BEGIN_RES LYS A 135
REMARK  4 active torsions:
REMARK  status: ('A' for Active; 'I' for Inactive)
REMARK    5  A    between atoms: CA   and  CB  
REMARK    6  A    between atoms: CB   and  CG  
REMARK    7  A    between atoms: CG   and  CD  
REMARK    8  A    between atoms: CD   and  CE  
ROOT
ATOM      7  CA  LYS A 135      33.193  34.663   9.290  1.00 25.02     0.186 C 
ENDROOT
BRANCH   7   8
ATOM      8  CB  LYS A 135      32.060  35.360  10.034  1.00 26.63     0.034 C 
BRANCH   8   9
ATOM      9  CG  LYS A 135      30.707  34.744   9.786  1.00 29.45     0.005 C 
BRANCH   9  10
ATOM     10  CD  LYS A 135      30.486  34.516   8.298  1.00 32.00     0.041 C 
BRANCH  10  11
ATOM     11  CE  LYS A 135      29.067  34.883   7.909  1.00 34.25     0.338 C 
ATOM     12  NZ  LYS A 135      28.081  34.286   8.851  1.00 35.99     0.618 N 
ENDBRANCH  10  11
ENDBRANCH   9  10
ENDBRANCH   8   9
ENDBRANCH   7   8
END_RES LYS A 135
