REMARK VINA RESULT:    -4.057      2.962      4.672
REMARK INTER + INTRA:         -17.811
REMARK INTER:                  -8.973
REMARK INTRA:                  -8.837
REMARK UNBOUND:                -8.298
REMARK SMILES CC(=O)N[C@@H]1[C@@H](O)C[C@](O)(C(=O)O)O[C@H]1C(O)[C@H](O)CNC(=O)OCc1cn(CCCCCCCCCCC(=O)O)nn1
REMARK SMILES IDX 29 1 28 2 26 3 27 4 43 5 42 6 25 7 24 8 22 9 21 10 23 12
REMARK SMILES IDX 20 13 18 14 16 15 15 16 9 17 8 18 14 19 6 20 5 21 10 22
REMARK SMILES IDX 11 24 12 25 13 26 7 28 4 30 2 31 1 33 3 34 17 35 19 37 30 39
REMARK SMILES IDX 31 40 32 41 33 42 34 43 35 44 36 45 37 46 38 47 39 48 40 49
REMARK SMILES IDX 41 50
REMARK H PARENT 21 11 10 23 13 27 7 29 4 32 17 36 19 38 41 51
REMARK Flexibility Score: inf
ROOT
ATOM      1  C   UNL     1      28.305  30.766  15.723  1.00  0.00     0.146 C 
ENDROOT
BRANCH   1   2
ATOM      2  N   UNL     1      28.003  29.935  16.856  1.00  0.00    -0.252 N 
ATOM      3  C   UNL     1      27.269  28.380  18.219  1.00  0.00     0.120 A 
ATOM      4  C   UNL     1      27.255  28.797  16.915  1.00  0.00     0.138 A 
ATOM      5  N   UNL     1      28.017  29.263  18.917  1.00  0.00    -0.132 NA
ATOM      6  N   UNL     1      28.437  30.170  18.078  1.00  0.00    -0.067 NA
BRANCH   3   7
ATOM      7  C   UNL     1      26.580  27.179  18.736  1.00  0.00     0.294 C 
BRANCH   7   8
ATOM      8  O   UNL     1      25.675  27.526  19.761  1.00  0.00    -0.443 OA
BRANCH   8   9
ATOM      9  C   UNL     1      26.136  27.920  21.010  1.00  0.00     0.407 C 
ATOM     10  N   UNL     1      26.020  29.263  21.458  1.00  0.00    -0.319 N 
ATOM     11  H   UNL     1      25.582  29.986  20.848  1.00  0.00     0.167 HD
ATOM     12  O   UNL     1      26.675  27.035  21.760  1.00  0.00    -0.225 OA
BRANCH  10  13
ATOM     13  C   UNL     1      26.507  29.626  22.751  1.00  0.00     0.154 C 
BRANCH  13  14
ATOM     14  C   UNL     1      27.956  30.061  22.728  1.00  0.00     0.165 C 
BRANCH  14  15
ATOM     15  C   UNL     1      28.763  29.209  23.660  1.00  0.00     0.176 C 
BRANCH  15  16
ATOM     16  C   UNL     1      30.008  28.710  22.957  1.00  0.00     0.178 C 
ATOM     17  C   UNL     1      31.277  29.090  21.056  1.00  0.00     0.269 C 
ATOM     18  C   UNL     1      31.731  27.668  21.293  1.00  0.00     0.112 C 
ATOM     19  O   UNL     1      30.148  29.415  21.792  1.00  0.00    -0.332 OA
ATOM     20  C   UNL     1      30.510  26.803  21.448  1.00  0.00     0.145 C 
ATOM     21  C   UNL     1      29.856  27.221  22.772  1.00  0.00     0.142 C 
BRANCH  17  22
ATOM     22  O   UNL     1      30.925  29.178  19.712  1.00  0.00    -0.357 OA
ATOM     23  H   UNL     1      29.957  29.052  19.586  1.00  0.00     0.214 HD
ENDBRANCH  17  22
BRANCH  17  24
ATOM     24  C   UNL     1      32.415  29.974  21.311  1.00  0.00     0.364 C 
ATOM     25  O   UNL     1      32.222  31.209  21.423  1.00  0.00    -0.246 OA
BRANCH  24  26
ATOM     26  O   UNL     1      33.726  29.535  21.444  1.00  0.00    -0.477 OA
ATOM     27  H   UNL     1      34.186  29.635  22.362  1.00  0.00     0.296 HD
ENDBRANCH  24  26
ENDBRANCH  17  24
BRANCH  20  28
ATOM     28  O   UNL     1      29.653  26.954  20.379  1.00  0.00    -0.391 OA
ATOM     29  H   UNL     1      29.647  26.105  19.869  1.00  0.00     0.211 HD
ENDBRANCH  20  28
BRANCH  21  30
ATOM     30  N   UNL     1      30.563  26.491  23.802  1.00  0.00    -0.348 N 
ATOM     31  C   UNL     1      29.869  25.481  24.510  1.00  0.00     0.217 C 
ATOM     32  H   UNL     1      31.569  26.686  24.036  1.00  0.00     0.163 HD
ATOM     33  C   UNL     1      30.565  24.703  25.582  1.00  0.00     0.114 C 
ATOM     34  O   UNL     1      28.677  25.236  24.244  1.00  0.00    -0.275 OA
ENDBRANCH  21  30
ENDBRANCH  15  16
BRANCH  15  35
ATOM     35  O   UNL     1      27.950  28.158  24.096  1.00  0.00    -0.388 OA
ATOM     36  H   UNL     1      27.458  27.724  23.377  1.00  0.00     0.211 HD
ENDBRANCH  15  35
ENDBRANCH  14  15
BRANCH  14  37
ATOM     37  O   UNL     1      28.096  31.390  23.127  1.00  0.00    -0.388 OA
ATOM     38  H   UNL     1      27.578  31.990  22.559  1.00  0.00     0.211 HD
ENDBRANCH  14  37
ENDBRANCH  13  14
ENDBRANCH  10  13
ENDBRANCH   8   9
ENDBRANCH   7   8
ENDBRANCH   3   7
ENDBRANCH   1   2
BRANCH   1  39
ATOM     39  C   UNL     1      28.530  32.178  16.195  1.00  0.00     0.024 C 
BRANCH  39  40
ATOM     40  C   UNL     1      29.465  32.949  15.307  1.00  0.00     0.002 C 
BRANCH  40  41
ATOM     41  C   UNL     1      30.852  32.359  15.279  1.00  0.00     0.000 C 
BRANCH  41  42
ATOM     42  C   UNL     1      31.852  33.377  15.821  1.00  0.00     0.000 C 
BRANCH  42  43
ATOM     43  C   UNL     1      31.275  34.759  15.655  1.00  0.00     0.000 C 
BRANCH  43  44
ATOM     44  C   UNL     1      31.332  35.540  16.936  1.00  0.00     0.000 C 
BRANCH  44  45
ATOM     45  C   UNL     1      32.223  34.865  17.925  1.00  0.00     0.001 C 
BRANCH  45  46
ATOM     46  C   UNL     1      31.520  34.693  19.269  1.00  0.00     0.012 C 
BRANCH  46  47
ATOM     47  C   UNL     1      30.078  34.293  19.108  1.00  0.00     0.122 C 
BRANCH  47  48
ATOM     48  C   UNL     1      29.978  32.874  19.572  1.00  0.00     0.303 C 
ATOM     49  O   UNL     1      29.272  32.514  20.537  1.00  0.00    -0.252 OA
BRANCH  48  50
ATOM     50  O   UNL     1      30.703  31.888  18.899  1.00  0.00    -0.481 OA
ATOM     51  H   UNL     1      31.237  32.146  18.088  1.00  0.00     0.296 HD
ENDBRANCH  48  50
ENDBRANCH  47  48
ENDBRANCH  46  47
ENDBRANCH  45  46
ENDBRANCH  44  45
ENDBRANCH  43  44
ENDBRANCH  42  43
ENDBRANCH  41  42
ENDBRANCH  40  41
ENDBRANCH  39  40
ENDBRANCH   1  39
TORSDOF 26
BEGIN_RES LYS A 131
REMARK  4 active torsions:
REMARK  status: ('A' for Active; 'I' for Inactive)
REMARK    1  A    between atoms: CA   and  CB  
REMARK    2  A    between atoms: CB   and  CG  
REMARK    3  A    between atoms: CG   and  CD  
REMARK    4  A    between atoms: CD   and  CE  
ROOT
ATOM      1  CA  LYS A 131      29.867  25.555  16.977  1.00 20.52     0.186 C 
ENDROOT
BRANCH   1   2
ATOM      2  CB  LYS A 131      28.345  25.722  17.026  1.00 20.94     0.034 C 
BRANCH   2   3
ATOM      3  CG  LYS A 131      27.599  24.479  16.565  1.00 22.96     0.005 C 
BRANCH   3   4
ATOM      4  CD  LYS A 131      27.193  23.603  17.717  1.00 24.33     0.041 C 
BRANCH   4   5
ATOM      5  CE  LYS A 131      25.706  23.280  17.612  1.00 26.91     0.338 C 
ATOM      6  NZ  LYS A 131      24.982  24.384  16.940  1.00 27.40     0.618 N 
ENDBRANCH   4   5
ENDBRANCH   3   4
ENDBRANCH   2   3
ENDBRANCH   1   2
END_RES LYS A 131
BEGIN_RES LYS A 135
REMARK  4 active torsions:
REMARK  status: ('A' for Active; 'I' for Inactive)
REMARK    5  A    between atoms: CA   and  CB  
REMARK    6  A    between atoms: CB   and  CG  
REMARK    7  A    between atoms: CG   and  CD  
REMARK    8  A    between atoms: CD   and  CE  
ROOT
ATOM      7  CA  LYS A 135      33.193  34.663   9.290  1.00 25.02     0.186 C 
ENDROOT
BRANCH   7   8
ATOM      8  CB  LYS A 135      32.060  35.360  10.034  1.00 26.63     0.034 C 
BRANCH   8   9
ATOM      9  CG  LYS A 135      30.728  35.256   9.337  1.00 29.45     0.005 C 
BRANCH   9  10
ATOM     10  CD  LYS A 135      30.165  36.638   9.045  1.00 32.00     0.041 C 
BRANCH  10  11
ATOM     11  CE  LYS A 135      29.147  36.573   7.923  1.00 34.25     0.338 C 
ATOM     12  NZ  LYS A 135      28.337  37.821   7.860  1.00 35.99     0.618 N 
ENDBRANCH  10  11
ENDBRANCH   9  10
ENDBRANCH   8   9
ENDBRANCH   7   8
END_RES LYS A 135
