REMARK VINA RESULT:    -4.203      2.737      7.792
REMARK INTER + INTRA:         -13.060
REMARK INTER:                  -6.957
REMARK INTRA:                  -6.104
REMARK UNBOUND:                -5.786
REMARK SMILES CC(=O)N[C@@H]1[C@@H](O)C[C@](O)(C(=O)O)O[C@H]1C(O)[C@H](O)CNC(=O)OCc1cn(C2CCN(C)CC2)nn1
REMARK SMILES IDX 20 1 18 2 16 3 15 4 9 5 8 6 14 7 6 8 5 9 10 10 11 12 12 13
REMARK SMILES IDX 13 14 7 16 4 18 2 19 1 21 3 22 17 23 19 25 21 27 22 28 23 30
REMARK SMILES IDX 24 31 25 32 26 33 27 34 37 35 28 36 36 37 29 38 30 39 35 40
REMARK SMILES IDX 31 41 34 42 32 43 33 44
REMARK H PARENT 10 11 13 15 7 17 4 20 17 24 19 26 21 29
REMARK Flexibility Score: inf
ROOT
ATOM      1  C   UNL     1      30.026  34.772  20.892  1.00  0.00     0.154 C 
ENDROOT
BRANCH   1   2
ATOM      2  C   UNL     1      29.169  34.814  19.671  1.00  0.00     0.165 C 
BRANCH   2   3
ATOM      3  C   UNL     1      29.978  34.949  18.397  1.00  0.00     0.176 C 
BRANCH   3   4
ATOM      4  C   UNL     1      29.796  33.711  17.546  1.00  0.00     0.178 C 
ATOM      5  C   UNL     1      29.505  31.395  17.620  1.00  0.00     0.269 C 
ATOM      6  C   UNL     1      30.518  31.208  16.532  1.00  0.00     0.112 C 
ATOM      7  O   UNL     1      29.542  32.591  18.273  1.00  0.00    -0.332 OA
ATOM      8  C   UNL     1      30.635  32.436  15.670  1.00  0.00     0.145 C 
ATOM      9  C   UNL     1      30.953  33.601  16.604  1.00  0.00     0.142 C 
BRANCH   5  10
ATOM     10  O   UNL     1      29.658  30.314  18.533  1.00  0.00    -0.357 OA
ATOM     11  H   UNL     1      29.240  29.490  18.181  1.00  0.00     0.214 HD
ENDBRANCH   5  10
BRANCH   5  12
ATOM     12  C   UNL     1      28.152  31.259  17.023  1.00  0.00     0.364 C 
ATOM     13  O   UNL     1      27.186  31.897  17.511  1.00  0.00    -0.246 OA
BRANCH  12  14
ATOM     14  O   UNL     1      27.856  30.457  15.931  1.00  0.00    -0.477 OA
ATOM     15  H   UNL     1      26.909  30.141  15.722  1.00  0.00     0.296 HD
ENDBRANCH  12  14
ENDBRANCH   5  12
BRANCH   8  16
ATOM     16  O   UNL     1      31.657  32.308  14.725  1.00  0.00    -0.391 OA
ATOM     17  H   UNL     1      32.064  31.414  14.732  1.00  0.00     0.211 HD
ENDBRANCH   8  16
BRANCH   9  18
ATOM     18  N   UNL     1      30.994  34.779  15.726  1.00  0.00    -0.348 N 
ATOM     19  C   UNL     1      32.149  35.576  15.594  1.00  0.00     0.217 C 
ATOM     20  H   UNL     1      30.134  34.995  15.207  1.00  0.00     0.163 HD
ATOM     21  C   UNL     1      32.174  36.779  14.690  1.00  0.00     0.114 C 
ATOM     22  O   UNL     1      33.172  35.261  16.254  1.00  0.00    -0.275 OA
ENDBRANCH   9  18
ENDBRANCH   3   4
BRANCH   3  23
ATOM     23  O   UNL     1      31.293  35.177  18.730  1.00  0.00    -0.388 OA
ATOM     24  H   UNL     1      31.888  34.526  18.279  1.00  0.00     0.211 HD
ENDBRANCH   3  23
ENDBRANCH   2   3
BRANCH   2  25
ATOM     25  O   UNL     1      28.331  35.950  19.763  1.00  0.00    -0.388 OA
ATOM     26  H   UNL     1      27.560  35.771  20.363  1.00  0.00     0.211 HD
ENDBRANCH   2  25
ENDBRANCH   1   2
BRANCH   1  27
ATOM     27  N   UNL     1      30.406  33.399  21.144  1.00  0.00    -0.319 N 
ATOM     28  C   UNL     1      31.748  32.933  21.193  1.00  0.00     0.407 C 
ATOM     29  H   UNL     1      29.679  32.639  21.312  1.00  0.00     0.167 HD
ATOM     30  O   UNL     1      32.675  33.737  21.013  1.00  0.00    -0.225 OA
BRANCH  28  31
ATOM     31  O   UNL     1      32.064  31.603  21.437  1.00  0.00    -0.443 OA
BRANCH  31  32
ATOM     32  C   UNL     1      31.359  30.863  22.414  1.00  0.00     0.294 C 
BRANCH  32  33
ATOM     33  C   UNL     1      30.601  29.751  21.786  1.00  0.00     0.120 A 
ATOM     34  C   UNL     1      29.268  29.470  21.887  1.00  0.00     0.138 A 
ATOM     35  N   UNL     1      31.115  28.799  20.986  1.00  0.00    -0.132 NA
ATOM     36  N   UNL     1      28.996  28.372  21.162  1.00  0.00    -0.249 N 
ATOM     37  N   UNL     1      30.156  27.988  20.622  1.00  0.00    -0.067 NA
BRANCH  36  38
ATOM     38  C   UNL     1      27.699  27.751  21.009  1.00  0.00     0.111 C 
ATOM     39  C   UNL     1      27.602  26.986  19.708  1.00  0.00     0.043 C 
ATOM     40  C   UNL     1      26.590  28.745  21.175  1.00  0.00     0.043 C 
ATOM     41  C   UNL     1      27.232  27.873  18.543  1.00  0.00     0.086 C 
ATOM     42  C   UNL     1      26.340  29.589  19.965  1.00  0.00     0.086 C 
ATOM     43  N   UNL     1      26.130  28.742  18.831  1.00  0.00    -0.306 NA
ATOM     44  C   UNL     1      24.881  28.048  18.965  1.00  0.00     0.105 C 
ENDBRANCH  36  38
ENDBRANCH  32  33
ENDBRANCH  31  32
ENDBRANCH  28  31
ENDBRANCH   1  27
TORSDOF 15
BEGIN_RES LYS A 131
REMARK  4 active torsions:
REMARK  status: ('A' for Active; 'I' for Inactive)
REMARK    1  A    between atoms: CA   and  CB  
REMARK    2  A    between atoms: CB   and  CG  
REMARK    3  A    between atoms: CG   and  CD  
REMARK    4  A    between atoms: CD   and  CE  
ROOT
ATOM      1  CA  LYS A 131      29.867  25.555  16.977  1.00 20.52     0.186 C 
ENDROOT
BRANCH   1   2
ATOM      2  CB  LYS A 131      28.345  25.722  17.026  1.00 20.94     0.034 C 
BRANCH   2   3
ATOM      3  CG  LYS A 131      27.599  24.453  16.643  1.00 22.96     0.005 C 
BRANCH   3   4
ATOM      4  CD  LYS A 131      27.005  23.762  17.839  1.00 24.33     0.041 C 
BRANCH   4   5
ATOM      5  CE  LYS A 131      25.657  24.391  18.173  1.00 26.91     0.338 C 
ATOM      6  NZ  LYS A 131      24.750  24.328  17.003  1.00 27.40     0.618 N 
ENDBRANCH   4   5
ENDBRANCH   3   4
ENDBRANCH   2   3
ENDBRANCH   1   2
END_RES LYS A 131
BEGIN_RES LYS A 135
REMARK  4 active torsions:
REMARK  status: ('A' for Active; 'I' for Inactive)
REMARK    5  A    between atoms: CA   and  CB  
REMARK    6  A    between atoms: CB   and  CG  
REMARK    7  A    between atoms: CG   and  CD  
REMARK    8  A    between atoms: CD   and  CE  
ROOT
ATOM      7  CA  LYS A 135      33.193  34.663   9.290  1.00 25.02     0.186 C 
ENDROOT
BRANCH   7   8
ATOM      8  CB  LYS A 135      32.060  35.360  10.034  1.00 26.63     0.034 C 
BRANCH   8   9
ATOM      9  CG  LYS A 135      30.690  34.878   9.634  1.00 29.45     0.005 C 
BRANCH   9  10
ATOM     10  CD  LYS A 135      29.622  35.493  10.525  1.00 32.00     0.041 C 
BRANCH  10  11
ATOM     11  CE  LYS A 135      28.441  34.553  10.669  1.00 34.25     0.338 C 
ATOM     12  NZ  LYS A 135      28.205  33.792   9.411  1.00 35.99     0.618 N 
ENDBRANCH  10  11
ENDBRANCH   9  10
ENDBRANCH   8   9
ENDBRANCH   7   8
END_RES LYS A 135
