REMARK VINA RESULT:    -5.332      2.366      4.343
REMARK INTER + INTRA:         -17.241
REMARK INTER:                 -11.250
REMARK INTRA:                  -5.991
REMARK UNBOUND:                -6.299
REMARK SMILES CC(=O)N[C@@H]1[C@@H](O)C[C@](O)(C(=O)O)O[C@H]1C(O)[C@H](O)CNC(=O)OCc1cn(C[C@@H](C(=O)O)C(c2ccccc2)c2ccccc2)nn1
REMARK SMILES IDX 21 1 22 2 23 3 20 5 18 6 16 7 15 8 9 9 8 10 14 11 6 12 5 13
REMARK SMILES IDX 10 14 11 16 12 17 13 18 7 20 4 22 2 23 1 25 3 26 17 27 19 29
REMARK SMILES IDX 24 31 25 32 26 33 27 34 48 35 28 36 47 37 29 38 30 39 31 40
REMARK SMILES IDX 32 41 33 42 34 44 35 45 36 46 40 47 37 48 39 49 38 50 41 51
REMARK SMILES IDX 42 52 46 53 43 54 45 55 44 56
REMARK H PARENT 21 4 10 15 13 19 7 21 4 24 17 28 19 30 33 43
REMARK Flexibility Score: inf
ROOT
ATOM      1  N   UNL     1      30.413  36.382  18.446  1.00  0.00    -0.319 N 
ATOM      2  C   UNL     1      30.979  37.389  17.622  1.00  0.00     0.407 C 
ATOM      3  O   UNL     1      32.150  37.806  17.857  1.00  0.00    -0.225 OA
ATOM      4  H   UNL     1      29.427  36.087  18.182  1.00  0.00     0.167 HD
ENDROOT
BRANCH   1   5
ATOM      5  C   UNL     1      31.105  35.786  19.564  1.00  0.00     0.154 C 
BRANCH   5   6
ATOM      6  C   UNL     1      31.944  34.574  19.155  1.00  0.00     0.165 C 
BRANCH   6   7
ATOM      7  C   UNL     1      30.984  33.433  19.001  1.00  0.00     0.176 C 
BRANCH   7   8
ATOM      8  C   UNL     1      30.872  32.932  17.589  1.00  0.00     0.178 C 
ATOM      9  C   UNL     1      29.977  33.572  15.549  1.00  0.00     0.269 C 
ATOM     10  C   UNL     1      30.392  32.207  15.066  1.00  0.00     0.112 C 
ATOM     11  O   UNL     1      30.518  33.949  16.747  1.00  0.00    -0.332 OA
ATOM     12  C   UNL     1      30.218  31.139  16.090  1.00  0.00     0.145 C 
ATOM     13  C   UNL     1      29.903  31.783  17.439  1.00  0.00     0.142 C 
BRANCH   9  14
ATOM     14  O   UNL     1      28.580  33.598  15.596  1.00  0.00    -0.357 OA
ATOM     15  H   UNL     1      28.216  32.708  15.855  1.00  0.00     0.214 HD
ENDBRANCH   9  14
BRANCH   9  16
ATOM     16  C   UNL     1      30.413  34.547  14.519  1.00  0.00     0.364 C 
ATOM     17  O   UNL     1      29.968  34.445  13.350  1.00  0.00    -0.246 OA
BRANCH  16  18
ATOM     18  O   UNL     1      31.295  35.566  14.809  1.00  0.00    -0.477 OA
ATOM     19  H   UNL     1      32.222  35.579  14.362  1.00  0.00     0.296 HD
ENDBRANCH  16  18
ENDBRANCH   9  16
BRANCH  12  20
ATOM     20  O   UNL     1      29.324  30.152  15.758  1.00  0.00    -0.391 OA
ATOM     21  H   UNL     1      28.596  30.090  16.430  1.00  0.00     0.211 HD
ENDBRANCH  12  20
BRANCH  13  22
ATOM     22  N   UNL     1      30.076  30.806  18.505  1.00  0.00    -0.348 N 
ATOM     23  C   UNL     1      28.931  30.357  19.203  1.00  0.00     0.217 C 
ATOM     24  H   UNL     1      31.025  30.466  18.724  1.00  0.00     0.163 HD
ATOM     25  C   UNL     1      29.048  29.366  20.294  1.00  0.00     0.114 C 
ATOM     26  O   UNL     1      27.791  30.795  18.907  1.00  0.00    -0.275 OA
ENDBRANCH  13  22
ENDBRANCH   7   8
BRANCH   7  27
ATOM     27  O   UNL     1      29.770  33.740  19.578  1.00  0.00    -0.388 OA
ATOM     28  H   UNL     1      29.861  34.270  20.420  1.00  0.00     0.211 HD
ENDBRANCH   7  27
ENDBRANCH   6   7
BRANCH   6  29
ATOM     29  O   UNL     1      32.831  34.346  20.221  1.00  0.00    -0.388 OA
ATOM     30  H   UNL     1      32.241  34.320  21.033  1.00  0.00     0.211 HD
ENDBRANCH   6  29
ENDBRANCH   5   6
ENDBRANCH   1   5
BRANCH   2  31
ATOM     31  O   UNL     1      30.278  37.929  16.562  1.00  0.00    -0.443 OA
BRANCH  31  32
ATOM     32  C   UNL     1      28.868  37.719  16.413  1.00  0.00     0.294 C 
BRANCH  32  33
ATOM     33  C   UNL     1      28.514  37.528  14.989  1.00  0.00     0.120 A 
ATOM     34  C   UNL     1      27.340  36.917  14.522  1.00  0.00     0.138 A 
ATOM     35  N   UNL     1      29.175  37.863  13.876  1.00  0.00    -0.132 NA
ATOM     36  N   UNL     1      27.327  36.905  13.190  1.00  0.00    -0.251 N 
ATOM     37  N   UNL     1      28.481  37.500  12.811  1.00  0.00    -0.067 NA
BRANCH  36  38
ATOM     38  C   UNL     1      26.385  36.435  12.216  1.00  0.00     0.162 C 
BRANCH  38  39
ATOM     39  C   UNL     1      26.517  35.011  11.790  1.00  0.00     0.132 C 
BRANCH  39  40
ATOM     40  C   UNL     1      25.678  34.129  12.603  1.00  0.00     0.309 C 
ATOM     41  O   UNL     1      24.553  33.700  12.293  1.00  0.00    -0.252 OA
BRANCH  40  42
ATOM     42  O   UNL     1      26.145  33.699  13.863  1.00  0.00    -0.481 OA
ATOM     43  H   UNL     1      25.522  33.782  14.671  1.00  0.00     0.296 HD
ENDBRANCH  40  42
ENDBRANCH  39  40
BRANCH  39  44
ATOM     44  C   UNL     1      26.264  34.836  10.303  1.00  0.00     0.065 C 
BRANCH  44  45
ATOM     45  C   UNL     1      27.531  34.771   9.539  1.00  0.00    -0.040 A 
ATOM     46  C   UNL     1      28.739  34.432  10.160  1.00  0.00     0.004 A 
ATOM     47  C   UNL     1      27.586  35.039   8.184  1.00  0.00     0.004 A 
ATOM     48  C   UNL     1      29.918  34.370   9.450  1.00  0.00     0.000 A 
ATOM     49  C   UNL     1      28.750  34.982   7.464  1.00  0.00     0.000 A 
ATOM     50  C   UNL     1      29.928  34.648   8.082  1.00  0.00     0.000 A 
ENDBRANCH  44  45
BRANCH  44  51
ATOM     51  C   UNL     1      25.416  35.881   9.720  1.00  0.00    -0.040 A 
ATOM     52  C   UNL     1      24.086  35.550   9.430  1.00  0.00     0.004 A 
ATOM     53  C   UNL     1      25.851  37.160   9.445  1.00  0.00     0.004 A 
ATOM     54  C   UNL     1      23.259  36.503   8.883  1.00  0.00     0.000 A 
ATOM     55  C   UNL     1      25.025  38.116   8.897  1.00  0.00     0.000 A 
ATOM     56  C   UNL     1      23.703  37.796   8.606  1.00  0.00     0.000 A 
ENDBRANCH  44  51
ENDBRANCH  39  44
ENDBRANCH  38  39
ENDBRANCH  36  38
ENDBRANCH  32  33
ENDBRANCH  31  32
ENDBRANCH   2  31
TORSDOF 21
BEGIN_RES LYS A 131
REMARK  4 active torsions:
REMARK  status: ('A' for Active; 'I' for Inactive)
REMARK    1  A    between atoms: CA   and  CB  
REMARK    2  A    between atoms: CB   and  CG  
REMARK    3  A    between atoms: CG   and  CD  
REMARK    4  A    between atoms: CD   and  CE  
ROOT
ATOM      1  CA  LYS A 131      29.867  25.555  16.977  1.00 20.52     0.186 C 
ENDROOT
BRANCH   1   2
ATOM      2  CB  LYS A 131      28.345  25.722  17.026  1.00 20.94     0.034 C 
BRANCH   2   3
ATOM      3  CG  LYS A 131      27.602  24.400  16.912  1.00 22.96     0.005 C 
BRANCH   3   4
ATOM      4  CD  LYS A 131      26.177  24.509  17.381  1.00 24.33     0.041 C 
BRANCH   4   5
ATOM      5  CE  LYS A 131      25.725  23.170  17.954  1.00 26.91     0.338 C 
ATOM      6  NZ  LYS A 131      25.463  23.290  19.408  1.00 27.40     0.618 N 
ENDBRANCH   4   5
ENDBRANCH   3   4
ENDBRANCH   2   3
ENDBRANCH   1   2
END_RES LYS A 131
BEGIN_RES LYS A 135
REMARK  4 active torsions:
REMARK  status: ('A' for Active; 'I' for Inactive)
REMARK    5  A    between atoms: CA   and  CB  
REMARK    6  A    between atoms: CB   and  CG  
REMARK    7  A    between atoms: CG   and  CD  
REMARK    8  A    between atoms: CD   and  CE  
ROOT
ATOM      7  CA  LYS A 135      33.193  34.663   9.290  1.00 25.02     0.186 C 
ENDROOT
BRANCH   7   8
ATOM      8  CB  LYS A 135      32.060  35.360  10.034  1.00 26.63     0.034 C 
BRANCH   8   9
ATOM      9  CG  LYS A 135      32.489  35.984  11.337  1.00 29.45     0.005 C 
BRANCH   9  10
ATOM     10  CD  LYS A 135      31.909  37.383  11.479  1.00 32.00     0.041 C 
BRANCH  10  11
ATOM     11  CE  LYS A 135      31.280  37.833  10.174  1.00 34.25     0.338 C 
ATOM     12  NZ  LYS A 135      31.996  39.013   9.613  1.00 35.99     0.618 N 
ENDBRANCH  10  11
ENDBRANCH   9  10
ENDBRANCH   8   9
ENDBRANCH   7   8
END_RES LYS A 135
