REMARK VINA RESULT:    -5.835      1.669      2.223
REMARK INTER + INTRA:         -15.778
REMARK INTER:                  -8.383
REMARK INTRA:                  -7.394
REMARK UNBOUND:                -5.337
REMARK SMILES CC(=O)N[C@@H]1[C@@H](O)C[C@](O)(C(=O)O)O[C@H]1C(O)[C@H](O)CNC(=O)OCc1cn(CC2=CC[C@H]3C[C@@H]2C3(C)C)nn1
REMARK SMILES IDX 21 1 22 2 23 3 20 5 18 6 16 7 15 8 9 9 8 10 14 11 6 12 5 13
REMARK SMILES IDX 10 14 11 16 12 17 13 18 7 20 4 22 2 23 1 25 3 26 17 27 19 29
REMARK SMILES IDX 24 31 25 32 26 33 27 34 40 35 28 36 39 37 29 38 30 39 31 40
REMARK SMILES IDX 35 41 32 42 34 43 36 44 33 45 37 46 38 47
REMARK H PARENT 21 4 10 15 13 19 7 21 4 24 17 28 19 30
REMARK Flexibility Score: inf
ROOT
ATOM      1  N   UNL     1      28.007  28.012  18.774  1.00  0.00    -0.319 N 
ATOM      2  C   UNL     1      26.829  28.184  17.968  1.00  0.00     0.407 C 
ATOM      3  O   UNL     1      25.744  27.696  18.379  1.00  0.00    -0.225 OA
ATOM      4  H   UNL     1      28.907  28.414  18.439  1.00  0.00     0.167 HD
ENDROOT
BRANCH   1   5
ATOM      5  C   UNL     1      27.922  27.288  20.024  1.00  0.00     0.154 C 
BRANCH   5   6
ATOM      6  C   UNL     1      29.083  27.701  20.884  1.00  0.00     0.165 C 
BRANCH   6   7
ATOM      7  C   UNL     1      29.824  28.891  20.315  1.00  0.00     0.176 C 
BRANCH   7   8
ATOM      8  C   UNL     1      29.664  30.029  21.296  1.00  0.00     0.178 C 
ATOM      9  C   UNL     1      30.237  31.948  20.132  1.00  0.00     0.269 C 
ATOM     10  C   UNL     1      31.389  32.286  21.052  1.00  0.00     0.112 C 
ATOM     11  O   UNL     1      29.253  31.202  20.734  1.00  0.00    -0.332 OA
ATOM     12  C   UNL     1      31.121  31.641  22.388  1.00  0.00     0.145 C 
ATOM     13  C   UNL     1      30.914  30.162  22.136  1.00  0.00     0.142 C 
BRANCH   9  14
ATOM     14  O   UNL     1      30.731  31.353  18.967  1.00  0.00    -0.357 OA
ATOM     15  H   UNL     1      31.486  31.931  18.669  1.00  0.00     0.214 HD
ENDBRANCH   9  14
BRANCH   9  16
ATOM     16  C   UNL     1      29.624  33.245  19.720  1.00  0.00     0.364 C 
ATOM     17  O   UNL     1      29.781  34.271  20.466  1.00  0.00    -0.246 OA
BRANCH  16  18
ATOM     18  O   UNL     1      28.889  33.392  18.563  1.00  0.00    -0.477 OA
ATOM     19  H   UNL     1      28.539  32.590  18.045  1.00  0.00     0.296 HD
ENDBRANCH  16  18
ENDBRANCH   9  16
BRANCH  12  20
ATOM     20  O   UNL     1      32.176  31.791  23.268  1.00  0.00    -0.391 OA
ATOM     21  H   UNL     1      32.249  32.755  23.483  1.00  0.00     0.211 HD
ENDBRANCH  12  20
BRANCH  13  22
ATOM     22  N   UNL     1      30.848  29.415  23.365  1.00  0.00    -0.348 N 
ATOM     23  C   UNL     1      31.592  28.222  23.556  1.00  0.00     0.217 C 
ATOM     24  H   UNL     1      30.231  29.775  24.125  1.00  0.00     0.163 HD
ATOM     25  C   UNL     1      31.464  27.513  24.858  1.00  0.00     0.114 C 
ATOM     26  O   UNL     1      32.336  27.782  22.644  1.00  0.00    -0.275 OA
ENDBRANCH  13  22
ENDBRANCH   7   8
BRANCH   7  27
ATOM     27  O   UNL     1      31.185  28.618  20.201  1.00  0.00    -0.388 OA
ATOM     28  H   UNL     1      31.448  27.779  20.614  1.00  0.00     0.211 HD
ENDBRANCH   7  27
ENDBRANCH   6   7
BRANCH   6  29
ATOM     29  O   UNL     1      29.970  26.604  20.915  1.00  0.00    -0.388 OA
ATOM     30  H   UNL     1      30.895  26.902  20.691  1.00  0.00     0.211 HD
ENDBRANCH   6  29
ENDBRANCH   5   6
ENDBRANCH   1   5
BRANCH   2  31
ATOM     31  O   UNL     1      26.833  28.856  16.777  1.00  0.00    -0.443 OA
BRANCH  31  32
ATOM     32  C   UNL     1      26.642  30.254  16.653  1.00  0.00     0.294 C 
BRANCH  32  33
ATOM     33  C   UNL     1      27.915  30.913  16.297  1.00  0.00     0.120 A 
ATOM     34  C   UNL     1      28.134  31.945  15.416  1.00  0.00     0.138 A 
ATOM     35  N   UNL     1      29.118  30.599  16.799  1.00  0.00    -0.132 NA
ATOM     36  N   UNL     1      29.467  32.240  15.397  1.00  0.00    -0.248 N 
ATOM     37  N   UNL     1      30.035  31.400  16.251  1.00  0.00    -0.067 NA
BRANCH  36  38
ATOM     38  C   UNL     1      30.077  33.268  14.590  1.00  0.00     0.177 C 
BRANCH  38  39
ATOM     39  C   UNL     1      30.668  34.353  15.452  1.00  0.00    -0.049 C 
ATOM     40  C   UNL     1      29.936  35.387  15.857  1.00  0.00    -0.025 C 
ATOM     41  C   UNL     1      32.080  34.307  15.877  1.00  0.00     0.023 C 
ATOM     42  C   UNL     1      30.497  36.290  16.899  1.00  0.00     0.031 C 
ATOM     43  C   UNL     1      32.068  34.459  17.405  1.00  0.00     0.013 C 
ATOM     44  C   UNL     1      32.662  35.706  15.829  1.00  0.00    -0.026 C 
ATOM     45  C   UNL     1      31.933  35.953  17.159  1.00  0.00    -0.000 C 
ATOM     46  C   UNL     1      34.148  35.756  16.045  1.00  0.00     0.012 C 
ATOM     47  C   UNL     1      32.208  36.564  14.698  1.00  0.00     0.012 C 
ENDBRANCH  38  39
ENDBRANCH  36  38
ENDBRANCH  32  33
ENDBRANCH  31  32
ENDBRANCH   2  31
TORSDOF 16
BEGIN_RES LYS A 131
REMARK  4 active torsions:
REMARK  status: ('A' for Active; 'I' for Inactive)
REMARK    1  A    between atoms: CA   and  CB  
REMARK    2  A    between atoms: CB   and  CG  
REMARK    3  A    between atoms: CG   and  CD  
REMARK    4  A    between atoms: CD   and  CE  
ROOT
ATOM      1  CA  LYS A 131      29.867  25.555  16.977  1.00 20.52     0.186 C 
ENDROOT
BRANCH   1   2
ATOM      2  CB  LYS A 131      28.345  25.722  17.026  1.00 20.94     0.034 C 
BRANCH   2   3
ATOM      3  CG  LYS A 131      27.602  24.397  16.943  1.00 22.96     0.005 C 
BRANCH   3   4
ATOM      4  CD  LYS A 131      26.514  24.292  17.974  1.00 24.33     0.041 C 
BRANCH   4   5
ATOM      5  CE  LYS A 131      25.256  23.717  17.331  1.00 26.91     0.338 C 
ATOM      6  NZ  LYS A 131      24.266  24.790  17.077  1.00 27.40     0.618 N 
ENDBRANCH   4   5
ENDBRANCH   3   4
ENDBRANCH   2   3
ENDBRANCH   1   2
END_RES LYS A 131
BEGIN_RES LYS A 135
REMARK  4 active torsions:
REMARK  status: ('A' for Active; 'I' for Inactive)
REMARK    5  A    between atoms: CA   and  CB  
REMARK    6  A    between atoms: CB   and  CG  
REMARK    7  A    between atoms: CG   and  CD  
REMARK    8  A    between atoms: CD   and  CE  
ROOT
ATOM      7  CA  LYS A 135      33.193  34.663   9.290  1.00 25.02     0.186 C 
ENDROOT
BRANCH   7   8
ATOM      8  CB  LYS A 135      32.060  35.360  10.034  1.00 26.63     0.034 C 
BRANCH   8   9
ATOM      9  CG  LYS A 135      30.779  35.437   9.245  1.00 29.45     0.005 C 
BRANCH   9  10
ATOM     10  CD  LYS A 135      30.221  34.045   8.989  1.00 32.00     0.041 C 
BRANCH  10  11
ATOM     11  CE  LYS A 135      28.724  34.018   9.229  1.00 34.25     0.338 C 
ATOM     12  NZ  LYS A 135      27.993  34.718   8.137  1.00 35.99     0.618 N 
ENDBRANCH  10  11
ENDBRANCH   9  10
ENDBRANCH   8   9
ENDBRANCH   7   8
END_RES LYS A 135
