REMARK VINA RESULT:    -6.008      4.293      8.324
REMARK INTER + INTRA:         -16.493
REMARK INTER:                 -10.506
REMARK INTRA:                  -5.986
REMARK UNBOUND:                -5.216
REMARK SMILES CC(=O)N[C@@H]1[C@@H](O)C[C@](O)(C(=O)O)O[C@H]1C(O)[C@H](O)CNC(=O)OCc1cn(-c2cc(C(=O)O)nc(-c3ccccc3)c2)nn1
REMARK SMILES IDX 21 1 22 2 23 3 20 5 18 6 16 7 15 8 9 9 8 10 14 11 6 12 5 13
REMARK SMILES IDX 10 14 11 16 12 17 13 18 7 20 4 22 2 23 1 25 3 26 17 27 19 29
REMARK SMILES IDX 24 31 25 32 26 33 27 34 45 35 28 36 44 37 29 38 30 39 43 40
REMARK SMILES IDX 31 41 36 42 35 43 32 44 33 45 34 46 37 48 38 49 42 50 39 51
REMARK SMILES IDX 41 52 40 53
REMARK H PARENT 21 4 10 15 13 19 7 21 4 24 17 28 19 30 34 47
REMARK Flexibility Score: inf
ROOT
ATOM      1  N   UNL     1      28.977  41.085   4.628  1.00  0.00    -0.319 N 
ATOM      2  C   UNL     1      27.854  41.653   5.308  1.00  0.00     0.407 C 
ATOM      3  O   UNL     1      28.060  42.603   6.106  1.00  0.00    -0.225 OA
ATOM      4  H   UNL     1      28.735  40.287   3.971  1.00  0.00     0.167 HD
ENDROOT
BRANCH   1   5
ATOM      5  C   UNL     1      30.329  41.542   4.807  1.00  0.00     0.154 C 
BRANCH   5   6
ATOM      6  C   UNL     1      31.210  40.440   5.313  1.00  0.00     0.165 C 
BRANCH   6   7
ATOM      7  C   UNL     1      31.115  40.419   6.833  1.00  0.00     0.176 C 
BRANCH   7   8
ATOM      8  C   UNL     1      30.460  39.161   7.287  1.00  0.00     0.178 C 
ATOM      9  C   UNL     1      28.502  37.942   6.986  1.00  0.00     0.269 C 
ATOM     10  C   UNL     1      29.319  36.912   7.756  1.00  0.00     0.112 C 
ATOM     11  O   UNL     1      29.241  39.026   6.587  1.00  0.00    -0.332 OA
ATOM     12  C   UNL     1      29.822  37.566   8.993  1.00  0.00     0.145 C 
ATOM     13  C   UNL     1      30.111  39.061   8.732  1.00  0.00     0.142 C 
BRANCH   9  14
ATOM     14  O   UNL     1      27.469  38.314   7.878  1.00  0.00    -0.357 OA
ATOM     15  H   UNL     1      27.863  39.025   8.447  1.00  0.00     0.214 HD
ENDBRANCH   9  14
BRANCH   9  16
ATOM     16  C   UNL     1      27.882  37.347   5.787  1.00  0.00     0.364 C 
ATOM     17  O   UNL     1      27.761  36.112   5.694  1.00  0.00    -0.246 OA
BRANCH  16  18
ATOM     18  O   UNL     1      27.430  38.149   4.762  1.00  0.00    -0.477 OA
ATOM     19  H   UNL     1      26.444  38.282   4.557  1.00  0.00     0.296 HD
ENDBRANCH  16  18
ENDBRANCH   9  16
BRANCH  12  20
ATOM     20  O   UNL     1      29.002  37.409  10.089  1.00  0.00    -0.391 OA
ATOM     21  H   UNL     1      28.146  37.003   9.830  1.00  0.00     0.211 HD
ENDBRANCH  12  20
BRANCH  13  22
ATOM     22  N   UNL     1      31.121  39.494   9.659  1.00  0.00    -0.348 N 
ATOM     23  C   UNL     1      30.906  40.626  10.528  1.00  0.00     0.217 C 
ATOM     24  H   UNL     1      32.010  38.993   9.721  1.00  0.00     0.163 HD
ATOM     25  C   UNL     1      31.911  41.102  11.491  1.00  0.00     0.114 C 
ATOM     26  O   UNL     1      29.779  41.194  10.407  1.00  0.00    -0.275 OA
ENDBRANCH  13  22
ENDBRANCH   7   8
BRANCH   7  27
ATOM     27  O   UNL     1      30.572  41.556   7.368  1.00  0.00    -0.388 OA
ATOM     28  H   UNL     1      30.580  42.345   6.797  1.00  0.00     0.211 HD
ENDBRANCH   7  27
ENDBRANCH   6   7
BRANCH   6  29
ATOM     29  O   UNL     1      32.521  40.806   4.943  1.00  0.00    -0.388 OA
ATOM     30  H   UNL     1      33.112  40.252   5.495  1.00  0.00     0.211 HD
ENDBRANCH   6  29
ENDBRANCH   5   6
ENDBRANCH   1   5
BRANCH   2  31
ATOM     31  O   UNL     1      26.575  41.163   5.088  1.00  0.00    -0.443 OA
BRANCH  31  32
ATOM     32  C   UNL     1      25.482  41.991   5.429  1.00  0.00     0.294 C 
BRANCH  32  33
ATOM     33  C   UNL     1      24.530  41.158   6.208  1.00  0.00     0.121 A 
ATOM     34  C   UNL     1      24.707  39.827   6.607  1.00  0.00     0.144 A 
ATOM     35  N   UNL     1      23.310  41.474   6.701  1.00  0.00    -0.131 NA
ATOM     36  N   UNL     1      23.630  39.411   7.297  1.00  0.00    -0.220 N 
ATOM     37  N   UNL     1      22.801  40.427   7.338  1.00  0.00    -0.062 NA
BRANCH  36  38
ATOM     38  C   UNL     1      23.495  38.087   7.851  1.00  0.00     0.071 A 
ATOM     39  C   UNL     1      22.280  37.456   7.922  1.00  0.00     0.064 A 
ATOM     40  C   UNL     1      24.610  37.411   8.333  1.00  0.00     0.057 A 
ATOM     41  C   UNL     1      22.116  36.190   8.446  1.00  0.00     0.151 A 
ATOM     42  C   UNL     1      24.461  36.153   8.857  1.00  0.00     0.073 A 
ATOM     43  N   UNL     1      23.230  35.592   8.895  1.00  0.00    -0.241 NA
BRANCH  41  44
ATOM     44  C   UNL     1      20.817  35.541   8.511  1.00  0.00     0.354 C 
ATOM     45  O   UNL     1      20.010  35.708   7.576  1.00  0.00    -0.245 OA
BRANCH  44  46
ATOM     46  O   UNL     1      20.460  34.746   9.579  1.00  0.00    -0.477 OA
ATOM     47  H   UNL     1      21.131  34.153  10.080  1.00  0.00     0.297 HD
ENDBRANCH  44  46
ENDBRANCH  41  44
BRANCH  42  48
ATOM     48  C   UNL     1      25.626  35.412   9.378  1.00  0.00     0.000 A 
ATOM     49  C   UNL     1      26.406  34.716   8.480  1.00  0.00     0.010 A 
ATOM     50  C   UNL     1      25.913  35.423  10.713  1.00  0.00     0.010 A 
ATOM     51  C   UNL     1      27.493  34.025   8.962  1.00  0.00     0.001 A 
ATOM     52  C   UNL     1      27.014  34.716  11.155  1.00  0.00     0.001 A 
ATOM     53  C   UNL     1      27.826  34.005  10.300  1.00  0.00     0.000 A 
ENDBRANCH  42  48
ENDBRANCH  36  38
ENDBRANCH  32  33
ENDBRANCH  31  32
ENDBRANCH   2  31
TORSDOF 18
BEGIN_RES LYS A 131
REMARK  4 active torsions:
REMARK  status: ('A' for Active; 'I' for Inactive)
REMARK    1  A    between atoms: CA   and  CB  
REMARK    2  A    between atoms: CB   and  CG  
REMARK    3  A    between atoms: CG   and  CD  
REMARK    4  A    between atoms: CD   and  CE  
ROOT
ATOM      1  CA  LYS A 131      29.867  25.555  16.977  1.00 20.52     0.186 C 
ENDROOT
BRANCH   1   2
ATOM      2  CB  LYS A 131      28.345  25.722  17.026  1.00 20.94     0.034 C 
BRANCH   2   3
ATOM      3  CG  LYS A 131      27.603  24.396  16.967  1.00 22.96     0.005 C 
BRANCH   3   4
ATOM      4  CD  LYS A 131      26.134  24.556  17.245  1.00 24.33     0.041 C 
BRANCH   4   5
ATOM      5  CE  LYS A 131      25.828  24.066  18.657  1.00 26.91     0.338 C 
ATOM      6  NZ  LYS A 131      25.770  25.207  19.601  1.00 27.40     0.618 N 
ENDBRANCH   4   5
ENDBRANCH   3   4
ENDBRANCH   2   3
ENDBRANCH   1   2
END_RES LYS A 131
BEGIN_RES LYS A 135
REMARK  4 active torsions:
REMARK  status: ('A' for Active; 'I' for Inactive)
REMARK    5  A    between atoms: CA   and  CB  
REMARK    6  A    between atoms: CB   and  CG  
REMARK    7  A    between atoms: CG   and  CD  
REMARK    8  A    between atoms: CD   and  CE  
ROOT
ATOM      7  CA  LYS A 135      33.193  34.663   9.290  1.00 25.02     0.186 C 
ENDROOT
BRANCH   7   8
ATOM      8  CB  LYS A 135      32.060  35.360  10.034  1.00 26.63     0.034 C 
BRANCH   8   9
ATOM      9  CG  LYS A 135      32.495  36.011  11.321  1.00 29.45     0.005 C 
BRANCH   9  10
ATOM     10  CD  LYS A 135      31.302  36.247  12.234  1.00 32.00     0.041 C 
BRANCH  10  11
ATOM     11  CE  LYS A 135      30.660  34.929  12.623  1.00 34.25     0.338 C 
ATOM     12  NZ  LYS A 135      31.118  34.486  13.969  1.00 35.99     0.618 N 
ENDBRANCH  10  11
ENDBRANCH   9  10
ENDBRANCH   8   9
ENDBRANCH   7   8
END_RES LYS A 135
