REMARK VINA RESULT:    -4.901      7.157     12.829
REMARK INTER + INTRA:         -15.037
REMARK INTER:                  -9.323
REMARK INTRA:                  -5.714
REMARK UNBOUND:                -6.554
REMARK SMILES CC(=O)N[C@@H]1[C@@H](O)C[C@](O)(C(=O)O)O[C@H]1C(O)[C@H](O)CNC(=O)OCc1cn(C23CC4CC(CC(C4)C2)C3)nn1
REMARK SMILES IDX 20 1 18 2 16 3 15 4 9 5 8 6 14 7 6 8 5 9 10 10 11 12 12 13
REMARK SMILES IDX 13 14 7 16 4 18 2 19 1 21 3 22 17 23 19 25 21 27 22 28 23 30
REMARK SMILES IDX 24 31 25 32 26 33 27 34 40 35 28 36 39 37 29 38 38 39 37 40
REMARK SMILES IDX 30 41 33 42 35 43 31 44 32 45 34 46 36 47
REMARK H PARENT 10 11 13 15 7 17 4 20 17 24 19 26 21 29
REMARK Flexibility Score: inf
ROOT
ATOM      1  C   UNL     1      22.159  35.870   9.106  1.00  0.00     0.154 C 
ENDROOT
BRANCH   1   2
ATOM      2  C   UNL     1      22.480  36.648   7.856  1.00  0.00     0.165 C 
BRANCH   2   3
ATOM      3  C   UNL     1      22.992  38.043   8.152  1.00  0.00     0.176 C 
BRANCH   3   4
ATOM      4  C   UNL     1      24.381  38.238   7.535  1.00  0.00     0.178 C 
ATOM      5  C   UNL     1      26.122  37.888   9.066  1.00  0.00     0.269 C 
ATOM      6  C   UNL     1      25.807  39.264   9.595  1.00  0.00     0.112 C 
ATOM      7  O   UNL     1      25.324  37.426   8.077  1.00  0.00    -0.332 OA
ATOM      8  C   UNL     1      25.656  40.214   8.458  1.00  0.00     0.145 C 
ATOM      9  C   UNL     1      24.750  39.668   7.387  1.00  0.00     0.142 C 
BRANCH   5  10
ATOM     10  O   UNL     1      25.953  37.026  10.175  1.00  0.00    -0.357 OA
ATOM     11  H   UNL     1      25.680  36.144   9.810  1.00  0.00     0.214 HD
ENDBRANCH   5  10
BRANCH   5  12
ATOM     12  C   UNL     1      27.568  37.872   8.730  1.00  0.00     0.364 C 
ATOM     13  O   UNL     1      27.985  37.633   7.564  1.00  0.00    -0.246 OA
BRANCH  12  14
ATOM     14  O   UNL     1      28.503  38.123   9.710  1.00  0.00    -0.477 OA
ATOM     15  H   UNL     1      28.248  38.307  10.682  1.00  0.00     0.296 HD
ENDBRANCH  12  14
ENDBRANCH   5  12
BRANCH   8  16
ATOM     16  O   UNL     1      25.173  41.433   8.986  1.00  0.00    -0.391 OA
ATOM     17  H   UNL     1      25.814  41.793   9.635  1.00  0.00     0.211 HD
ENDBRANCH   8  16
BRANCH   9  18
ATOM     18  N   UNL     1      25.370  39.854   6.082  1.00  0.00    -0.348 N 
ATOM     19  C   UNL     1      25.283  41.077   5.366  1.00  0.00     0.217 C 
ATOM     20  H   UNL     1      25.910  39.053   5.641  1.00  0.00     0.163 HD
ATOM     21  C   UNL     1      25.940  41.177   4.055  1.00  0.00     0.114 C 
ATOM     22  O   UNL     1      24.638  42.034   5.891  1.00  0.00    -0.275 OA
ENDBRANCH   9  18
ENDBRANCH   3   4
BRANCH   3  23
ATOM     23  O   UNL     1      22.119  39.028   7.802  1.00  0.00    -0.388 OA
ATOM     24  H   UNL     1      22.494  39.891   7.572  1.00  0.00     0.211 HD
ENDBRANCH   3  23
ENDBRANCH   2   3
BRANCH   2  25
ATOM     25  O   UNL     1      21.334  36.670   7.066  1.00  0.00    -0.388 OA
ATOM     26  H   UNL     1      20.597  36.193   7.566  1.00  0.00     0.211 HD
ENDBRANCH   2  25
ENDBRANCH   1   2
BRANCH   1  27
ATOM     27  N   UNL     1      23.425  35.519   9.726  1.00  0.00    -0.319 N 
ATOM     28  C   UNL     1      23.496  34.988  11.059  1.00  0.00     0.407 C 
ATOM     29  H   UNL     1      24.349  35.631   9.247  1.00  0.00     0.167 HD
ATOM     30  O   UNL     1      22.415  34.834  11.678  1.00  0.00    -0.225 OA
BRANCH  28  31
ATOM     31  O   UNL     1      24.685  34.652  11.659  1.00  0.00    -0.443 OA
BRANCH  31  32
ATOM     32  C   UNL     1      24.951  35.108  12.966  1.00  0.00     0.294 C 
BRANCH  32  33
ATOM     33  C   UNL     1      26.423  34.959  13.198  1.00  0.00     0.120 A 
ATOM     34  C   UNL     1      26.974  34.329  14.299  1.00  0.00     0.138 A 
ATOM     35  N   UNL     1      27.457  35.364  12.466  1.00  0.00    -0.132 NA
ATOM     36  N   UNL     1      28.293  34.382  14.184  1.00  0.00    -0.246 N 
ATOM     37  N   UNL     1      28.575  35.014  13.065  1.00  0.00    -0.066 NA
BRANCH  36  38
ATOM     38  C   UNL     1      29.234  33.822  15.158  1.00  0.00     0.065 C 
ATOM     39  C   UNL     1      28.493  32.696  15.867  1.00  0.00     0.034 C 
ATOM     40  C   UNL     1      29.668  34.863  16.143  1.00  0.00     0.034 C 
ATOM     41  C   UNL     1      30.447  33.293  14.433  1.00  0.00     0.034 C 
ATOM     42  C   UNL     1      29.421  32.049  16.877  1.00  0.00    -0.008 C 
ATOM     43  C   UNL     1      30.547  34.198  17.178  1.00  0.00    -0.008 C 
ATOM     44  C   UNL     1      31.366  32.635  15.438  1.00  0.00    -0.008 C 
ATOM     45  C   UNL     1      30.620  31.518  16.146  1.00  0.00     0.007 C 
ATOM     46  C   UNL     1      29.806  33.103  17.885  1.00  0.00     0.007 C 
ATOM     47  C   UNL     1      31.768  33.670  16.460  1.00  0.00     0.007 C 
ENDBRANCH  36  38
ENDBRANCH  32  33
ENDBRANCH  31  32
ENDBRANCH  28  31
ENDBRANCH   1  27
TORSDOF 15
BEGIN_RES LYS A 131
REMARK  4 active torsions:
REMARK  status: ('A' for Active; 'I' for Inactive)
REMARK    1  A    between atoms: CA   and  CB  
REMARK    2  A    between atoms: CB   and  CG  
REMARK    3  A    between atoms: CG   and  CD  
REMARK    4  A    between atoms: CD   and  CE  
ROOT
ATOM      1  CA  LYS A 131      29.867  25.555  16.977  1.00 20.52     0.186 C 
ENDROOT
BRANCH   1   2
ATOM      2  CB  LYS A 131      28.345  25.722  17.026  1.00 20.94     0.034 C 
BRANCH   2   3
ATOM      3  CG  LYS A 131      27.600  24.410  16.834  1.00 22.96     0.005 C 
BRANCH   3   4
ATOM      4  CD  LYS A 131      26.745  24.065  18.022  1.00 24.33     0.041 C 
BRANCH   4   5
ATOM      5  CE  LYS A 131      25.423  23.475  17.543  1.00 26.91     0.338 C 
ATOM      6  NZ  LYS A 131      24.630  24.497  16.819  1.00 27.40     0.618 N 
ENDBRANCH   4   5
ENDBRANCH   3   4
ENDBRANCH   2   3
ENDBRANCH   1   2
END_RES LYS A 131
BEGIN_RES LYS A 135
REMARK  4 active torsions:
REMARK  status: ('A' for Active; 'I' for Inactive)
REMARK    5  A    between atoms: CA   and  CB  
REMARK    6  A    between atoms: CB   and  CG  
REMARK    7  A    between atoms: CG   and  CD  
REMARK    8  A    between atoms: CD   and  CE  
ROOT
ATOM      7  CA  LYS A 135      33.193  34.663   9.290  1.00 25.02     0.186 C 
ENDROOT
BRANCH   7   8
ATOM      8  CB  LYS A 135      32.060  35.360  10.034  1.00 26.63     0.034 C 
BRANCH   8   9
ATOM      9  CG  LYS A 135      30.790  35.470   9.231  1.00 29.45     0.005 C 
BRANCH   9  10
ATOM     10  CD  LYS A 135      30.025  34.156   9.253  1.00 32.00     0.041 C 
BRANCH  10  11
ATOM     11  CE  LYS A 135      28.655  34.327   8.625  1.00 34.25     0.338 C 
ATOM     12  NZ  LYS A 135      27.595  33.713   9.473  1.00 35.99     0.618 N 
ENDBRANCH  10  11
ENDBRANCH   9  10
ENDBRANCH   8   9
ENDBRANCH   7   8
END_RES LYS A 135
