REMARK VINA RESULT:    -5.758      3.261      7.555
REMARK INTER + INTRA:         -14.463
REMARK INTER:                  -7.605
REMARK INTRA:                  -6.858
REMARK UNBOUND:                -4.497
REMARK SMILES CC(=O)N[C@@H]1[C@@H](O)C[C@](O)(C(=O)O)O[C@H]1C(O)[C@H](O)CNC(=O)OCc1cn(-c2cccc(Cl)c2)nn1
REMARK SMILES IDX 20 1 18 2 16 3 15 4 9 5 8 6 14 7 6 8 5 9 10 10 11 12 12 13
REMARK SMILES IDX 13 14 7 16 4 18 2 19 1 21 3 22 17 23 19 25 21 27 22 28 23 30
REMARK SMILES IDX 24 31 25 32 26 33 27 34 37 35 28 36 36 37 29 38 30 39 35 40
REMARK SMILES IDX 31 41 33 42 32 43 34 44
REMARK H PARENT 10 11 13 15 7 17 4 20 17 24 19 26 21 29
REMARK Flexibility Score: inf
ROOT
ATOM      1  C   UNL     1      25.824  33.680  15.180  1.00  0.00     0.154 C 
ENDROOT
BRANCH   1   2
ATOM      2  C   UNL     1      26.776  34.120  14.106  1.00  0.00     0.165 C 
BRANCH   2   3
ATOM      3  C   UNL     1      27.900  34.969  14.626  1.00  0.00     0.176 C 
BRANCH   3   4
ATOM      4  C   UNL     1      29.248  34.274  14.420  1.00  0.00     0.178 C 
ATOM      5  C   UNL     1      29.702  32.682  16.090  1.00  0.00     0.269 C 
ATOM      6  C   UNL     1      31.102  33.266  16.226  1.00  0.00     0.112 C 
ATOM      7  O   UNL     1      29.161  33.029  14.901  1.00  0.00    -0.332 OA
ATOM      8  C   UNL     1      30.864  34.774  16.288  1.00  0.00     0.145 C 
ATOM      9  C   UNL     1      30.311  35.171  14.947  1.00  0.00     0.142 C 
BRANCH   5  10
ATOM     10  O   UNL     1      28.995  33.128  17.199  1.00  0.00    -0.357 OA
ATOM     11  H   UNL     1      29.109  34.108  17.270  1.00  0.00     0.214 HD
ENDBRANCH   5  10
BRANCH   5  12
ATOM     12  C   UNL     1      29.782  31.204  16.151  1.00  0.00     0.364 C 
ATOM     13  O   UNL     1      30.594  30.671  16.943  1.00  0.00    -0.246 OA
BRANCH  12  14
ATOM     14  O   UNL     1      28.993  30.376  15.367  1.00  0.00    -0.477 OA
ATOM     15  H   UNL     1      28.154  29.964  15.790  1.00  0.00     0.296 HD
ENDBRANCH  12  14
ENDBRANCH   5  12
BRANCH   8  16
ATOM     16  O   UNL     1      29.922  35.102  17.256  1.00  0.00    -0.391 OA
ATOM     17  H   UNL     1      30.344  35.460  18.088  1.00  0.00     0.211 HD
ENDBRANCH   8  16
BRANCH   9  18
ATOM     18  N   UNL     1      31.432  35.239  14.033  1.00  0.00    -0.348 N 
ATOM     19  C   UNL     1      31.516  36.307  13.104  1.00  0.00     0.217 C 
ATOM     20  H   UNL     1      32.197  34.503  14.041  1.00  0.00     0.163 HD
ATOM     21  C   UNL     1      32.669  36.370  12.169  1.00  0.00     0.114 C 
ATOM     22  O   UNL     1      30.619  37.189  13.079  1.00  0.00    -0.275 OA
ENDBRANCH   9  18
ENDBRANCH   3   4
BRANCH   3  23
ATOM     23  O   UNL     1      27.664  35.133  16.008  1.00  0.00    -0.388 OA
ATOM     24  H   UNL     1      28.406  35.581  16.438  1.00  0.00     0.211 HD
ENDBRANCH   3  23
ENDBRANCH   2   3
BRANCH   2  25
ATOM     25  O   UNL     1      26.063  34.855  13.144  1.00  0.00    -0.388 OA
ATOM     26  H   UNL     1      25.119  34.850  13.383  1.00  0.00     0.211 HD
ENDBRANCH   2  25
ENDBRANCH   1   2
BRANCH   1  27
ATOM     27  N   UNL     1      26.287  32.429  15.771  1.00  0.00    -0.319 N 
ATOM     28  C   UNL     1      25.693  31.194  15.409  1.00  0.00     0.407 C 
ATOM     29  H   UNL     1      27.062  32.474  16.462  1.00  0.00     0.167 HD
ATOM     30  O   UNL     1      24.758  31.187  14.569  1.00  0.00    -0.225 OA
BRANCH  28  31
ATOM     31  O   UNL     1      26.102  29.984  15.946  1.00  0.00    -0.443 OA
BRANCH  31  32
ATOM     32  C   UNL     1      25.712  29.672  17.266  1.00  0.00     0.294 C 
BRANCH  32  33
ATOM     33  C   UNL     1      26.850  29.926  18.187  1.00  0.00     0.121 A 
ATOM     34  C   UNL     1      27.709  28.981  18.720  1.00  0.00     0.144 A 
ATOM     35  N   UNL     1      27.277  31.101  18.685  1.00  0.00    -0.131 NA
ATOM     36  N   UNL     1      28.618  29.595  19.513  1.00  0.00    -0.220 N 
ATOM     37  N   UNL     1      28.323  30.884  19.468  1.00  0.00    -0.062 NA
BRANCH  36  38
ATOM     38  C   UNL     1      29.670  28.976  20.244  1.00  0.00     0.068 A 
ATOM     39  C   UNL     1      29.493  27.695  20.721  1.00  0.00     0.028 A 
ATOM     40  C   UNL     1      30.875  29.593  20.506  1.00  0.00     0.049 A 
ATOM     41  C   UNL     1      30.487  27.050  21.437  1.00  0.00     0.004 A 
ATOM     42  C   UNL     1      31.886  28.981  21.216  1.00  0.00     0.043 A 
ATOM     43  C   UNL     1      31.677  27.698  21.680  1.00  0.00     0.020 A 
ATOM     44  Cl  UNL     1      33.418  29.809  21.531  1.00  0.00    -0.084 Cl
ENDBRANCH  36  38
ENDBRANCH  32  33
ENDBRANCH  31  32
ENDBRANCH  28  31
ENDBRANCH   1  27
TORSDOF 15
BEGIN_RES LYS A 131
REMARK  4 active torsions:
REMARK  status: ('A' for Active; 'I' for Inactive)
REMARK    1  A    between atoms: CA   and  CB  
REMARK    2  A    between atoms: CB   and  CG  
REMARK    3  A    between atoms: CG   and  CD  
REMARK    4  A    between atoms: CD   and  CE  
ROOT
ATOM      1  CA  LYS A 131      29.867  25.555  16.977  1.00 20.52     0.186 C 
ENDROOT
BRANCH   1   2
ATOM      2  CB  LYS A 131      28.345  25.722  17.026  1.00 20.94     0.034 C 
BRANCH   2   3
ATOM      3  CG  LYS A 131      27.601  24.403  16.887  1.00 22.96     0.005 C 
BRANCH   3   4
ATOM      4  CD  LYS A 131      26.502  24.263  17.904  1.00 24.33     0.041 C 
BRANCH   4   5
ATOM      5  CE  LYS A 131      25.184  24.731  17.296  1.00 26.91     0.338 C 
ATOM      6  NZ  LYS A 131      24.324  23.571  16.964  1.00 27.40     0.618 N 
ENDBRANCH   4   5
ENDBRANCH   3   4
ENDBRANCH   2   3
ENDBRANCH   1   2
END_RES LYS A 131
BEGIN_RES LYS A 135
REMARK  4 active torsions:
REMARK  status: ('A' for Active; 'I' for Inactive)
REMARK    5  A    between atoms: CA   and  CB  
REMARK    6  A    between atoms: CB   and  CG  
REMARK    7  A    between atoms: CG   and  CD  
REMARK    8  A    between atoms: CD   and  CE  
ROOT
ATOM      7  CA  LYS A 135      33.193  34.663   9.290  1.00 25.02     0.186 C 
ENDROOT
BRANCH   7   8
ATOM      8  CB  LYS A 135      32.060  35.360  10.034  1.00 26.63     0.034 C 
BRANCH   8   9
ATOM      9  CG  LYS A 135      30.709  34.738   9.793  1.00 29.45     0.005 C 
BRANCH   9  10
ATOM     10  CD  LYS A 135      30.467  34.541   8.304  1.00 32.00     0.041 C 
BRANCH  10  11
ATOM     11  CE  LYS A 135      29.022  34.841   7.955  1.00 34.25     0.338 C 
ATOM     12  NZ  LYS A 135      28.920  35.533   6.641  1.00 35.99     0.618 N 
ENDBRANCH  10  11
ENDBRANCH   9  10
ENDBRANCH   8   9
ENDBRANCH   7   8
END_RES LYS A 135
