REMARK VINA RESULT:    -4.871      5.750     10.711
REMARK INTER + INTRA:         -14.355
REMARK INTER:                  -7.705
REMARK INTRA:                  -6.650
REMARK UNBOUND:                -4.785
REMARK SMILES C=CCCCCn1cc(COC(=O)NC[C@@H](O)C(O)[C@@H]2O[C@@](O)(C(=O)O)C[C@H](O)[C@H]2NC(C)=O)nn1
REMARK SMILES IDX 11 1 12 2 14 3 13 5 15 6 16 7 18 8 20 9 22 10 27 11 21 12
REMARK SMILES IDX 28 13 30 14 23 15 24 17 25 18 26 19 29 21 31 23 32 24 33 26
REMARK SMILES IDX 34 27 19 28 17 30 10 32 9 33 8 34 35 35 7 36 36 37 6 38 5 39
REMARK SMILES IDX 4 40 3 41 2 42 1 43
REMARK H PARENT 14 4 23 16 26 20 29 22 31 25 19 29 17 31
REMARK Flexibility Score: inf
ROOT
ATOM      1  O   UNL     1      23.897  32.660  15.306  1.00  0.00    -0.443 OA
ENDROOT
BRANCH   1   2
ATOM      2  C   UNL     1      25.035  32.404  16.046  1.00  0.00     0.407 C 
ATOM      3  N   UNL     1      26.263  32.239  15.322  1.00  0.00    -0.319 N 
ATOM      4  H   UNL     1      26.241  32.318  14.288  1.00  0.00     0.167 HD
ATOM      5  O   UNL     1      25.006  32.318  17.316  1.00  0.00    -0.225 OA
BRANCH   3   6
ATOM      6  C   UNL     1      27.494  31.972  15.985  1.00  0.00     0.154 C 
BRANCH   6   7
ATOM      7  C   UNL     1      28.017  30.551  15.763  1.00  0.00     0.165 C 
BRANCH   7   8
ATOM      8  C   UNL     1      27.844  29.840  17.082  1.00  0.00     0.176 C 
BRANCH   8   9
ATOM      9  C   UNL     1      26.788  28.783  17.069  1.00  0.00     0.178 C 
ATOM     10  C   UNL     1      24.469  28.797  17.171  1.00  0.00     0.269 C 
ATOM     11  C   UNL     1      24.635  27.325  17.485  1.00  0.00     0.112 C 
ATOM     12  O   UNL     1      25.616  29.289  16.573  1.00  0.00    -0.332 OA
ATOM     13  C   UNL     1      25.606  27.216  18.639  1.00  0.00     0.145 C 
ATOM     14  C   UNL     1      26.635  28.316  18.524  1.00  0.00     0.142 C 
BRANCH  10  15
ATOM     15  O   UNL     1      24.112  29.516  18.307  1.00  0.00    -0.357 OA
ATOM     16  H   UNL     1      24.293  30.473  18.174  1.00  0.00     0.214 HD
ENDBRANCH  10  15
BRANCH  10  17
ATOM     17  C   UNL     1      23.340  28.907  16.213  1.00  0.00     0.364 C 
ATOM     18  O   UNL     1      22.473  29.815  16.297  1.00  0.00    -0.246 OA
BRANCH  17  19
ATOM     19  O   UNL     1      23.171  28.002  15.152  1.00  0.00    -0.477 OA
ATOM     20  H   UNL     1      23.801  28.088  14.359  1.00  0.00     0.296 HD
ENDBRANCH  17  19
ENDBRANCH  10  17
BRANCH  13  21
ATOM     21  O   UNL     1      24.919  27.406  19.823  1.00  0.00    -0.391 OA
ATOM     22  H   UNL     1      25.066  28.328  20.150  1.00  0.00     0.211 HD
ENDBRANCH  13  21
BRANCH  14  23
ATOM     23  N   UNL     1      27.941  27.881  18.984  1.00  0.00    -0.348 N 
ATOM     24  C   UNL     1      28.376  28.012  20.333  1.00  0.00     0.217 C 
ATOM     25  H   UNL     1      28.644  27.438  18.328  1.00  0.00     0.163 HD
ATOM     26  C   UNL     1      29.723  27.561  20.795  1.00  0.00     0.114 C 
ATOM     27  O   UNL     1      27.562  28.538  21.142  1.00  0.00    -0.275 OA
ENDBRANCH  14  23
ENDBRANCH   8   9
BRANCH   8  28
ATOM     28  O   UNL     1      27.592  30.843  18.033  1.00  0.00    -0.388 OA
ATOM     29  H   UNL     1      27.315  30.461  18.904  1.00  0.00     0.211 HD
ENDBRANCH   8  28
ENDBRANCH   7   8
BRANCH   7  30
ATOM     30  O   UNL     1      29.314  30.553  15.294  1.00  0.00    -0.388 OA
ATOM     31  H   UNL     1      29.516  29.890  14.613  1.00  0.00     0.211 HD
ENDBRANCH   7  30
ENDBRANCH   6   7
ENDBRANCH   3   6
ENDBRANCH   1   2
BRANCH   1  32
ATOM     32  C   UNL     1      23.969  32.779  13.910  1.00  0.00     0.294 C 
BRANCH  32  33
ATOM     33  C   UNL     1      23.657  31.424  13.345  1.00  0.00     0.120 A 
ATOM     34  C   UNL     1      22.396  31.037  12.920  1.00  0.00     0.138 A 
ATOM     35  N   UNL     1      24.449  30.372  13.140  1.00  0.00    -0.132 NA
ATOM     36  N   UNL     1      22.467  29.776  12.476  1.00  0.00    -0.252 N 
ATOM     37  N   UNL     1      23.722  29.398  12.621  1.00  0.00    -0.067 NA
BRANCH  36  38
ATOM     38  C   UNL     1      21.420  28.926  11.931  1.00  0.00     0.146 C 
BRANCH  38  39
ATOM     39  C   UNL     1      20.081  29.598  12.087  1.00  0.00     0.024 C 
BRANCH  39  40
ATOM     40  C   UNL     1      19.119  28.737  12.867  1.00  0.00     0.006 C 
BRANCH  40  41
ATOM     41  C   UNL     1      19.700  28.269  14.176  1.00  0.00     0.027 C 
BRANCH  41  42
ATOM     42  C   UNL     1      19.532  26.804  14.312  1.00  0.00    -0.035 C 
ATOM     43  C   UNL     1      20.233  26.081  15.157  1.00  0.00     0.004 C 
ENDBRANCH  41  42
ENDBRANCH  40  41
ENDBRANCH  39  40
ENDBRANCH  38  39
ENDBRANCH  36  38
ENDBRANCH  32  33
ENDBRANCH   1  32
TORSDOF 19
BEGIN_RES LYS A 131
REMARK  4 active torsions:
REMARK  status: ('A' for Active; 'I' for Inactive)
REMARK    1  A    between atoms: CA   and  CB  
REMARK    2  A    between atoms: CB   and  CG  
REMARK    3  A    between atoms: CG   and  CD  
REMARK    4  A    between atoms: CD   and  CE  
ROOT
ATOM      1  CA  LYS A 131      29.867  25.555  16.977  1.00 20.52     0.186 C 
ENDROOT
BRANCH   1   2
ATOM      2  CB  LYS A 131      28.345  25.722  17.026  1.00 20.94     0.034 C 
BRANCH   2   3
ATOM      3  CG  LYS A 131      27.599  24.430  16.730  1.00 22.96     0.005 C 
BRANCH   3   4
ATOM      4  CD  LYS A 131      26.898  23.890  17.946  1.00 24.33     0.041 C 
BRANCH   4   5
ATOM      5  CE  LYS A 131      25.446  23.579  17.601  1.00 26.91     0.338 C 
ATOM      6  NZ  LYS A 131      24.629  23.478  18.833  1.00 27.40     0.618 N 
ENDBRANCH   4   5
ENDBRANCH   3   4
ENDBRANCH   2   3
ENDBRANCH   1   2
END_RES LYS A 131
BEGIN_RES LYS A 135
REMARK  4 active torsions:
REMARK  status: ('A' for Active; 'I' for Inactive)
REMARK    5  A    between atoms: CA   and  CB  
REMARK    6  A    between atoms: CB   and  CG  
REMARK    7  A    between atoms: CG   and  CD  
REMARK    8  A    between atoms: CD   and  CE  
ROOT
ATOM      7  CA  LYS A 135      33.193  34.663   9.290  1.00 25.02     0.186 C 
ENDROOT
BRANCH   7   8
ATOM      8  CB  LYS A 135      32.060  35.360  10.034  1.00 26.63     0.034 C 
BRANCH   8   9
ATOM      9  CG  LYS A 135      30.783  35.449   9.240  1.00 29.45     0.005 C 
BRANCH   9  10
ATOM     10  CD  LYS A 135      29.602  34.962  10.066  1.00 32.00     0.041 C 
BRANCH  10  11
ATOM     11  CE  LYS A 135      28.761  33.984   9.268  1.00 34.25     0.338 C 
ATOM     12  NZ  LYS A 135      27.405  33.832   9.864  1.00 35.99     0.618 N 
ENDBRANCH  10  11
ENDBRANCH   9  10
ENDBRANCH   8   9
ENDBRANCH   7   8
END_RES LYS A 135
