REMARK VINA RESULT:    -3.910      2.034      2.272
REMARK INTER + INTRA:         -13.512
REMARK INTER:                  -8.403
REMARK INTRA:                  -5.109
REMARK UNBOUND:                -6.059
REMARK SMILES CC(=O)N[C@@H]1[C@@H](O)C[C@](O)(C(=O)O)O[C@H]1C(O)[C@H](O)CNC(=O)OCc1cn(CCOC(C)=O)nn1
REMARK SMILES IDX 21 1 22 2 23 3 20 5 18 6 16 7 15 8 9 9 8 10 14 11 6 12 5 13
REMARK SMILES IDX 10 14 11 16 12 17 13 18 7 20 4 22 2 23 1 25 3 26 17 27 19 29
REMARK SMILES IDX 24 31 25 32 26 33 27 34 36 35 28 36 35 37 29 38 30 39 31 40
REMARK SMILES IDX 32 41 34 42 33 43
REMARK H PARENT 21 4 10 15 13 19 7 21 4 24 17 28 19 30
REMARK Flexibility Score: inf
ROOT
ATOM      1  N   UNL     1      31.954  34.532  14.165  1.00  0.00    -0.319 N 
ATOM      2  C   UNL     1      32.093  35.930  14.013  1.00  0.00     0.407 C 
ATOM      3  O   UNL     1      32.506  36.628  14.950  1.00  0.00    -0.225 OA
ATOM      4  H   UNL     1      31.591  34.014  13.318  1.00  0.00     0.167 HD
ENDROOT
BRANCH   1   5
ATOM      5  C   UNL     1      32.271  33.794  15.368  1.00  0.00     0.154 C 
BRANCH   5   6
ATOM      6  C   UNL     1      31.101  33.672  16.269  1.00  0.00     0.165 C 
BRANCH   6   7
ATOM      7  C   UNL     1      30.096  32.597  15.919  1.00  0.00     0.176 C 
BRANCH   7   8
ATOM      8  C   UNL     1      30.170  31.359  16.761  1.00  0.00     0.178 C 
ATOM      9  C   UNL     1      27.910  30.901  16.456  1.00  0.00     0.269 C 
ATOM     10  C   UNL     1      27.582  31.796  17.588  1.00  0.00     0.112 C 
ATOM     11  O   UNL     1      29.195  30.430  16.402  1.00  0.00    -0.332 OA
ATOM     12  C   UNL     1      28.659  32.048  18.580  1.00  0.00     0.145 C 
ATOM     13  C   UNL     1      30.017  31.542  18.237  1.00  0.00     0.142 C 
BRANCH   9  14
ATOM     14  O   UNL     1      27.665  31.523  15.207  1.00  0.00    -0.357 OA
ATOM     15  H   UNL     1      28.423  32.092  14.934  1.00  0.00     0.214 HD
ENDBRANCH   9  14
BRANCH   9  16
ATOM     16  C   UNL     1      27.020  29.706  16.459  1.00  0.00     0.364 C 
ATOM     17  O   UNL     1      27.414  28.591  16.944  1.00  0.00    -0.246 OA
BRANCH  16  18
ATOM     18  O   UNL     1      25.729  29.706  15.952  1.00  0.00    -0.477 OA
ATOM     19  H   UNL     1      25.453  28.903  15.377  1.00  0.00     0.296 HD
ENDBRANCH  16  18
ENDBRANCH   9  16
BRANCH  12  20
ATOM     20  O   UNL     1      28.750  33.429  18.778  1.00  0.00    -0.391 OA
ATOM     21  H   UNL     1      28.567  33.663  19.740  1.00  0.00     0.211 HD
ENDBRANCH  12  20
BRANCH  13  22
ATOM     22  N   UNL     1      30.351  30.278  18.851  1.00  0.00    -0.348 N 
ATOM     23  C   UNL     1      31.016  30.172  20.076  1.00  0.00     0.217 C 
ATOM     24  H   UNL     1      30.075  29.420  18.337  1.00  0.00     0.163 HD
ATOM     25  C   UNL     1      31.370  28.887  20.731  1.00  0.00     0.114 C 
ATOM     26  O   UNL     1      31.328  31.235  20.647  1.00  0.00    -0.275 OA
ENDBRANCH  13  22
ENDBRANCH   7   8
BRANCH   7  27
ATOM     27  O   UNL     1      30.575  32.139  14.632  1.00  0.00    -0.388 OA
ATOM     28  H   UNL     1      31.569  32.266  14.721  1.00  0.00     0.211 HD
ENDBRANCH   7  27
ENDBRANCH   6   7
BRANCH   6  29
ATOM     29  O   UNL     1      30.534  34.814  16.750  1.00  0.00    -0.388 OA
ATOM     30  H   UNL     1      31.176  35.506  16.968  1.00  0.00     0.211 HD
ENDBRANCH   6  29
ENDBRANCH   5   6
ENDBRANCH   1   5
BRANCH   2  31
ATOM     31  O   UNL     1      31.762  36.550  12.786  1.00  0.00    -0.443 OA
BRANCH  31  32
ATOM     32  C   UNL     1      31.034  37.777  12.785  1.00  0.00     0.294 C 
BRANCH  32  33
ATOM     33  C   UNL     1      29.850  37.600  11.920  1.00  0.00     0.120 A 
ATOM     34  C   UNL     1      28.677  36.953  12.272  1.00  0.00     0.138 A 
ATOM     35  N   UNL     1      29.684  38.012  10.656  1.00  0.00    -0.132 NA
ATOM     36  N   UNL     1      27.855  37.000  11.214  1.00  0.00    -0.249 N 
ATOM     37  N   UNL     1      28.484  37.642  10.256  1.00  0.00    -0.067 NA
BRANCH  36  38
ATOM     38  C   UNL     1      26.525  36.435  11.178  1.00  0.00     0.187 C 
BRANCH  38  39
ATOM     39  C   UNL     1      25.947  36.660   9.801  1.00  0.00     0.256 C 
BRANCH  39  40
ATOM     40  O   UNL     1      25.129  35.583   9.449  1.00  0.00    -0.464 OA
BRANCH  40  41
ATOM     41  C   UNL     1      23.775  35.627   9.611  1.00  0.00     0.302 C 
ATOM     42  O   UNL     1      23.029  36.064   8.716  1.00  0.00    -0.253 OA
ATOM     43  C   UNL     1      23.145  35.143  10.888  1.00  0.00     0.139 C 
ENDBRANCH  40  41
ENDBRANCH  39  40
ENDBRANCH  38  39
ENDBRANCH  36  38
ENDBRANCH  32  33
ENDBRANCH  31  32
ENDBRANCH   2  31
TORSDOF 18
BEGIN_RES LYS A 131
REMARK  4 active torsions:
REMARK  status: ('A' for Active; 'I' for Inactive)
REMARK    1  A    between atoms: CA   and  CB  
REMARK    2  A    between atoms: CB   and  CG  
REMARK    3  A    between atoms: CG   and  CD  
REMARK    4  A    between atoms: CD   and  CE  
ROOT
ATOM      1  CA  LYS A 131      29.867  25.555  16.977  1.00 20.52     0.186 C 
ENDROOT
BRANCH   1   2
ATOM      2  CB  LYS A 131      28.345  25.722  17.026  1.00 20.94     0.034 C 
BRANCH   2   3
ATOM      3  CG  LYS A 131      27.601  24.403  16.887  1.00 22.96     0.005 C 
BRANCH   3   4
ATOM      4  CD  LYS A 131      26.603  24.196  17.992  1.00 24.33     0.041 C 
BRANCH   4   5
ATOM      5  CE  LYS A 131      25.259  23.791  17.395  1.00 26.91     0.338 C 
ATOM      6  NZ  LYS A 131      24.766  22.543  18.024  1.00 27.40     0.618 N 
ENDBRANCH   4   5
ENDBRANCH   3   4
ENDBRANCH   2   3
ENDBRANCH   1   2
END_RES LYS A 131
BEGIN_RES LYS A 135
REMARK  4 active torsions:
REMARK  status: ('A' for Active; 'I' for Inactive)
REMARK    5  A    between atoms: CA   and  CB  
REMARK    6  A    between atoms: CB   and  CG  
REMARK    7  A    between atoms: CG   and  CD  
REMARK    8  A    between atoms: CD   and  CE  
ROOT
ATOM      7  CA  LYS A 135      33.193  34.663   9.290  1.00 25.02     0.186 C 
ENDROOT
BRANCH   7   8
ATOM      8  CB  LYS A 135      32.060  35.360  10.034  1.00 26.63     0.034 C 
BRANCH   8   9
ATOM      9  CG  LYS A 135      30.734  34.655   9.909  1.00 29.45     0.005 C 
BRANCH   9  10
ATOM     10  CD  LYS A 135      30.294  34.592   8.455  1.00 32.00     0.041 C 
BRANCH  10  11
ATOM     11  CE  LYS A 135      28.781  34.539   8.358  1.00 34.25     0.338 C 
ATOM     12  NZ  LYS A 135      28.198  33.769   9.492  1.00 35.99     0.618 N 
ENDBRANCH  10  11
ENDBRANCH   9  10
ENDBRANCH   8   9
ENDBRANCH   7   8
END_RES LYS A 135
