REMARK VINA RESULT:    -4.792      4.113      7.840
REMARK INTER + INTRA:         -14.066
REMARK INTER:                  -8.854
REMARK INTRA:                  -5.212
REMARK UNBOUND:                -5.212
REMARK SMILES CC(=O)N[C@@H]1[C@@H](O)C[C@](O)(C(=O)O)O[C@H]1C(O)[C@H](O)CNC(=O)OCc1cn(Cc2cccc(C#N)c2)nn1
REMARK SMILES IDX 21 1 22 2 23 3 20 5 18 6 16 7 15 8 9 9 8 10 14 11 6 12 5 13
REMARK SMILES IDX 10 14 11 16 12 17 13 18 7 20 4 22 2 23 1 25 3 26 17 27 19 29
REMARK SMILES IDX 24 31 25 32 26 33 27 34 39 35 28 36 38 37 29 38 30 39 31 40
REMARK SMILES IDX 37 41 32 42 34 43 33 44 35 45 36 46
REMARK H PARENT 21 4 10 15 13 19 7 21 4 24 17 28 19 30
REMARK Flexibility Score: inf
ROOT
ATOM      1  N   UNL     1      25.743  30.114  18.398  1.00  0.00    -0.319 N 
ATOM      2  C   UNL     1      25.310  29.932  17.080  1.00  0.00     0.407 C 
ATOM      3  O   UNL     1      25.077  28.790  16.635  1.00  0.00    -0.225 OA
ATOM      4  H   UNL     1      25.916  31.118  18.706  1.00  0.00     0.167 HD
ENDROOT
BRANCH   1   5
ATOM      5  C   UNL     1      25.956  29.038  19.329  1.00  0.00     0.154 C 
BRANCH   5   6
ATOM      6  C   UNL     1      27.371  28.530  19.327  1.00  0.00     0.165 C 
BRANCH   6   7
ATOM      7  C   UNL     1      28.425  29.554  19.495  1.00  0.00     0.176 C 
BRANCH   7   8
ATOM      8  C   UNL     1      29.597  29.140  20.400  1.00  0.00     0.178 C 
ATOM      9  C   UNL     1      30.275  27.464  21.785  1.00  0.00     0.269 C 
ATOM     10  C   UNL     1      30.267  28.394  22.981  1.00  0.00     0.112 C 
ATOM     11  O   UNL     1      29.339  27.925  20.897  1.00  0.00    -0.332 OA
ATOM     12  C   UNL     1      30.654  29.793  22.585  1.00  0.00     0.145 C 
ATOM     13  C   UNL     1      30.008  30.237  21.305  1.00  0.00     0.142 C 
BRANCH   9  14
ATOM     14  O   UNL     1      29.889  26.179  22.243  1.00  0.00    -0.357 OA
ATOM     15  H   UNL     1      29.735  25.658  21.403  1.00  0.00     0.214 HD
ENDBRANCH   9  14
BRANCH   9  16
ATOM     16  C   UNL     1      31.646  27.327  21.281  1.00  0.00     0.364 C 
ATOM     17  O   UNL     1      32.641  27.364  22.041  1.00  0.00    -0.246 OA
BRANCH  16  18
ATOM     18  O   UNL     1      31.953  27.146  19.917  1.00  0.00    -0.477 OA
ATOM     19  H   UNL     1      32.942  26.972  19.720  1.00  0.00     0.296 HD
ENDBRANCH  16  18
ENDBRANCH   9  16
BRANCH  12  20
ATOM     20  O   UNL     1      30.290  30.642  23.630  1.00  0.00    -0.391 OA
ATOM     21  H   UNL     1      31.052  31.137  23.996  1.00  0.00     0.211 HD
ENDBRANCH  12  20
BRANCH  13  22
ATOM     22  N   UNL     1      30.896  31.164  20.631  1.00  0.00    -0.348 N 
ATOM     23  C   UNL     1      30.728  32.594  20.713  1.00  0.00     0.217 C 
ATOM     24  H   UNL     1      31.714  30.872  20.040  1.00  0.00     0.163 HD
ATOM     25  C   UNL     1      31.670  33.512  19.998  1.00  0.00     0.114 C 
ATOM     26  O   UNL     1      29.794  33.076  21.383  1.00  0.00    -0.275 OA
ENDBRANCH  13  22
ENDBRANCH   7   8
BRANCH   7  27
ATOM     27  O   UNL     1      27.944  30.761  20.006  1.00  0.00    -0.388 OA
ATOM     28  H   UNL     1      28.648  31.450  20.093  1.00  0.00     0.211 HD
ENDBRANCH   7  27
ENDBRANCH   6   7
BRANCH   6  29
ATOM     29  O   UNL     1      27.521  27.684  18.229  1.00  0.00    -0.388 OA
ATOM     30  H   UNL     1      27.272  26.771  18.514  1.00  0.00     0.211 HD
ENDBRANCH   6  29
ENDBRANCH   5   6
ENDBRANCH   1   5
BRANCH   2  31
ATOM     31  O   UNL     1      25.118  30.995  16.196  1.00  0.00    -0.443 OA
BRANCH  31  32
ATOM     32  C   UNL     1      25.501  32.284  16.602  1.00  0.00     0.294 C 
BRANCH  32  33
ATOM     33  C   UNL     1      26.968  32.317  16.768  1.00  0.00     0.120 A 
ATOM     34  C   UNL     1      27.936  31.920  15.872  1.00  0.00     0.138 A 
ATOM     35  N   UNL     1      27.629  32.757  17.854  1.00  0.00    -0.132 NA
ATOM     36  N   UNL     1      29.142  32.128  16.432  1.00  0.00    -0.248 N 
ATOM     37  N   UNL     1      28.908  32.637  17.636  1.00  0.00    -0.067 NA
BRANCH  36  38
ATOM     38  C   UNL     1      30.465  31.894  15.918  1.00  0.00     0.181 C 
BRANCH  38  39
ATOM     39  C   UNL     1      31.043  33.156  15.348  1.00  0.00    -0.025 A 
ATOM     40  C   UNL     1      30.534  33.678  14.180  1.00  0.00     0.006 A 
ATOM     41  C   UNL     1      32.072  33.820  15.963  1.00  0.00     0.025 A 
ATOM     42  C   UNL     1      31.064  34.859  13.648  1.00  0.00     0.002 A 
ATOM     43  C   UNL     1      32.618  34.985  15.468  1.00  0.00     0.052 A 
ATOM     44  C   UNL     1      32.107  35.506  14.301  1.00  0.00     0.019 A 
BRANCH  43  45
ATOM     45  C   UNL     1      33.693  35.697  16.094  1.00  0.00     0.099 C 
ATOM     46  N   UNL     1      34.555  36.288  16.612  1.00  0.00    -0.192 NA
ENDBRANCH  43  45
ENDBRANCH  38  39
ENDBRANCH  36  38
ENDBRANCH  32  33
ENDBRANCH  31  32
ENDBRANCH   2  31
TORSDOF 17
BEGIN_RES LYS A 131
REMARK  4 active torsions:
REMARK  status: ('A' for Active; 'I' for Inactive)
REMARK    1  A    between atoms: CA   and  CB  
REMARK    2  A    between atoms: CB   and  CG  
REMARK    3  A    between atoms: CG   and  CD  
REMARK    4  A    between atoms: CD   and  CE  
ROOT
ATOM      1  CA  LYS A 131      29.867  25.555  16.977  1.00 20.52     0.186 C 
ENDROOT
BRANCH   1   2
ATOM      2  CB  LYS A 131      28.345  25.722  17.026  1.00 20.94     0.034 C 
BRANCH   2   3
ATOM      3  CG  LYS A 131      27.601  24.402  16.893  1.00 22.96     0.005 C 
BRANCH   3   4
ATOM      4  CD  LYS A 131      26.154  24.526  17.282  1.00 24.33     0.041 C 
BRANCH   4   5
ATOM      5  CE  LYS A 131      25.961  23.999  18.700  1.00 26.91     0.338 C 
ATOM      6  NZ  LYS A 131      25.607  25.106  19.621  1.00 27.40     0.618 N 
ENDBRANCH   4   5
ENDBRANCH   3   4
ENDBRANCH   2   3
ENDBRANCH   1   2
END_RES LYS A 131
BEGIN_RES LYS A 135
REMARK  4 active torsions:
REMARK  status: ('A' for Active; 'I' for Inactive)
REMARK    5  A    between atoms: CA   and  CB  
REMARK    6  A    between atoms: CB   and  CG  
REMARK    7  A    between atoms: CG   and  CD  
REMARK    8  A    between atoms: CD   and  CE  
ROOT
ATOM      7  CA  LYS A 135      33.193  34.663   9.290  1.00 25.02     0.186 C 
ENDROOT
BRANCH   7   8
ATOM      8  CB  LYS A 135      32.060  35.360  10.034  1.00 26.63     0.034 C 
BRANCH   8   9
ATOM      9  CG  LYS A 135      30.742  34.635   9.941  1.00 29.45     0.005 C 
BRANCH   9  10
ATOM     10  CD  LYS A 135      29.583  35.603  10.117  1.00 32.00     0.041 C 
BRANCH  10  11
ATOM     11  CE  LYS A 135      29.662  36.720   9.094  1.00 34.25     0.338 C 
ATOM     12  NZ  LYS A 135      29.289  36.231   7.737  1.00 35.99     0.618 N 
ENDBRANCH  10  11
ENDBRANCH   9  10
ENDBRANCH   8   9
ENDBRANCH   7   8
END_RES LYS A 135
