REMARK VINA RESULT:    -4.386      2.295      4.475
REMARK INTER + INTRA:         -14.919
REMARK INTER:                  -8.927
REMARK INTRA:                  -5.991
REMARK UNBOUND:                -5.918
REMARK SMILES CC(=O)N[C@@H]1[C@@H](O)C[C@](O)(C(=O)O)O[C@H]1C(O)[C@H](O)CNC(=O)OCc1cn(CCCCCC(=O)O)nn1
REMARK SMILES IDX 25 1 24 2 22 3 21 4 23 6 20 7 18 8 16 9 15 10 9 11 8 12
REMARK SMILES IDX 14 13 6 14 5 15 10 16 11 18 12 19 13 20 7 22 4 24 2 25 1 27
REMARK SMILES IDX 3 28 17 29 19 31 26 33 27 34 38 35 28 36 37 37 29 38 30 39
REMARK SMILES IDX 31 40 32 41 33 42 34 43 35 44 36 45
REMARK H PARENT 21 5 10 17 13 21 7 23 4 26 17 30 19 32 36 46
REMARK Flexibility Score: inf
ROOT
ATOM      1  C   UNL     1      28.440  40.868   6.143  1.00  0.00     0.294 C 
ENDROOT
BRANCH   1   2
ATOM      2  O   UNL     1      27.407  40.321   5.332  1.00  0.00    -0.443 OA
BRANCH   2   3
ATOM      3  C   UNL     1      26.084  40.633   5.667  1.00  0.00     0.407 C 
ATOM      4  N   UNL     1      25.335  39.674   6.406  1.00  0.00    -0.319 N 
ATOM      5  H   UNL     1      25.817  38.775   6.670  1.00  0.00     0.167 HD
ATOM      6  O   UNL     1      25.625  41.742   5.298  1.00  0.00    -0.225 OA
BRANCH   4   7
ATOM      7  C   UNL     1      23.982  39.968   6.756  1.00  0.00     0.154 C 
BRANCH   7   8
ATOM      8  C   UNL     1      23.721  40.074   8.239  1.00  0.00     0.165 C 
BRANCH   8   9
ATOM      9  C   UNL     1      24.428  38.922   8.926  1.00  0.00     0.176 C 
BRANCH   9  10
ATOM     10  C   UNL     1      23.577  38.149   9.879  1.00  0.00     0.178 C 
ATOM     11  C   UNL     1      25.208  36.503  10.221  1.00  0.00     0.269 C 
ATOM     12  C   UNL     1      24.419  35.637   9.226  1.00  0.00     0.112 C 
ATOM     13  O   UNL     1      24.401  37.469  10.751  1.00  0.00    -0.332 OA
ATOM     14  C   UNL     1      22.974  35.786   9.635  1.00  0.00     0.145 C 
ATOM     15  C   UNL     1      22.567  37.231   9.291  1.00  0.00     0.142 C 
BRANCH  11  16
ATOM     16  O   UNL     1      26.377  36.967   9.623  1.00  0.00    -0.357 OA
ATOM     17  H   UNL     1      27.190  36.494   9.990  1.00  0.00     0.214 HD
ENDBRANCH  11  16
BRANCH  11  18
ATOM     18  C   UNL     1      25.602  35.593  11.327  1.00  0.00     0.364 C 
ATOM     19  O   UNL     1      26.718  35.750  11.907  1.00  0.00    -0.246 OA
BRANCH  18  20
ATOM     20  O   UNL     1      24.733  34.584  11.703  1.00  0.00    -0.477 OA
ATOM     21  H   UNL     1      25.140  33.640  11.762  1.00  0.00     0.296 HD
ENDBRANCH  18  20
ENDBRANCH  11  18
BRANCH  14  22
ATOM     22  O   UNL     1      22.145  34.881   8.973  1.00  0.00    -0.391 OA
ATOM     23  H   UNL     1      22.542  33.981   9.110  1.00  0.00     0.211 HD
ENDBRANCH  14  22
BRANCH  15  24
ATOM     24  N   UNL     1      21.228  37.483   9.805  1.00  0.00    -0.348 N 
ATOM     25  C   UNL     1      20.067  37.358   9.017  1.00  0.00     0.217 C 
ATOM     26  H   UNL     1      21.128  37.768  10.821  1.00  0.00     0.163 HD
ATOM     27  C   UNL     1      18.694  37.628   9.579  1.00  0.00     0.114 C 
ATOM     28  O   UNL     1      20.195  37.010   7.803  1.00  0.00    -0.275 OA
ENDBRANCH  15  24
ENDBRANCH   9  10
BRANCH   9  29
ATOM     29  O   UNL     1      25.407  39.565   9.738  1.00  0.00    -0.388 OA
ATOM     30  H   UNL     1      25.189  39.307  10.664  1.00  0.00     0.211 HD
ENDBRANCH   9  29
ENDBRANCH   8   9
BRANCH   8  31
ATOM     31  O   UNL     1      22.358  40.079   8.437  1.00  0.00    -0.388 OA
ATOM     32  H   UNL     1      22.037  39.204   8.768  1.00  0.00     0.211 HD
ENDBRANCH   8  31
ENDBRANCH   7   8
ENDBRANCH   4   7
ENDBRANCH   2   3
ENDBRANCH   1   2
BRANCH   1  33
ATOM     33  C   UNL     1      28.655  39.902   7.245  1.00  0.00     0.120 A 
ATOM     34  C   UNL     1      29.712  39.016   7.291  1.00  0.00     0.138 A 
ATOM     35  N   UNL     1      27.919  39.709   8.339  1.00  0.00    -0.132 NA
ATOM     36  N   UNL     1      29.550  38.321   8.438  1.00  0.00    -0.252 N 
ATOM     37  N   UNL     1      28.472  38.743   9.061  1.00  0.00    -0.067 NA
BRANCH  36  38
ATOM     38  C   UNL     1      30.489  37.271   8.840  1.00  0.00     0.146 C 
BRANCH  38  39
ATOM     39  C   UNL     1      29.681  36.088   9.305  1.00  0.00     0.024 C 
BRANCH  39  40
ATOM     40  C   UNL     1      29.592  34.990   8.267  1.00  0.00     0.002 C 
BRANCH  40  41
ATOM     41  C   UNL     1      28.297  34.998   7.531  1.00  0.00     0.012 C 
BRANCH  41  42
ATOM     42  C   UNL     1      28.361  35.669   6.186  1.00  0.00     0.122 C 
BRANCH  42  43
ATOM     43  C   UNL     1      27.356  36.725   5.998  1.00  0.00     0.303 C 
ATOM     44  O   UNL     1      26.473  36.933   6.846  1.00  0.00    -0.252 OA
BRANCH  43  45
ATOM     45  O   UNL     1      27.370  37.531   4.846  1.00  0.00    -0.481 OA
ATOM     46  H   UNL     1      26.563  38.123   4.623  1.00  0.00     0.296 HD
ENDBRANCH  43  45
ENDBRANCH  42  43
ENDBRANCH  41  42
ENDBRANCH  40  41
ENDBRANCH  39  40
ENDBRANCH  38  39
ENDBRANCH  36  38
ENDBRANCH   1  33
TORSDOF 21
BEGIN_RES LYS A 131
REMARK  4 active torsions:
REMARK  status: ('A' for Active; 'I' for Inactive)
REMARK    1  A    between atoms: CA   and  CB  
REMARK    2  A    between atoms: CB   and  CG  
REMARK    3  A    between atoms: CG   and  CD  
REMARK    4  A    between atoms: CD   and  CE  
ROOT
ATOM      1  CA  LYS A 131      29.867  25.555  16.977  1.00 20.52     0.186 C 
ENDROOT
BRANCH   1   2
ATOM      2  CB  LYS A 131      28.345  25.722  17.026  1.00 20.94     0.034 C 
BRANCH   2   3
ATOM      3  CG  LYS A 131      27.601  24.403  16.886  1.00 22.96     0.005 C 
BRANCH   3   4
ATOM      4  CD  LYS A 131      26.634  24.175  18.014  1.00 24.33     0.041 C 
BRANCH   4   5
ATOM      5  CE  LYS A 131      25.620  23.110  17.609  1.00 26.91     0.338 C 
ATOM      6  NZ  LYS A 131      24.240  23.578  17.879  1.00 27.40     0.618 N 
ENDBRANCH   4   5
ENDBRANCH   3   4
ENDBRANCH   2   3
ENDBRANCH   1   2
END_RES LYS A 131
BEGIN_RES LYS A 135
REMARK  4 active torsions:
REMARK  status: ('A' for Active; 'I' for Inactive)
REMARK    5  A    between atoms: CA   and  CB  
REMARK    6  A    between atoms: CB   and  CG  
REMARK    7  A    between atoms: CG   and  CD  
REMARK    8  A    between atoms: CD   and  CE  
ROOT
ATOM      7  CA  LYS A 135      33.193  34.663   9.290  1.00 25.02     0.186 C 
ENDROOT
BRANCH   7   8
ATOM      8  CB  LYS A 135      32.060  35.360  10.034  1.00 26.63     0.034 C 
BRANCH   8   9
ATOM      9  CG  LYS A 135      32.166  35.250  11.533  1.00 29.45     0.005 C 
BRANCH   9  10
ATOM     10  CD  LYS A 135      32.245  36.630  12.168  1.00 32.00     0.041 C 
BRANCH  10  11
ATOM     11  CE  LYS A 135      32.218  36.523  13.681  1.00 34.25     0.338 C 
ATOM     12  NZ  LYS A 135      31.378  37.597  14.280  1.00 35.99     0.618 N 
ENDBRANCH  10  11
ENDBRANCH   9  10
ENDBRANCH   8   9
ENDBRANCH   7   8
END_RES LYS A 135
