REMARK VINA RESULT:    -5.660      4.171      8.668
REMARK INTER + INTRA:         -15.464
REMARK INTER:                  -9.188
REMARK INTRA:                  -6.276
REMARK UNBOUND:                -5.337
REMARK SMILES CC(=O)N[C@@H]1[C@@H](O)C[C@](O)(C(=O)O)O[C@H]1C(O)[C@H](O)CNC(=O)OCc1cn(CC2=CC[C@H]3C[C@@H]2C3(C)C)nn1
REMARK SMILES IDX 21 1 22 2 23 3 20 5 18 6 16 7 15 8 9 9 8 10 14 11 6 12 5 13
REMARK SMILES IDX 10 14 11 16 12 17 13 18 7 20 4 22 2 23 1 25 3 26 17 27 19 29
REMARK SMILES IDX 24 31 25 32 26 33 27 34 40 35 28 36 39 37 29 38 30 39 31 40
REMARK SMILES IDX 35 41 32 42 34 43 36 44 33 45 37 46 38 47
REMARK H PARENT 21 4 10 15 13 19 7 21 4 24 17 28 19 30
REMARK Flexibility Score: inf
ROOT
ATOM      1  N   UNL     1      29.930  30.800  17.316  1.00  0.00    -0.319 N 
ATOM      2  C   UNL     1      28.810  30.716  18.212  1.00  0.00     0.407 C 
ATOM      3  O   UNL     1      28.540  31.713  18.930  1.00  0.00    -0.225 OA
ATOM      4  H   UNL     1      30.158  29.977  16.718  1.00  0.00     0.167 HD
ENDROOT
BRANCH   1   5
ATOM      5  C   UNL     1      30.717  32.014  17.259  1.00  0.00     0.154 C 
BRANCH   5   6
ATOM      6  C   UNL     1      30.669  32.538  15.853  1.00  0.00     0.165 C 
BRANCH   6   7
ATOM      7  C   UNL     1      29.745  33.728  15.714  1.00  0.00     0.176 C 
BRANCH   7   8
ATOM      8  C   UNL     1      29.623  34.031  14.239  1.00  0.00     0.178 C 
ATOM      9  C   UNL     1      31.354  35.492  13.751  1.00  0.00     0.269 C 
ATOM     10  C   UNL     1      30.429  36.603  13.308  1.00  0.00     0.112 C 
ATOM     11  O   UNL     1      30.814  34.236  13.607  1.00  0.00    -0.332 OA
ATOM     12  C   UNL     1      29.129  35.978  12.867  1.00  0.00     0.145 C 
ATOM     13  C   UNL     1      28.621  35.142  14.024  1.00  0.00     0.142 C 
BRANCH   9  14
ATOM     14  O   UNL     1      31.794  35.745  15.054  1.00  0.00    -0.357 OA
ATOM     15  H   UNL     1      31.371  36.606  15.319  1.00  0.00     0.214 HD
ENDBRANCH   9  14
BRANCH   9  16
ATOM     16  C   UNL     1      32.559  35.563  12.873  1.00  0.00     0.364 C 
ATOM     17  O   UNL     1      32.664  36.526  12.041  1.00  0.00    -0.246 OA
BRANCH  16  18
ATOM     18  O   UNL     1      33.574  34.631  12.917  1.00  0.00    -0.477 OA
ATOM     19  H   UNL     1      34.129  34.404  12.096  1.00  0.00     0.296 HD
ENDBRANCH  16  18
ENDBRANCH   9  16
BRANCH  12  20
ATOM     20  O   UNL     1      28.169  36.920  12.554  1.00  0.00    -0.391 OA
ATOM     21  H   UNL     1      28.288  37.161  11.601  1.00  0.00     0.211 HD
ENDBRANCH  12  20
BRANCH  13  22
ATOM     22  N   UNL     1      27.286  34.658  13.787  1.00  0.00    -0.348 N 
ATOM     23  C   UNL     1      26.144  35.344  14.275  1.00  0.00     0.217 C 
ATOM     24  H   UNL     1      27.174  33.777  13.239  1.00  0.00     0.163 HD
ATOM     25  C   UNL     1      24.801  34.773  13.984  1.00  0.00     0.114 C 
ATOM     26  O   UNL     1      26.272  36.405  14.936  1.00  0.00    -0.275 OA
ENDBRANCH  13  22
ENDBRANCH   7   8
BRANCH   7  27
ATOM     27  O   UNL     1      28.472  33.424  16.191  1.00  0.00    -0.388 OA
ATOM     28  H   UNL     1      28.462  32.693  16.830  1.00  0.00     0.211 HD
ENDBRANCH   7  27
ENDBRANCH   6   7
BRANCH   6  29
ATOM     29  O   UNL     1      30.162  31.492  15.052  1.00  0.00    -0.388 OA
ATOM     30  H   UNL     1      30.873  30.813  14.882  1.00  0.00     0.211 HD
ENDBRANCH   6  29
ENDBRANCH   5   6
ENDBRANCH   1   5
BRANCH   2  31
ATOM     31  O   UNL     1      28.023  29.602  18.318  1.00  0.00    -0.443 OA
BRANCH  31  32
ATOM     32  C   UNL     1      27.377  28.979  17.221  1.00  0.00     0.294 C 
BRANCH  32  33
ATOM     33  C   UNL     1      26.612  29.977  16.446  1.00  0.00     0.120 A 
ATOM     34  C   UNL     1      25.249  30.125  16.343  1.00  0.00     0.138 A 
ATOM     35  N   UNL     1      27.145  30.943  15.684  1.00  0.00    -0.132 NA
ATOM     36  N   UNL     1      24.978  31.181  15.519  1.00  0.00    -0.248 N 
ATOM     37  N   UNL     1      26.156  31.653  15.137  1.00  0.00    -0.067 NA
BRANCH  36  38
ATOM     38  C   UNL     1      23.656  31.641  15.170  1.00  0.00     0.177 C 
BRANCH  38  39
ATOM     39  C   UNL     1      22.961  30.655  14.270  1.00  0.00    -0.049 C 
ATOM     40  C   UNL     1      23.502  30.273  13.116  1.00  0.00    -0.025 C 
ATOM     41  C   UNL     1      21.652  30.078  14.634  1.00  0.00     0.023 C 
ATOM     42  C   UNL     1      22.896  29.123  12.392  1.00  0.00     0.031 C 
ATOM     43  C   UNL     1      21.819  28.554  14.535  1.00  0.00     0.013 C 
ATOM     44  C   UNL     1      20.788  29.976  13.393  1.00  0.00    -0.026 C 
ATOM     45  C   UNL     1      21.606  28.725  13.040  1.00  0.00    -0.000 C 
ATOM     46  C   UNL     1      19.362  29.592  13.672  1.00  0.00     0.012 C 
ATOM     47  C   UNL     1      20.909  31.098  12.419  1.00  0.00     0.012 C 
ENDBRANCH  38  39
ENDBRANCH  36  38
ENDBRANCH  32  33
ENDBRANCH  31  32
ENDBRANCH   2  31
TORSDOF 16
BEGIN_RES LYS A 131
REMARK  4 active torsions:
REMARK  status: ('A' for Active; 'I' for Inactive)
REMARK    1  A    between atoms: CA   and  CB  
REMARK    2  A    between atoms: CB   and  CG  
REMARK    3  A    between atoms: CG   and  CD  
REMARK    4  A    between atoms: CD   and  CE  
ROOT
ATOM      1  CA  LYS A 131      29.867  25.555  16.977  1.00 20.52     0.186 C 
ENDROOT
BRANCH   1   2
ATOM      2  CB  LYS A 131      28.345  25.722  17.026  1.00 20.94     0.034 C 
BRANCH   2   3
ATOM      3  CG  LYS A 131      27.600  24.409  16.843  1.00 22.96     0.005 C 
BRANCH   3   4
ATOM      4  CD  LYS A 131      26.171  24.499  17.301  1.00 24.33     0.041 C 
BRANCH   4   5
ATOM      5  CE  LYS A 131      26.028  23.816  18.658  1.00 26.91     0.338 C 
ATOM      6  NZ  LYS A 131      24.865  22.898  18.656  1.00 27.40     0.618 N 
ENDBRANCH   4   5
ENDBRANCH   3   4
ENDBRANCH   2   3
ENDBRANCH   1   2
END_RES LYS A 131
BEGIN_RES LYS A 135
REMARK  4 active torsions:
REMARK  status: ('A' for Active; 'I' for Inactive)
REMARK    5  A    between atoms: CA   and  CB  
REMARK    6  A    between atoms: CB   and  CG  
REMARK    7  A    between atoms: CG   and  CD  
REMARK    8  A    between atoms: CD   and  CE  
ROOT
ATOM      7  CA  LYS A 135      33.193  34.663   9.290  1.00 25.02     0.186 C 
ENDROOT
BRANCH   7   8
ATOM      8  CB  LYS A 135      32.060  35.360  10.034  1.00 26.63     0.034 C 
BRANCH   8   9
ATOM      9  CG  LYS A 135      30.731  34.662   9.899  1.00 29.45     0.005 C 
BRANCH   9  10
ATOM     10  CD  LYS A 135      30.370  34.474   8.434  1.00 32.00     0.041 C 
BRANCH  10  11
ATOM     11  CE  LYS A 135      29.506  35.620   7.947  1.00 34.25     0.338 C 
ATOM     12  NZ  LYS A 135      28.177  35.131   7.483  1.00 35.99     0.618 N 
ENDBRANCH  10  11
ENDBRANCH   9  10
ENDBRANCH   8   9
ENDBRANCH   7   8
END_RES LYS A 135
