REMARK VINA RESULT:    -4.657      5.182     10.087
REMARK INTER + INTRA:         -14.551
REMARK INTER:                  -9.356
REMARK INTRA:                  -5.195
REMARK UNBOUND:                -6.490
REMARK SMILES CC(=O)N[C@@H]1[C@@H](O)C[C@](O)(C(=O)O)O[C@H]1C(O)[C@H](O)CNC(=O)OCc1cn(-c2ccc3[nH]ncc3c2)nn1
REMARK SMILES IDX 20 1 18 2 16 3 15 4 9 5 8 6 14 7 6 8 5 9 10 10 11 12 12 13
REMARK SMILES IDX 13 14 7 16 4 18 2 19 1 21 3 22 17 23 19 25 21 27 22 28 23 30
REMARK SMILES IDX 24 31 25 32 26 33 27 34 39 35 28 36 38 37 29 38 30 39 37 40
REMARK SMILES IDX 31 41 36 42 32 43 35 44 33 45 34 46
REMARK H PARENT 10 11 13 15 7 17 4 20 17 24 19 26 21 29 33 47
REMARK Flexibility Score: inf
ROOT
ATOM      1  C   UNL     1      29.258  30.837  15.991  1.00  0.00     0.154 C 
ENDROOT
BRANCH   1   2
ATOM      2  C   UNL     1      28.885  32.139  15.431  1.00  0.00     0.165 C 
BRANCH   2   3
ATOM      3  C   UNL     1      30.083  32.789  14.705  1.00  0.00     0.176 C 
BRANCH   3   4
ATOM      4  C   UNL     1      30.461  34.098  15.247  1.00  0.00     0.178 C 
ATOM      5  C   UNL     1      30.493  35.586  13.443  1.00  0.00     0.269 C 
ATOM      6  C   UNL     1      31.879  35.076  13.170  1.00  0.00     0.112 C 
ATOM      7  O   UNL     1      29.970  35.220  14.648  1.00  0.00    -0.332 OA
ATOM      8  C   UNL     1      32.703  34.884  14.395  1.00  0.00     0.145 C 
ATOM      9  C   UNL     1      31.971  34.197  15.502  1.00  0.00     0.142 C 
BRANCH   5  10
ATOM     10  O   UNL     1      29.643  35.179  12.416  1.00  0.00    -0.357 OA
ATOM     11  H   UNL     1      28.713  35.485  12.556  1.00  0.00     0.214 HD
ENDBRANCH   5  10
BRANCH   5  12
ATOM     12  C   UNL     1      30.565  37.065  13.415  1.00  0.00     0.364 C 
ATOM     13  O   UNL     1      29.523  37.738  13.352  1.00  0.00    -0.246 OA
BRANCH  12  14
ATOM     14  O   UNL     1      31.791  37.694  13.460  1.00  0.00    -0.477 OA
ATOM     15  H   UNL     1      32.559  37.478  12.808  1.00  0.00     0.296 HD
ENDBRANCH  12  14
ENDBRANCH   5  12
BRANCH   8  16
ATOM     16  O   UNL     1      33.862  34.174  14.029  1.00  0.00    -0.391 OA
ATOM     17  H   UNL     1      34.531  34.391  14.721  1.00  0.00     0.211 HD
ENDBRANCH   8  16
BRANCH   9  18
ATOM     18  N   UNL     1      32.262  34.745  16.801  1.00  0.00    -0.348 N 
ATOM     19  C   UNL     1      31.858  34.108  18.005  1.00  0.00     0.217 C 
ATOM     20  H   UNL     1      32.799  35.661  16.880  1.00  0.00     0.163 HD
ATOM     21  C   UNL     1      32.181  34.712  19.312  1.00  0.00     0.114 C 
ATOM     22  O   UNL     1      31.223  33.026  17.929  1.00  0.00    -0.275 OA
ENDBRANCH   9  18
ENDBRANCH   3   4
BRANCH   3  23
ATOM     23  O   UNL     1      31.139  31.885  15.088  1.00  0.00    -0.388 OA
ATOM     24  H   UNL     1      30.898  31.419  15.922  1.00  0.00     0.211 HD
ENDBRANCH   3  23
ENDBRANCH   2   3
BRANCH   2  25
ATOM     25  O   UNL     1      28.683  32.997  16.578  1.00  0.00    -0.388 OA
ATOM     26  H   UNL     1      28.865  33.939  16.309  1.00  0.00     0.211 HD
ENDBRANCH   2  25
ENDBRANCH   1   2
BRANCH   1  27
ATOM     27  N   UNL     1      29.489  30.788  17.408  1.00  0.00    -0.319 N 
ATOM     28  C   UNL     1      28.561  30.192  18.302  1.00  0.00     0.407 C 
ATOM     29  H   UNL     1      30.370  31.145  17.808  1.00  0.00     0.167 HD
ATOM     30  O   UNL     1      27.508  29.696  17.822  1.00  0.00    -0.225 OA
BRANCH  28  31
ATOM     31  O   UNL     1      28.746  30.127  19.663  1.00  0.00    -0.443 OA
BRANCH  31  32
ATOM     32  C   UNL     1      29.506  31.052  20.418  1.00  0.00     0.294 C 
BRANCH  32  33
ATOM     33  C   UNL     1      30.822  30.402  20.741  1.00  0.00     0.121 A 
ATOM     34  C   UNL     1      31.897  30.939  21.415  1.00  0.00     0.144 A 
ATOM     35  N   UNL     1      31.206  29.135  20.421  1.00  0.00    -0.131 NA
ATOM     36  N   UNL     1      32.861  29.973  21.464  1.00  0.00    -0.220 N 
ATOM     37  N   UNL     1      32.413  28.891  20.853  1.00  0.00    -0.062 NA
BRANCH  36  38
ATOM     38  C   UNL     1      34.129  30.135  22.077  1.00  0.00     0.067 A 
ATOM     39  C   UNL     1      34.841  31.300  21.867  1.00  0.00     0.030 A 
ATOM     40  C   UNL     1      34.706  29.180  22.888  1.00  0.00     0.040 A 
ATOM     41  C   UNL     1      36.079  31.513  22.436  1.00  0.00     0.030 A 
ATOM     42  C   UNL     1      35.930  29.370  23.463  1.00  0.00     0.022 A 
ATOM     43  C   UNL     1      36.646  30.546  23.249  1.00  0.00     0.065 A 
ATOM     44  C   UNL     1      36.723  28.611  24.291  1.00  0.00     0.143 A 
ATOM     45  N   UNL     1      37.803  30.466  23.926  1.00  0.00    -0.278 N 
ATOM     46  N   UNL     1      37.862  29.314  24.554  1.00  0.00    -0.183 NA
ATOM     47  H   UNL     1      38.530  31.205  23.944  1.00  0.00     0.190 HD
ENDBRANCH  36  38
ENDBRANCH  32  33
ENDBRANCH  31  32
ENDBRANCH  28  31
ENDBRANCH   1  27
TORSDOF 15
BEGIN_RES LYS A 131
REMARK  4 active torsions:
REMARK  status: ('A' for Active; 'I' for Inactive)
REMARK    1  A    between atoms: CA   and  CB  
REMARK    2  A    between atoms: CB   and  CG  
REMARK    3  A    between atoms: CG   and  CD  
REMARK    4  A    between atoms: CD   and  CE  
ROOT
ATOM      1  CA  LYS A 131      29.867  25.555  16.977  1.00 20.52     0.186 C 
ENDROOT
BRANCH   1   2
ATOM      2  CB  LYS A 131      28.345  25.722  17.026  1.00 20.94     0.034 C 
BRANCH   2   3
ATOM      3  CG  LYS A 131      27.602  24.400  16.913  1.00 22.96     0.005 C 
BRANCH   3   4
ATOM      4  CD  LYS A 131      26.154  24.529  17.299  1.00 24.33     0.041 C 
BRANCH   4   5
ATOM      5  CE  LYS A 131      26.053  24.927  18.767  1.00 26.91     0.338 C 
ATOM      6  NZ  LYS A 131      24.694  24.646  19.289  1.00 27.40     0.618 N 
ENDBRANCH   4   5
ENDBRANCH   3   4
ENDBRANCH   2   3
ENDBRANCH   1   2
END_RES LYS A 131
BEGIN_RES LYS A 135
REMARK  4 active torsions:
REMARK  status: ('A' for Active; 'I' for Inactive)
REMARK    5  A    between atoms: CA   and  CB  
REMARK    6  A    between atoms: CB   and  CG  
REMARK    7  A    between atoms: CG   and  CD  
REMARK    8  A    between atoms: CD   and  CE  
ROOT
ATOM      7  CA  LYS A 135      33.193  34.663   9.290  1.00 25.02     0.186 C 
ENDROOT
BRANCH   7   8
ATOM      8  CB  LYS A 135      32.060  35.360  10.034  1.00 26.63     0.034 C 
BRANCH   8   9
ATOM      9  CG  LYS A 135      30.803  35.509   9.216  1.00 29.45     0.005 C 
BRANCH   9  10
ATOM     10  CD  LYS A 135      30.133  34.159   9.011  1.00 32.00     0.041 C 
BRANCH  10  11
ATOM     11  CE  LYS A 135      28.673  34.339   8.643  1.00 34.25     0.338 C 
ATOM     12  NZ  LYS A 135      27.783  33.679   9.638  1.00 35.99     0.618 N 
ENDBRANCH  10  11
ENDBRANCH   9  10
ENDBRANCH   8   9
ENDBRANCH   7   8
END_RES LYS A 135
