REMARK VINA RESULT:    -4.086      0.000      0.000
REMARK INTER + INTRA:         -16.592
REMARK INTER:                  -8.244
REMARK INTRA:                  -8.348
REMARK UNBOUND:                -8.446
REMARK SMILES CC(=O)N[C@@H]1[C@@H](O)C[C@](O)(C(=O)O)O[C@H]1C(O)[C@H](O)CNC(=O)OCc1cn(CC(O)Cn2ccnc2[N+](=O)[O-])nn1
REMARK SMILES IDX 24 1 22 2 21 3 23 5 20 6 18 7 16 8 15 9 9 10 8 11 14 12 6 13
REMARK SMILES IDX 5 14 10 15 11 17 12 18 13 19 7 21 4 23 2 24 1 26 3 27 17 28
REMARK SMILES IDX 19 30 25 32 26 33 27 34 42 35 28 36 41 37 29 38 30 39 31 40
REMARK SMILES IDX 32 42 33 43 34 44 37 45 35 46 36 47 38 48 39 49 40 50
REMARK H PARENT 21 4 10 16 13 20 7 22 4 25 17 29 19 31 31 41
REMARK Flexibility Score: inf
ROOT
ATOM      1  O   UNL     1      32.239  32.421  22.263  1.00  0.00    -0.443 OA
ENDROOT
BRANCH   1   2
ATOM      2  C   UNL     1      32.750  31.136  22.012  1.00  0.00     0.407 C 
ATOM      3  N   UNL     1      31.947  29.992  21.978  1.00  0.00    -0.319 N 
ATOM      4  H   UNL     1      30.906  30.121  22.155  1.00  0.00     0.167 HD
ATOM      5  O   UNL     1      33.971  31.063  21.818  1.00  0.00    -0.225 OA
BRANCH   3   6
ATOM      6  C   UNL     1      32.431  28.656  21.722  1.00  0.00     0.154 C 
BRANCH   6   7
ATOM      7  C   UNL     1      31.520  28.008  20.714  1.00  0.00     0.165 C 
BRANCH   7   8
ATOM      8  C   UNL     1      30.689  26.970  21.431  1.00  0.00     0.176 C 
BRANCH   8   9
ATOM      9  C   UNL     1      29.205  27.301  21.341  1.00  0.00     0.178 C 
ATOM     10  C   UNL     1      27.791  28.669  20.095  1.00  0.00     0.269 C 
ATOM     11  C   UNL     1      27.015  28.819  21.389  1.00  0.00     0.112 C 
ATOM     12  O   UNL     1      29.072  28.254  20.369  1.00  0.00    -0.332 OA
ATOM     13  C   UNL     1      27.979  29.058  22.529  1.00  0.00     0.145 C 
ATOM     14  C   UNL     1      28.749  27.756  22.716  1.00  0.00     0.142 C 
BRANCH  10  15
ATOM     15  O   UNL     1      27.898  29.914  19.444  1.00  0.00    -0.357 OA
ATOM     16  H   UNL     1      27.190  30.489  19.816  1.00  0.00     0.214 HD
ENDBRANCH  10  15
BRANCH  10  17
ATOM     17  C   UNL     1      27.160  27.719  19.171  1.00  0.00     0.364 C 
ATOM     18  O   UNL     1      26.196  27.026  19.536  1.00  0.00    -0.246 OA
BRANCH  17  19
ATOM     19  O   UNL     1      27.633  27.584  17.878  1.00  0.00    -0.477 OA
ATOM     20  H   UNL     1      27.380  26.792  17.317  1.00  0.00     0.296 HD
ENDBRANCH  17  19
ENDBRANCH  10  17
BRANCH  13  21
ATOM     21  O   UNL     1      28.922  30.035  22.252  1.00  0.00    -0.391 OA
ATOM     22  H   UNL     1      29.355  29.859  21.394  1.00  0.00     0.211 HD
ENDBRANCH  13  21
BRANCH  14  23
ATOM     23  N   UNL     1      27.890  26.794  23.345  1.00  0.00    -0.348 N 
ATOM     24  C   UNL     1      28.275  26.159  24.544  1.00  0.00     0.217 C 
ATOM     25  H   UNL     1      26.951  26.514  22.956  1.00  0.00     0.163 HD
ATOM     26  C   UNL     1      27.376  25.157  25.194  1.00  0.00     0.114 C 
ATOM     27  O   UNL     1      29.378  26.422  25.089  1.00  0.00    -0.275 OA
ENDBRANCH  14  23
ENDBRANCH   8   9
BRANCH   8  28
ATOM     28  O   UNL     1      31.021  26.998  22.771  1.00  0.00    -0.388 OA
ATOM     29  H   UNL     1      30.663  27.786  23.241  1.00  0.00     0.211 HD
ENDBRANCH   8  28
ENDBRANCH   7   8
BRANCH   7  30
ATOM     30  O   UNL     1      32.220  27.466  19.641  1.00  0.00    -0.388 OA
ATOM     31  H   UNL     1      31.550  27.027  19.058  1.00  0.00     0.211 HD
ENDBRANCH   7  30
ENDBRANCH   6   7
ENDBRANCH   3   6
ENDBRANCH   1   2
BRANCH   1  32
ATOM     32  C   UNL     1      30.942  32.775  21.757  1.00  0.00     0.294 C 
BRANCH  32  33
ATOM     33  C   UNL     1      30.816  32.464  20.337  1.00  0.00     0.120 A 
ATOM     34  C   UNL     1      31.166  33.286  19.295  1.00  0.00     0.138 A 
ATOM     35  N   UNL     1      30.336  31.320  19.825  1.00  0.00    -0.132 NA
ATOM     36  N   UNL     1      30.885  32.612  18.171  1.00  0.00    -0.249 N 
ATOM     37  N   UNL     1      30.392  31.445  18.509  1.00  0.00    -0.067 NA
BRANCH  36  38
ATOM     38  C   UNL     1      31.112  33.139  16.814  1.00  0.00     0.181 C 
BRANCH  38  39
ATOM     39  C   UNL     1      30.268  32.376  15.818  1.00  0.00     0.170 C 
BRANCH  39  40
ATOM     40  O   UNL     1      31.108  32.165  14.702  1.00  0.00    -0.388 OA
ATOM     41  H   UNL     1      31.316  31.222  14.565  1.00  0.00     0.211 HD
ENDBRANCH  39  40
BRANCH  39  42
ATOM     42  C   UNL     1      29.075  33.197  15.448  1.00  0.00     0.239 C 
BRANCH  42  43
ATOM     43  N   UNL     1      28.124  33.148  16.563  1.00  0.00    -0.227 N 
ATOM     44  C   UNL     1      27.899  34.130  17.466  1.00  0.00     0.204 A 
ATOM     45  C   UNL     1      27.338  32.119  16.827  1.00  0.00     0.434 A 
ATOM     46  C   UNL     1      26.939  33.687  18.317  1.00  0.00     0.245 A 
ATOM     47  N   UNL     1      26.602  32.461  17.921  1.00  0.00    -0.074 NA
BRANCH  45  48
ATOM     48  N   UNL     1      27.243  30.866  16.130  1.00  0.00    -0.047 N 
ATOM     49  O   UNL     1      26.398  30.641  15.249  1.00  0.00    -0.390 OA
ATOM     50  O   UNL     1      28.130  29.857  16.448  1.00  0.00    -0.390 OA
ENDBRANCH  45  48
ENDBRANCH  42  43
ENDBRANCH  39  42
ENDBRANCH  38  39
ENDBRANCH  36  38
ENDBRANCH  32  33
ENDBRANCH   1  32
TORSDOF 20
BEGIN_RES LYS A 131
REMARK  4 active torsions:
REMARK  status: ('A' for Active; 'I' for Inactive)
REMARK    1  A    between atoms: CA   and  CB  
REMARK    2  A    between atoms: CB   and  CG  
REMARK    3  A    between atoms: CG   and  CD  
REMARK    4  A    between atoms: CD   and  CE  
ROOT
ATOM      1  CA  LYS A 131      29.867  25.555  16.977  1.00 20.52     0.186 C 
ENDROOT
BRANCH   1   2
ATOM      2  CB  LYS A 131      28.345  25.722  17.026  1.00 20.94     0.034 C 
BRANCH   2   3
ATOM      3  CG  LYS A 131      27.599  24.420  16.774  1.00 22.96     0.005 C 
BRANCH   3   4
ATOM      4  CD  LYS A 131      26.817  23.974  17.978  1.00 24.33     0.041 C 
BRANCH   4   5
ATOM      5  CE  LYS A 131      25.506  23.340  17.526  1.00 26.91     0.338 C 
ATOM      6  NZ  LYS A 131      24.607  24.365  16.945  1.00 27.40     0.618 N 
ENDBRANCH   4   5
ENDBRANCH   3   4
ENDBRANCH   2   3
ENDBRANCH   1   2
END_RES LYS A 131
BEGIN_RES LYS A 135
REMARK  4 active torsions:
REMARK  status: ('A' for Active; 'I' for Inactive)
REMARK    5  A    between atoms: CA   and  CB  
REMARK    6  A    between atoms: CB   and  CG  
REMARK    7  A    between atoms: CG   and  CD  
REMARK    8  A    between atoms: CD   and  CE  
ROOT
ATOM      7  CA  LYS A 135      33.193  34.663   9.290  1.00 25.02     0.186 C 
ENDROOT
BRANCH   7   8
ATOM      8  CB  LYS A 135      32.060  35.360  10.034  1.00 26.63     0.034 C 
BRANCH   8   9
ATOM      9  CG  LYS A 135      30.836  35.594   9.186  1.00 29.45     0.005 C 
BRANCH   9  10
ATOM     10  CD  LYS A 135      30.167  34.274   8.835  1.00 32.00     0.041 C 
BRANCH  10  11
ATOM     11  CE  LYS A 135      28.717  34.498   8.451  1.00 34.25     0.338 C 
ATOM     12  NZ  LYS A 135      28.611  35.286   7.192  1.00 35.99     0.618 N 
ENDBRANCH  10  11
ENDBRANCH   9  10
ENDBRANCH   8   9
ENDBRANCH   7   8
END_RES LYS A 135
