REMARK VINA RESULT:    -4.027      3.459      7.075
REMARK INTER + INTRA:         -14.430
REMARK INTER:                  -6.195
REMARK INTRA:                  -8.235
REMARK UNBOUND:                -6.753
REMARK SMILES COCC(C(N)=O)n1cc(COC(=O)NC[C@@H](O)C(O)[C@@H]2O[C@@](O)(C(=O)O)C[C@H](O)[C@H]2NC(C)=O)nn1
REMARK SMILES IDX 15 1 13 2 14 3 16 5 17 6 19 7 21 8 23 9 28 10 22 11 29 12
REMARK SMILES IDX 31 13 24 14 25 16 26 17 27 18 30 20 32 22 33 23 34 25 35 26
REMARK SMILES IDX 20 27 18 29 12 31 11 32 10 33 9 34 36 35 8 36 37 37 4 38
REMARK SMILES IDX 3 39 2 40 1 41 5 42 7 43 6 44
REMARK H PARENT 15 4 24 15 27 19 30 21 32 24 20 28 18 30 6 45 6 46
REMARK Flexibility Score: inf
ROOT
ATOM      1  N   UNL     1      29.584  31.256  16.714  1.00  0.00    -0.319 N 
ATOM      2  C   UNL     1      28.565  30.322  16.441  1.00  0.00     0.407 C 
ATOM      3  O   UNL     1      28.555  29.633  15.396  1.00  0.00    -0.225 OA
ATOM      4  H   UNL     1      29.507  31.783  17.621  1.00  0.00     0.167 HD
ENDROOT
BRANCH   1   5
ATOM      5  C   UNL     1      30.699  31.550  15.881  1.00  0.00     0.154 C 
BRANCH   5   6
ATOM      6  C   UNL     1      30.947  32.973  15.538  1.00  0.00     0.165 C 
BRANCH   6   7
ATOM      7  C   UNL     1      30.092  33.467  14.392  1.00  0.00     0.176 C 
BRANCH   7   8
ATOM      8  C   UNL     1      30.339  34.885  13.988  1.00  0.00     0.178 C 
ATOM      9  C   UNL     1      31.021  36.891  14.917  1.00  0.00     0.269 C 
ATOM     10  C   UNL     1      31.038  37.216  13.447  1.00  0.00     0.112 C 
ATOM     11  O   UNL     1      30.690  35.571  15.170  1.00  0.00    -0.332 OA
ATOM     12  C   UNL     1      29.772  36.881  12.742  1.00  0.00     0.145 C 
ATOM     13  C   UNL     1      29.187  35.614  13.386  1.00  0.00     0.142 C 
BRANCH   9  14
ATOM     14  O   UNL     1      30.194  37.791  15.565  1.00  0.00    -0.357 OA
ATOM     15  H   UNL     1      29.766  37.421  16.375  1.00  0.00     0.214 HD
ENDBRANCH   9  14
BRANCH   9  16
ATOM     16  C   UNL     1      32.402  37.105  15.430  1.00  0.00     0.364 C 
ATOM     17  O   UNL     1      33.248  36.170  15.474  1.00  0.00    -0.246 OA
BRANCH  16  18
ATOM     18  O   UNL     1      32.836  38.352  15.892  1.00  0.00    -0.477 OA
ATOM     19  H   UNL     1      32.435  39.215  15.549  1.00  0.00     0.296 HD
ENDBRANCH  16  18
ENDBRANCH   9  16
BRANCH  12  20
ATOM     20  O   UNL     1      28.838  37.914  12.766  1.00  0.00    -0.391 OA
ATOM     21  H   UNL     1      29.129  38.576  12.081  1.00  0.00     0.211 HD
ENDBRANCH  12  20
BRANCH  13  22
ATOM     22  N   UNL     1      28.457  34.955  12.358  1.00  0.00    -0.348 N 
ATOM     23  C   UNL     1      27.036  35.144  12.165  1.00  0.00     0.217 C 
ATOM     24  H   UNL     1      28.899  34.306  11.673  1.00  0.00     0.163 HD
ATOM     25  C   UNL     1      26.318  34.437  11.080  1.00  0.00     0.114 C 
ATOM     26  O   UNL     1      26.413  35.906  12.914  1.00  0.00    -0.275 OA
ENDBRANCH  13  22
ENDBRANCH   7   8
BRANCH   7  27
ATOM     27  O   UNL     1      28.770  33.468  14.935  1.00  0.00    -0.388 OA
ATOM     28  H   UNL     1      28.632  34.234  15.516  1.00  0.00     0.211 HD
ENDBRANCH   7  27
ENDBRANCH   6   7
BRANCH   6  29
ATOM     29  O   UNL     1      32.269  33.146  15.134  1.00  0.00    -0.388 OA
ATOM     30  H   UNL     1      32.631  32.294  14.793  1.00  0.00     0.211 HD
ENDBRANCH   6  29
ENDBRANCH   5   6
ENDBRANCH   1   5
BRANCH   2  31
ATOM     31  O   UNL     1      27.515  30.126  17.334  1.00  0.00    -0.443 OA
BRANCH  31  32
ATOM     32  C   UNL     1      26.195  30.478  17.012  1.00  0.00     0.294 C 
BRANCH  32  33
ATOM     33  C   UNL     1      26.103  31.906  16.658  1.00  0.00     0.120 A 
ATOM     34  C   UNL     1      26.198  32.993  17.505  1.00  0.00     0.139 A 
ATOM     35  N   UNL     1      25.902  32.381  15.410  1.00  0.00    -0.132 NA
ATOM     36  N   UNL     1      26.056  34.077  16.751  1.00  0.00    -0.237 N 
ATOM     37  N   UNL     1      25.881  33.713  15.514  1.00  0.00    -0.066 NA
BRANCH  36  38
ATOM     38  C   UNL     1      26.087  35.460  17.219  1.00  0.00     0.223 C 
BRANCH  38  39
ATOM     39  C   UNL     1      26.106  35.455  18.722  1.00  0.00     0.197 C 
BRANCH  39  40
ATOM     40  O   UNL     1      26.533  36.667  19.213  1.00  0.00    -0.382 OA
ATOM     41  C   UNL     1      27.096  36.614  20.469  1.00  0.00     0.195 C 
ENDBRANCH  39  40
ENDBRANCH  38  39
BRANCH  38  42
ATOM     42  C   UNL     1      27.349  36.105  16.730  1.00  0.00     0.244 C 
ATOM     43  O   UNL     1      27.309  37.058  15.937  1.00  0.00    -0.273 OA
ATOM     44  N   UNL     1      28.582  35.586  17.206  1.00  0.00    -0.368 N 
ATOM     45  H   UNL     1      29.420  36.211  17.209  1.00  0.00     0.159 HD
ATOM     46  H   UNL     1      28.654  34.617  17.541  1.00  0.00     0.159 HD
ENDBRANCH  38  42
ENDBRANCH  36  38
ENDBRANCH  32  33
ENDBRANCH  31  32
ENDBRANCH   2  31
TORSDOF 18
BEGIN_RES LYS A 131
REMARK  4 active torsions:
REMARK  status: ('A' for Active; 'I' for Inactive)
REMARK    1  A    between atoms: CA   and  CB  
REMARK    2  A    between atoms: CB   and  CG  
REMARK    3  A    between atoms: CG   and  CD  
REMARK    4  A    between atoms: CD   and  CE  
ROOT
ATOM      1  CA  LYS A 131      29.867  25.555  16.977  1.00 20.52     0.186 C 
ENDROOT
BRANCH   1   2
ATOM      2  CB  LYS A 131      28.345  25.722  17.026  1.00 20.94     0.034 C 
BRANCH   2   3
ATOM      3  CG  LYS A 131      27.602  24.399  16.925  1.00 22.96     0.005 C 
BRANCH   3   4
ATOM      4  CD  LYS A 131      26.637  24.203  18.062  1.00 24.33     0.041 C 
BRANCH   4   5
ATOM      5  CE  LYS A 131      26.107  25.558  18.518  1.00 26.91     0.338 C 
ATOM      6  NZ  LYS A 131      24.807  25.853  17.870  1.00 27.40     0.618 N 
ENDBRANCH   4   5
ENDBRANCH   3   4
ENDBRANCH   2   3
ENDBRANCH   1   2
END_RES LYS A 131
BEGIN_RES LYS A 135
REMARK  4 active torsions:
REMARK  status: ('A' for Active; 'I' for Inactive)
REMARK    5  A    between atoms: CA   and  CB  
REMARK    6  A    between atoms: CB   and  CG  
REMARK    7  A    between atoms: CG   and  CD  
REMARK    8  A    between atoms: CD   and  CE  
ROOT
ATOM      7  CA  LYS A 135      33.193  34.663   9.290  1.00 25.02     0.186 C 
ENDROOT
BRANCH   7   8
ATOM      8  CB  LYS A 135      32.060  35.360  10.034  1.00 26.63     0.034 C 
BRANCH   8   9
ATOM      9  CG  LYS A 135      30.709  34.735   9.797  1.00 29.45     0.005 C 
BRANCH   9  10
ATOM     10  CD  LYS A 135      30.429  34.610   8.308  1.00 32.00     0.041 C 
BRANCH  10  11
ATOM     11  CE  LYS A 135      28.949  34.782   8.028  1.00 34.25     0.338 C 
ATOM     12  NZ  LYS A 135      28.443  36.067   8.586  1.00 35.99     0.618 N 
ENDBRANCH  10  11
ENDBRANCH   9  10
ENDBRANCH   8   9
ENDBRANCH   7   8
END_RES LYS A 135
