REMARK VINA RESULT:    -4.737      4.869      8.162
REMARK INTER + INTRA:         -14.770
REMARK INTER:                  -8.891
REMARK INTRA:                  -5.879
REMARK UNBOUND:                -6.295
REMARK SMILES CC(=O)N[C@@H]1[C@@H](O)C[C@](O)(C(=O)O)O[C@H]1C(O)[C@H](O)CNC(=O)OCc1cn(Cc2cccc(Br)c2)nn1
REMARK SMILES IDX 21 1 22 2 23 3 20 5 18 6 16 7 15 8 9 9 8 10 14 11 6 12 5 13
REMARK SMILES IDX 10 14 11 16 12 17 13 18 7 20 4 22 2 23 1 25 3 26 17 27 19 29
REMARK SMILES IDX 24 31 25 32 26 33 27 34 38 35 28 36 37 37 29 38 30 39 31 40
REMARK SMILES IDX 36 41 32 42 34 43 33 44 35 45
REMARK H PARENT 21 4 10 15 13 19 7 21 4 24 17 28 19 30
REMARK Flexibility Score: inf
ROOT
ATOM      1  N   UNL     1      29.766  30.548  17.833  1.00  0.00    -0.319 N 
ATOM      2  C   UNL     1      28.713  30.940  18.692  1.00  0.00     0.407 C 
ATOM      3  O   UNL     1      27.761  31.670  18.263  1.00  0.00    -0.225 OA
ATOM      4  H   UNL     1      30.524  29.951  18.226  1.00  0.00     0.167 HD
ENDROOT
BRANCH   1   5
ATOM      5  C   UNL     1      29.710  31.006  16.471  1.00  0.00     0.154 C 
BRANCH   5   6
ATOM      6  C   UNL     1      30.735  32.121  16.216  1.00  0.00     0.165 C 
BRANCH   6   7
ATOM      7  C   UNL     1      29.942  33.372  16.075  1.00  0.00     0.176 C 
BRANCH   7   8
ATOM      8  C   UNL     1      30.623  34.516  15.382  1.00  0.00     0.178 C 
ATOM      9  C   UNL     1      31.058  35.124  13.169  1.00  0.00     0.269 C 
ATOM     10  C   UNL     1      32.313  35.810  13.675  1.00  0.00     0.112 C 
ATOM     11  O   UNL     1      30.691  34.127  14.038  1.00  0.00    -0.332 OA
ATOM     12  C   UNL     1      32.945  35.015  14.807  1.00  0.00     0.145 C 
ATOM     13  C   UNL     1      31.915  34.958  15.951  1.00  0.00     0.142 C 
BRANCH   9  14
ATOM     14  O   UNL     1      31.450  34.463  11.985  1.00  0.00    -0.357 OA
ATOM     15  H   UNL     1      32.026  33.696  12.167  1.00  0.00     0.214 HD
ENDBRANCH   9  14
BRANCH   9  16
ATOM     16  C   UNL     1      30.000  36.073  12.814  1.00  0.00     0.364 C 
ATOM     17  O   UNL     1      28.955  35.672  12.251  1.00  0.00    -0.246 OA
BRANCH  16  18
ATOM     18  O   UNL     1      30.088  37.434  13.072  1.00  0.00    -0.477 OA
ATOM     19  H   UNL     1      30.861  37.954  12.705  1.00  0.00     0.296 HD
ENDBRANCH  16  18
ENDBRANCH   9  16
BRANCH  12  20
ATOM     20  O   UNL     1      33.333  33.767  14.394  1.00  0.00    -0.391 OA
ATOM     21  H   UNL     1      32.537  33.302  13.983  1.00  0.00     0.211 HD
ENDBRANCH  12  20
BRANCH  13  22
ATOM     22  N   UNL     1      31.849  36.344  16.432  1.00  0.00    -0.348 N 
ATOM     23  C   UNL     1      31.612  36.643  17.800  1.00  0.00     0.217 C 
ATOM     24  H   UNL     1      31.970  37.164  15.799  1.00  0.00     0.163 HD
ATOM     25  C   UNL     1      31.545  38.073  18.272  1.00  0.00     0.114 C 
ATOM     26  O   UNL     1      31.452  35.750  18.648  1.00  0.00    -0.275 OA
ENDBRANCH  13  22
ENDBRANCH   7   8
BRANCH   7  27
ATOM     27  O   UNL     1      29.716  33.836  17.399  1.00  0.00    -0.388 OA
ATOM     28  H   UNL     1      29.532  33.007  17.925  1.00  0.00     0.211 HD
ENDBRANCH   7  27
ENDBRANCH   6   7
BRANCH   6  29
ATOM     29  O   UNL     1      31.424  31.743  15.067  1.00  0.00    -0.388 OA
ATOM     30  H   UNL     1      31.336  32.460  14.403  1.00  0.00     0.211 HD
ENDBRANCH   6  29
ENDBRANCH   5   6
ENDBRANCH   1   5
BRANCH   2  31
ATOM     31  O   UNL     1      28.644  30.569  20.027  1.00  0.00    -0.443 OA
BRANCH  31  32
ATOM     32  C   UNL     1      29.150  29.344  20.527  1.00  0.00     0.294 C 
BRANCH  32  33
ATOM     33  C   UNL     1      30.573  29.474  20.940  1.00  0.00     0.120 A 
ATOM     34  C   UNL     1      31.041  30.089  22.107  1.00  0.00     0.138 A 
ATOM     35  N   UNL     1      31.681  29.045  20.310  1.00  0.00    -0.132 NA
ATOM     36  N   UNL     1      32.375  30.004  22.124  1.00  0.00    -0.248 N 
ATOM     37  N   UNL     1      32.739  29.368  21.026  1.00  0.00    -0.067 NA
BRANCH  36  38
ATOM     38  C   UNL     1      33.298  30.496  23.123  1.00  0.00     0.181 C 
BRANCH  38  39
ATOM     39  C   UNL     1      34.326  31.362  22.489  1.00  0.00    -0.025 A 
ATOM     40  C   UNL     1      35.645  30.970  22.421  1.00  0.00     0.006 A 
ATOM     41  C   UNL     1      33.971  32.571  21.958  1.00  0.00     0.021 A 
ATOM     42  C   UNL     1      36.613  31.782  21.826  1.00  0.00     0.002 A 
ATOM     43  C   UNL     1      34.929  33.390  21.362  1.00  0.00     0.018 A 
ATOM     44  C   UNL     1      36.254  32.991  21.296  1.00  0.00     0.016 A 
ATOM     45  Br  UNL     1      34.399  35.063  20.636  1.00  0.00    -0.051 Br
ENDBRANCH  38  39
ENDBRANCH  36  38
ENDBRANCH  32  33
ENDBRANCH  31  32
ENDBRANCH   2  31
TORSDOF 16
BEGIN_RES LYS A 131
REMARK  4 active torsions:
REMARK  status: ('A' for Active; 'I' for Inactive)
REMARK    1  A    between atoms: CA   and  CB  
REMARK    2  A    between atoms: CB   and  CG  
REMARK    3  A    between atoms: CG   and  CD  
REMARK    4  A    between atoms: CD   and  CE  
ROOT
ATOM      1  CA  LYS A 131      29.867  25.555  16.977  1.00 20.52     0.186 C 
ENDROOT
BRANCH   1   2
ATOM      2  CB  LYS A 131      28.345  25.722  17.026  1.00 20.94     0.034 C 
BRANCH   2   3
ATOM      3  CG  LYS A 131      27.601  24.406  16.859  1.00 22.96     0.005 C 
BRANCH   3   4
ATOM      4  CD  LYS A 131      26.169  24.505  17.306  1.00 24.33     0.041 C 
BRANCH   4   5
ATOM      5  CE  LYS A 131      25.631  23.109  17.603  1.00 26.91     0.338 C 
ATOM      6  NZ  LYS A 131      25.345  22.959  19.049  1.00 27.40     0.618 N 
ENDBRANCH   4   5
ENDBRANCH   3   4
ENDBRANCH   2   3
ENDBRANCH   1   2
END_RES LYS A 131
BEGIN_RES LYS A 135
REMARK  4 active torsions:
REMARK  status: ('A' for Active; 'I' for Inactive)
REMARK    5  A    between atoms: CA   and  CB  
REMARK    6  A    between atoms: CB   and  CG  
REMARK    7  A    between atoms: CG   and  CD  
REMARK    8  A    between atoms: CD   and  CE  
ROOT
ATOM      7  CA  LYS A 135      33.193  34.663   9.290  1.00 25.02     0.186 C 
ENDROOT
BRANCH   7   8
ATOM      8  CB  LYS A 135      32.060  35.360  10.034  1.00 26.63     0.034 C 
BRANCH   8   9
ATOM      9  CG  LYS A 135      30.855  35.637   9.173  1.00 29.45     0.005 C 
BRANCH   9  10
ATOM     10  CD  LYS A 135      30.224  34.337   8.698  1.00 32.00     0.041 C 
BRANCH  10  11
ATOM     11  CE  LYS A 135      28.793  34.571   8.253  1.00 34.25     0.338 C 
ATOM     12  NZ  LYS A 135      28.230  35.799   8.880  1.00 35.99     0.618 N 
ENDBRANCH  10  11
ENDBRANCH   9  10
ENDBRANCH   8   9
ENDBRANCH   7   8
END_RES LYS A 135
