REMARK VINA RESULT:    -5.772      2.035      2.712
REMARK INTER + INTRA:         -14.538
REMARK INTER:                  -8.422
REMARK INTRA:                  -6.115
REMARK UNBOUND:                -4.548
REMARK SMILES CC(=O)N[C@@H]1[C@@H](O)C[C@](O)(C(=O)O)O[C@H]1C(O)[C@H](O)CNC(=O)OCc1cn(-c2ccc3c(c2)OCO3)nn1
REMARK SMILES IDX 20 1 18 2 16 3 15 4 9 5 8 6 14 7 6 8 5 9 10 10 11 12 12 13
REMARK SMILES IDX 13 14 7 16 4 18 2 19 1 21 3 22 17 23 19 25 21 27 22 28 23 30
REMARK SMILES IDX 24 31 25 32 26 33 27 34 39 35 28 36 38 37 29 38 30 39 34 40
REMARK SMILES IDX 31 41 33 42 32 43 35 44 37 45 36 46
REMARK H PARENT 10 11 13 15 7 17 4 20 17 24 19 26 21 29
REMARK Flexibility Score: inf
ROOT
ATOM      1  C   UNL     1      26.709  28.127  20.620  1.00  0.00     0.154 C 
ENDROOT
BRANCH   1   2
ATOM      2  C   UNL     1      28.185  27.932  20.520  1.00  0.00     0.165 C 
BRANCH   2   3
ATOM      3  C   UNL     1      28.890  29.248  20.154  1.00  0.00     0.176 C 
BRANCH   3   4
ATOM      4  C   UNL     1      30.240  29.214  20.776  1.00  0.00     0.178 C 
ATOM      5  C   UNL     1      31.441  28.723  22.650  1.00  0.00     0.269 C 
ATOM      6  C   UNL     1      32.560  29.056  21.688  1.00  0.00     0.112 C 
ATOM      7  O   UNL     1      30.199  28.696  22.066  1.00  0.00    -0.332 OA
ATOM      8  C   UNL     1      32.340  30.385  20.990  1.00  0.00     0.145 C 
ATOM      9  C   UNL     1      30.868  30.602  20.895  1.00  0.00     0.142 C 
BRANCH   5  10
ATOM     10  O   UNL     1      31.531  29.651  23.690  1.00  0.00    -0.357 OA
ATOM     11  H   UNL     1      32.496  29.879  23.767  1.00  0.00     0.214 HD
ENDBRANCH   5  10
BRANCH   5  12
ATOM     12  C   UNL     1      31.718  27.365  23.171  1.00  0.00     0.364 C 
ATOM     13  O   UNL     1      32.906  26.979  23.278  1.00  0.00    -0.246 OA
BRANCH  12  14
ATOM     14  O   UNL     1      30.714  26.490  23.552  1.00  0.00    -0.477 OA
ATOM     15  H   UNL     1      30.835  25.771  24.258  1.00  0.00     0.296 HD
ENDBRANCH  12  14
ENDBRANCH   5  12
BRANCH   8  16
ATOM     16  O   UNL     1      32.960  31.354  21.809  1.00  0.00    -0.391 OA
ATOM     17  H   UNL     1      32.313  31.771  22.406  1.00  0.00     0.211 HD
ENDBRANCH   8  16
BRANCH   9  18
ATOM     18  N   UNL     1      30.438  31.505  19.891  1.00  0.00    -0.348 N 
ATOM     19  C   UNL     1      30.496  32.924  19.941  1.00  0.00     0.217 C 
ATOM     20  H   UNL     1      30.037  31.100  19.017  1.00  0.00     0.163 HD
ATOM     21  C   UNL     1      30.015  33.787  18.822  1.00  0.00     0.114 C 
ATOM     22  O   UNL     1      30.973  33.440  20.977  1.00  0.00    -0.275 OA
ENDBRANCH   9  18
ENDBRANCH   3   4
BRANCH   3  23
ATOM     23  O   UNL     1      28.938  29.327  18.789  1.00  0.00    -0.388 OA
ATOM     24  H   UNL     1      29.715  28.989  18.334  1.00  0.00     0.211 HD
ENDBRANCH   3  23
ENDBRANCH   2   3
BRANCH   2  25
ATOM     25  O   UNL     1      28.516  27.000  19.573  1.00  0.00    -0.388 OA
ATOM     26  H   UNL     1      28.877  26.148  19.900  1.00  0.00     0.211 HD
ENDBRANCH   2  25
ENDBRANCH   1   2
BRANCH   1  27
ATOM     27  N   UNL     1      26.239  29.142  19.743  1.00  0.00    -0.319 N 
ATOM     28  C   UNL     1      25.542  28.879  18.553  1.00  0.00     0.407 C 
ATOM     29  H   UNL     1      26.408  30.169  19.969  1.00  0.00     0.167 HD
ATOM     30  O   UNL     1      25.264  27.749  18.119  1.00  0.00    -0.225 OA
BRANCH  28  31
ATOM     31  O   UNL     1      25.111  29.965  17.769  1.00  0.00    -0.443 OA
BRANCH  31  32
ATOM     32  C   UNL     1      25.330  29.942  16.391  1.00  0.00     0.294 C 
BRANCH  32  33
ATOM     33  C   UNL     1      26.765  30.215  16.121  1.00  0.00     0.121 A 
ATOM     34  C   UNL     1      27.331  31.456  15.848  1.00  0.00     0.144 A 
ATOM     35  N   UNL     1      27.791  29.348  16.084  1.00  0.00    -0.131 NA
ATOM     36  N   UNL     1      28.654  31.314  15.657  1.00  0.00    -0.220 N 
ATOM     37  N   UNL     1      28.891  30.023  15.809  1.00  0.00    -0.062 NA
BRANCH  36  38
ATOM     38  C   UNL     1      29.574  32.357  15.357  1.00  0.00     0.070 A 
ATOM     39  C   UNL     1      30.911  32.226  15.674  1.00  0.00     0.032 A 
ATOM     40  C   UNL     1      29.190  33.533  14.746  1.00  0.00     0.079 A 
ATOM     41  C   UNL     1      31.829  33.236  15.389  1.00  0.00     0.053 A 
ATOM     42  C   UNL     1      30.090  34.557  14.452  1.00  0.00     0.167 A 
ATOM     43  C   UNL     1      31.419  34.402  14.779  1.00  0.00     0.165 A 
ATOM     44  O   UNL     1      29.956  35.808  13.855  1.00  0.00    -0.454 OA
ATOM     45  O   UNL     1      32.072  35.577  14.367  1.00  0.00    -0.454 OA
ATOM     46  C   UNL     1      31.085  36.597  14.183  1.00  0.00     0.468 C 
ENDBRANCH  36  38
ENDBRANCH  32  33
ENDBRANCH  31  32
ENDBRANCH  28  31
ENDBRANCH   1  27
TORSDOF 15
BEGIN_RES LYS A 131
REMARK  4 active torsions:
REMARK  status: ('A' for Active; 'I' for Inactive)
REMARK    1  A    between atoms: CA   and  CB  
REMARK    2  A    between atoms: CB   and  CG  
REMARK    3  A    between atoms: CG   and  CD  
REMARK    4  A    between atoms: CD   and  CE  
ROOT
ATOM      1  CA  LYS A 131      29.867  25.555  16.977  1.00 20.52     0.186 C 
ENDROOT
BRANCH   1   2
ATOM      2  CB  LYS A 131      28.345  25.722  17.026  1.00 20.94     0.034 C 
BRANCH   2   3
ATOM      3  CG  LYS A 131      27.601  24.403  16.887  1.00 22.96     0.005 C 
BRANCH   3   4
ATOM      4  CD  LYS A 131      26.608  24.192  17.997  1.00 24.33     0.041 C 
BRANCH   4   5
ATOM      5  CE  LYS A 131      25.317  23.618  17.423  1.00 26.91     0.338 C 
ATOM      6  NZ  LYS A 131      24.644  22.755  18.422  1.00 27.40     0.618 N 
ENDBRANCH   4   5
ENDBRANCH   3   4
ENDBRANCH   2   3
ENDBRANCH   1   2
END_RES LYS A 131
BEGIN_RES LYS A 135
REMARK  4 active torsions:
REMARK  status: ('A' for Active; 'I' for Inactive)
REMARK    5  A    between atoms: CA   and  CB  
REMARK    6  A    between atoms: CB   and  CG  
REMARK    7  A    between atoms: CG   and  CD  
REMARK    8  A    between atoms: CD   and  CE  
ROOT
ATOM      7  CA  LYS A 135      33.193  34.663   9.290  1.00 25.02     0.186 C 
ENDROOT
BRANCH   7   8
ATOM      8  CB  LYS A 135      32.060  35.360  10.034  1.00 26.63     0.034 C 
BRANCH   8   9
ATOM      9  CG  LYS A 135      30.723  34.685   9.865  1.00 29.45     0.005 C 
BRANCH   9  10
ATOM     10  CD  LYS A 135      30.247  34.791   8.424  1.00 32.00     0.041 C 
BRANCH  10  11
ATOM     11  CE  LYS A 135      28.761  34.503   8.332  1.00 34.25     0.338 C 
ATOM     12  NZ  LYS A 135      28.271  33.812   9.557  1.00 35.99     0.618 N 
ENDBRANCH  10  11
ENDBRANCH   9  10
ENDBRANCH   8   9
ENDBRANCH   7   8
END_RES LYS A 135
