REMARK VINA RESULT:    -4.042      2.915      6.360
REMARK INTER + INTRA:         -13.764
REMARK INTER:                  -9.047
REMARK INTRA:                  -4.717
REMARK UNBOUND:                -6.059
REMARK SMILES CC(=O)N[C@@H]1[C@@H](O)C[C@](O)(C(=O)O)O[C@H]1C(O)[C@H](O)CNC(=O)OCc1cn(CCOC(C)=O)nn1
REMARK SMILES IDX 21 1 22 2 23 3 20 5 18 6 16 7 15 8 9 9 8 10 14 11 6 12 5 13
REMARK SMILES IDX 10 14 11 16 12 17 13 18 7 20 4 22 2 23 1 25 3 26 17 27 19 29
REMARK SMILES IDX 24 31 25 32 26 33 27 34 36 35 28 36 35 37 29 38 30 39 31 40
REMARK SMILES IDX 32 41 34 42 33 43
REMARK H PARENT 21 4 10 15 13 19 7 21 4 24 17 28 19 30
REMARK Flexibility Score: inf
ROOT
ATOM      1  N   UNL     1      27.881  29.437  18.372  1.00  0.00    -0.319 N 
ATOM      2  C   UNL     1      27.035  30.253  17.589  1.00  0.00     0.407 C 
ATOM      3  O   UNL     1      25.987  30.714  18.065  1.00  0.00    -0.225 OA
ATOM      4  H   UNL     1      28.752  29.082  17.887  1.00  0.00     0.167 HD
ENDROOT
BRANCH   1   5
ATOM      5  C   UNL     1      27.638  29.073  19.752  1.00  0.00     0.154 C 
BRANCH   5   6
ATOM      6  C   UNL     1      28.544  27.994  20.209  1.00  0.00     0.165 C 
BRANCH   6   7
ATOM      7  C   UNL     1      29.930  28.422  20.639  1.00  0.00     0.176 C 
BRANCH   7   8
ATOM      8  C   UNL     1      30.011  29.031  22.006  1.00  0.00     0.178 C 
ATOM      9  C   UNL     1      32.270  28.514  22.207  1.00  0.00     0.269 C 
ATOM     10  C   UNL     1      31.912  27.165  22.699  1.00  0.00     0.112 C 
ATOM     11  O   UNL     1      31.299  29.476  22.299  1.00  0.00    -0.332 OA
ATOM     12  C   UNL     1      30.560  27.003  23.292  1.00  0.00     0.145 C 
ATOM     13  C   UNL     1      29.626  28.155  23.155  1.00  0.00     0.142 C 
BRANCH   9  14
ATOM     14  O   UNL     1      32.672  28.489  20.849  1.00  0.00    -0.357 OA
ATOM     15  H   UNL     1      32.028  27.991  20.293  1.00  0.00     0.214 HD
ENDBRANCH   9  14
BRANCH   9  16
ATOM     16  C   UNL     1      33.458  29.039  22.938  1.00  0.00     0.364 C 
ATOM     17  O   UNL     1      33.322  29.772  23.976  1.00  0.00    -0.246 OA
BRANCH  16  18
ATOM     18  O   UNL     1      34.768  28.782  22.564  1.00  0.00    -0.477 OA
ATOM     19  H   UNL     1      34.945  27.914  22.047  1.00  0.00     0.296 HD
ENDBRANCH  16  18
ENDBRANCH   9  16
BRANCH  12  20
ATOM     20  O   UNL     1      29.959  25.887  22.702  1.00  0.00    -0.391 OA
ATOM     21  H   UNL     1      29.629  25.247  23.405  1.00  0.00     0.211 HD
ENDBRANCH  12  20
BRANCH  13  22
ATOM     22  N   UNL     1      29.556  29.003  24.322  1.00  0.00    -0.348 N 
ATOM     23  C   UNL     1      28.526  28.927  25.265  1.00  0.00     0.217 C 
ATOM     24  H   UNL     1      30.317  29.697  24.444  1.00  0.00     0.163 HD
ATOM     25  C   UNL     1      28.430  29.785  26.474  1.00  0.00     0.114 C 
ATOM     26  O   UNL     1      27.635  28.080  25.066  1.00  0.00    -0.275 OA
ENDBRANCH  13  22
ENDBRANCH   7   8
BRANCH   7  27
ATOM     27  O   UNL     1      30.184  29.551  19.770  1.00  0.00    -0.388 OA
ATOM     28  H   UNL     1      30.563  29.105  18.952  1.00  0.00     0.211 HD
ENDBRANCH   7  27
ENDBRANCH   6   7
BRANCH   6  29
ATOM     29  O   UNL     1      28.522  26.805  19.544  1.00  0.00    -0.388 OA
ATOM     30  H   UNL     1      27.715  26.664  19.026  1.00  0.00     0.211 HD
ENDBRANCH   6  29
ENDBRANCH   5   6
ENDBRANCH   1   5
BRANCH   2  31
ATOM     31  O   UNL     1      27.375  30.555  16.251  1.00  0.00    -0.443 OA
BRANCH  31  32
ATOM     32  C   UNL     1      28.662  30.195  15.748  1.00  0.00     0.294 C 
BRANCH  32  33
ATOM     33  C   UNL     1      29.484  31.420  15.692  1.00  0.00     0.120 A 
ATOM     34  C   UNL     1      29.040  32.681  15.330  1.00  0.00     0.138 A 
ATOM     35  N   UNL     1      30.789  31.550  15.966  1.00  0.00    -0.132 NA
ATOM     36  N   UNL     1      30.087  33.516  15.399  1.00  0.00    -0.249 N 
ATOM     37  N   UNL     1      31.126  32.811  15.784  1.00  0.00    -0.067 NA
BRANCH  36  38
ATOM     38  C   UNL     1      30.035  34.929  15.098  1.00  0.00     0.187 C 
BRANCH  38  39
ATOM     39  C   UNL     1      29.834  35.092  13.610  1.00  0.00     0.256 C 
BRANCH  39  40
ATOM     40  O   UNL     1      31.002  34.730  12.932  1.00  0.00    -0.464 OA
BRANCH  40  41
ATOM     41  C   UNL     1      32.123  35.505  12.969  1.00  0.00     0.302 C 
ATOM     42  O   UNL     1      33.185  35.089  13.470  1.00  0.00    -0.253 OA
ATOM     43  C   UNL     1      32.105  36.897  12.399  1.00  0.00     0.139 C 
ENDBRANCH  40  41
ENDBRANCH  39  40
ENDBRANCH  38  39
ENDBRANCH  36  38
ENDBRANCH  32  33
ENDBRANCH  31  32
ENDBRANCH   2  31
TORSDOF 18
BEGIN_RES LYS A 131
REMARK  4 active torsions:
REMARK  status: ('A' for Active; 'I' for Inactive)
REMARK    1  A    between atoms: CA   and  CB  
REMARK    2  A    between atoms: CB   and  CG  
REMARK    3  A    between atoms: CG   and  CD  
REMARK    4  A    between atoms: CD   and  CE  
ROOT
ATOM      1  CA  LYS A 131      29.867  25.555  16.977  1.00 20.52     0.186 C 
ENDROOT
BRANCH   1   2
ATOM      2  CB  LYS A 131      28.345  25.722  17.026  1.00 20.94     0.034 C 
BRANCH   2   3
ATOM      3  CG  LYS A 131      27.601  24.402  16.896  1.00 22.96     0.005 C 
BRANCH   3   4
ATOM      4  CD  LYS A 131      26.164  24.516  17.324  1.00 24.33     0.041 C 
BRANCH   4   5
ATOM      5  CE  LYS A 131      25.987  23.867  18.693  1.00 26.91     0.338 C 
ATOM      6  NZ  LYS A 131      25.607  24.883  19.703  1.00 27.40     0.618 N 
ENDBRANCH   4   5
ENDBRANCH   3   4
ENDBRANCH   2   3
ENDBRANCH   1   2
END_RES LYS A 131
BEGIN_RES LYS A 135
REMARK  4 active torsions:
REMARK  status: ('A' for Active; 'I' for Inactive)
REMARK    5  A    between atoms: CA   and  CB  
REMARK    6  A    between atoms: CB   and  CG  
REMARK    7  A    between atoms: CG   and  CD  
REMARK    8  A    between atoms: CD   and  CE  
ROOT
ATOM      7  CA  LYS A 135      33.193  34.663   9.290  1.00 25.02     0.186 C 
ENDROOT
BRANCH   7   8
ATOM      8  CB  LYS A 135      32.060  35.360  10.034  1.00 26.63     0.034 C 
BRANCH   8   9
ATOM      9  CG  LYS A 135      30.776  35.430   9.248  1.00 29.45     0.005 C 
BRANCH   9  10
ATOM     10  CD  LYS A 135      30.216  34.037   9.009  1.00 32.00     0.041 C 
BRANCH  10  11
ATOM     11  CE  LYS A 135      28.702  34.049   9.101  1.00 34.25     0.338 C 
ATOM     12  NZ  LYS A 135      28.248  34.590  10.412  1.00 35.99     0.618 N 
ENDBRANCH  10  11
ENDBRANCH   9  10
ENDBRANCH   8   9
ENDBRANCH   7   8
END_RES LYS A 135
