REMARK VINA RESULT:    -4.285      2.903      5.814
REMARK INTER + INTRA:         -14.775
REMARK INTER:                  -7.666
REMARK INTRA:                  -7.109
REMARK UNBOUND:                -7.109
REMARK SMILES CC(=O)N[C@@H]1[C@@H](O)C[C@](O)(C(=O)O)O[C@H]1C(O)[C@H](O)CNC(=O)OCc1cn(-c2ncn3c2c(=O)n(C(C)C)c2ccccc23)nn1
REMARK SMILES IDX 21 1 22 2 23 3 20 5 18 6 16 7 15 8 9 9 8 10 14 11 6 12 5 13
REMARK SMILES IDX 10 14 11 16 12 17 13 18 7 20 4 22 2 23 1 25 3 26 17 27 19 29
REMARK SMILES IDX 24 31 25 32 26 33 27 34 47 35 28 36 46 37 29 38 30 39 33 40
REMARK SMILES IDX 31 41 32 42 34 43 45 44 36 45 35 46 44 47 40 48 43 49 41 50
REMARK SMILES IDX 42 51 37 52 38 53 39 54
REMARK H PARENT 21 4 10 15 13 19 7 21 4 24 17 28 19 30
REMARK Flexibility Score: inf
ROOT
ATOM      1  N   UNL     1      26.140  34.355  18.303  1.00  0.00    -0.319 N 
ATOM      2  C   UNL     1      25.374  34.144  17.157  1.00  0.00     0.407 C 
ATOM      3  O   UNL     1      24.444  33.338  17.088  1.00  0.00    -0.225 OA
ATOM      4  H   UNL     1      26.911  35.128  18.219  1.00  0.00     0.167 HD
ENDROOT
BRANCH   1   5
ATOM      5  C   UNL     1      26.019  33.680  19.538  1.00  0.00     0.154 C 
BRANCH   5   6
ATOM      6  C   UNL     1      27.160  32.869  19.965  1.00  0.00     0.165 C 
BRANCH   6   7
ATOM      7  C   UNL     1      27.778  31.836  19.116  1.00  0.00     0.176 C 
BRANCH   7   8
ATOM      8  C   UNL     1      26.675  30.760  18.889  1.00  0.00     0.178 C 
ATOM      9  C   UNL     1      27.758  28.717  19.300  1.00  0.00     0.269 C 
ATOM     10  C   UNL     1      27.434  28.260  17.917  1.00  0.00     0.112 C 
ATOM     11  O   UNL     1      26.933  29.718  19.698  1.00  0.00    -0.332 OA
ATOM     12  C   UNL     1      27.311  29.373  16.908  1.00  0.00     0.145 C 
ATOM     13  C   UNL     1      26.471  30.512  17.441  1.00  0.00     0.142 C 
BRANCH   9  14
ATOM     14  O   UNL     1      29.092  29.195  19.350  1.00  0.00    -0.357 OA
ATOM     15  H   UNL     1      29.607  28.470  19.796  1.00  0.00     0.214 HD
ENDBRANCH   9  14
BRANCH   9  16
ATOM     16  C   UNL     1      27.648  27.506  20.181  1.00  0.00     0.364 C 
ATOM     17  O   UNL     1      26.622  27.326  20.850  1.00  0.00    -0.246 OA
BRANCH  16  18
ATOM     18  O   UNL     1      28.683  26.604  20.239  1.00  0.00    -0.477 OA
ATOM     19  H   UNL     1      28.946  26.057  19.414  1.00  0.00     0.296 HD
ENDBRANCH  16  18
ENDBRANCH   9  16
BRANCH  12  20
ATOM     20  O   UNL     1      28.553  29.845  16.477  1.00  0.00    -0.391 OA
ATOM     21  H   UNL     1      28.590  29.814  15.491  1.00  0.00     0.211 HD
ENDBRANCH  12  20
BRANCH  13  22
ATOM     22  N   UNL     1      25.072  30.186  17.134  1.00  0.00    -0.348 N 
ATOM     23  C   UNL     1      24.544  30.259  15.829  1.00  0.00     0.217 C 
ATOM     24  H   UNL     1      24.409  29.882  17.902  1.00  0.00     0.163 HD
ATOM     25  C   UNL     1      23.128  29.928  15.524  1.00  0.00     0.114 C 
ATOM     26  O   UNL     1      25.286  30.617  14.866  1.00  0.00    -0.275 OA
ENDBRANCH  13  22
ENDBRANCH   7   8
BRANCH   7  27
ATOM     27  O   UNL     1      28.217  32.277  17.866  1.00  0.00    -0.388 OA
ATOM     28  H   UNL     1      27.515  32.858  17.435  1.00  0.00     0.211 HD
ENDBRANCH   7  27
ENDBRANCH   6   7
BRANCH   6  29
ATOM     29  O   UNL     1      26.753  32.258  21.212  1.00  0.00    -0.388 OA
ATOM     30  H   UNL     1      27.493  31.771  21.612  1.00  0.00     0.211 HD
ENDBRANCH   6  29
ENDBRANCH   5   6
ENDBRANCH   1   5
BRANCH   2  31
ATOM     31  O   UNL     1      25.635  34.867  15.970  1.00  0.00    -0.443 OA
BRANCH  31  32
ATOM     32  C   UNL     1      26.069  34.231  14.803  1.00  0.00     0.294 C 
BRANCH  32  33
ATOM     33  C   UNL     1      27.482  33.804  14.962  1.00  0.00     0.121 A 
ATOM     34  C   UNL     1      28.602  34.628  15.031  1.00  0.00     0.146 A 
ATOM     35  N   UNL     1      27.976  32.558  15.076  1.00  0.00    -0.131 NA
ATOM     36  N   UNL     1      29.727  33.872  15.183  1.00  0.00    -0.200 N 
ATOM     37  N   UNL     1      29.286  32.640  15.203  1.00  0.00    -0.060 NA
BRANCH  36  38
ATOM     38  C   UNL     1      31.036  34.422  15.290  1.00  0.00     0.186 A 
ATOM     39  N   UNL     1      31.868  34.704  14.243  1.00  0.00    -0.216 NA
ATOM     40  C   UNL     1      31.733  34.779  16.414  1.00  0.00     0.158 A 
ATOM     41  C   UNL     1      33.010  35.209  14.727  1.00  0.00     0.207 A 
ATOM     42  N   UNL     1      32.963  35.270  16.070  1.00  0.00    -0.291 N 
ATOM     43  C   UNL     1      31.425  34.733  17.738  1.00  0.00     0.279 A 
ATOM     44  C   UNL     1      33.848  35.695  16.991  1.00  0.00     0.071 A 
ATOM     45  N   UNL     1      32.269  35.142  18.681  1.00  0.00    -0.302 N 
ATOM     46  O   UNL     1      30.314  34.293  18.129  1.00  0.00    -0.267 OA
ATOM     47  C   UNL     1      35.079  36.183  16.607  1.00  0.00     0.029 A 
ATOM     48  C   UNL     1      33.477  35.622  18.318  1.00  0.00     0.068 A 
ATOM     49  C   UNL     1      36.010  36.627  17.532  1.00  0.00     0.002 A 
ATOM     50  C   UNL     1      34.426  36.072  19.225  1.00  0.00     0.028 A 
ATOM     51  C   UNL     1      35.662  36.563  18.854  1.00  0.00     0.002 A 
BRANCH  45  52
ATOM     52  C   UNL     1      32.004  35.122  20.103  1.00  0.00     0.085 C 
ATOM     53  C   UNL     1      31.882  33.670  20.513  1.00  0.00     0.031 C 
ATOM     54  C   UNL     1      30.745  35.817  20.513  1.00  0.00     0.031 C 
ENDBRANCH  45  52
ENDBRANCH  36  38
ENDBRANCH  32  33
ENDBRANCH  31  32
ENDBRANCH   2  31
TORSDOF 16
BEGIN_RES LYS A 131
REMARK  4 active torsions:
REMARK  status: ('A' for Active; 'I' for Inactive)
REMARK    1  A    between atoms: CA   and  CB  
REMARK    2  A    between atoms: CB   and  CG  
REMARK    3  A    between atoms: CG   and  CD  
REMARK    4  A    between atoms: CD   and  CE  
ROOT
ATOM      1  CA  LYS A 131      29.867  25.555  16.977  1.00 20.52     0.186 C 
ENDROOT
BRANCH   1   2
ATOM      2  CB  LYS A 131      28.345  25.722  17.026  1.00 20.94     0.034 C 
BRANCH   2   3
ATOM      3  CG  LYS A 131      27.601  24.401  16.899  1.00 22.96     0.005 C 
BRANCH   3   4
ATOM      4  CD  LYS A 131      26.146  24.534  17.253  1.00 24.33     0.041 C 
BRANCH   4   5
ATOM      5  CE  LYS A 131      25.986  24.505  18.770  1.00 26.91     0.338 C 
ATOM      6  NZ  LYS A 131      25.489  23.181  19.214  1.00 27.40     0.618 N 
ENDBRANCH   4   5
ENDBRANCH   3   4
ENDBRANCH   2   3
ENDBRANCH   1   2
END_RES LYS A 131
BEGIN_RES LYS A 135
REMARK  4 active torsions:
REMARK  status: ('A' for Active; 'I' for Inactive)
REMARK    5  A    between atoms: CA   and  CB  
REMARK    6  A    between atoms: CB   and  CG  
REMARK    7  A    between atoms: CG   and  CD  
REMARK    8  A    between atoms: CD   and  CE  
ROOT
ATOM      7  CA  LYS A 135      33.193  34.663   9.290  1.00 25.02     0.186 C 
ENDROOT
BRANCH   7   8
ATOM      8  CB  LYS A 135      32.060  35.360  10.034  1.00 26.63     0.034 C 
BRANCH   8   9
ATOM      9  CG  LYS A 135      30.703  34.766   9.758  1.00 29.45     0.005 C 
BRANCH   9  10
ATOM     10  CD  LYS A 135      30.433  34.716   8.262  1.00 32.00     0.041 C 
BRANCH  10  11
ATOM     11  CE  LYS A 135      28.943  34.649   7.991  1.00 34.25     0.338 C 
ATOM     12  NZ  LYS A 135      28.214  34.057   9.147  1.00 35.99     0.618 N 
ENDBRANCH  10  11
ENDBRANCH   9  10
ENDBRANCH   8   9
ENDBRANCH   7   8
END_RES LYS A 135
