REMARK VINA RESULT:    -4.961      5.253     10.276
REMARK INTER + INTRA:         -14.443
REMARK INTER:                  -9.638
REMARK INTRA:                  -4.805
REMARK UNBOUND:                -5.276
REMARK SMILES COc1ccc(Cn2cc(COC(=O)NC[C@@H](O)C(O)[C@@H]3O[C@@](O)(C(=O)O)C[C@H](O)[C@H]3NC(C)=O)nn2)cc1
REMARK SMILES IDX 15 1 13 2 14 3 16 5 17 6 19 7 21 8 23 9 28 10 22 11 29 12
REMARK SMILES IDX 31 13 24 14 25 16 26 17 27 18 30 20 32 22 33 23 34 25 35 26
REMARK SMILES IDX 20 27 18 29 12 31 11 32 10 33 9 34 36 35 8 36 37 37 7 38
REMARK SMILES IDX 6 39 5 40 38 41 4 42 39 43 3 44 2 45 1 46
REMARK H PARENT 15 4 24 15 27 19 30 21 32 24 20 28 18 30
REMARK Flexibility Score: inf
ROOT
ATOM      1  N   UNL     1      25.028  33.450  13.751  1.00  0.00    -0.319 N 
ATOM      2  C   UNL     1      24.703  32.123  14.106  1.00  0.00     0.407 C 
ATOM      3  O   UNL     1      24.650  31.183  13.276  1.00  0.00    -0.225 OA
ATOM      4  H   UNL     1      25.037  34.156  14.524  1.00  0.00     0.167 HD
ENDROOT
BRANCH   1   5
ATOM      5  C   UNL     1      25.339  33.878  12.425  1.00  0.00     0.154 C 
BRANCH   5   6
ATOM      6  C   UNL     1      24.234  34.579  11.714  1.00  0.00     0.165 C 
BRANCH   6   7
ATOM      7  C   UNL     1      24.728  35.686  10.809  1.00  0.00     0.176 C 
BRANCH   7   8
ATOM      8  C   UNL     1      23.668  36.328   9.988  1.00  0.00     0.178 C 
ATOM      9  C   UNL     1      21.692  35.950   8.844  1.00  0.00     0.269 C 
ATOM     10  C   UNL     1      22.120  36.813   7.691  1.00  0.00     0.112 C 
ATOM     11  O   UNL     1      22.695  35.415   9.588  1.00  0.00    -0.332 OA
ATOM     12  C   UNL     1      23.317  37.680   8.023  1.00  0.00     0.145 C 
ATOM     13  C   UNL     1      24.323  36.801   8.685  1.00  0.00     0.142 C 
BRANCH   9  14
ATOM     14  O   UNL     1      21.016  34.853   8.248  1.00  0.00    -0.357 OA
ATOM     15  H   UNL     1      20.201  35.239   7.844  1.00  0.00     0.214 HD
ENDBRANCH   9  14
BRANCH   9  16
ATOM     16  C   UNL     1      20.666  36.696   9.611  1.00  0.00     0.364 C 
ATOM     17  O   UNL     1      20.072  37.711   9.142  1.00  0.00    -0.246 OA
BRANCH  16  18
ATOM     18  O   UNL     1      20.296  36.319  10.901  1.00  0.00    -0.477 OA
ATOM     19  H   UNL     1      20.020  37.005  11.578  1.00  0.00     0.296 HD
ENDBRANCH  16  18
ENDBRANCH   9  16
BRANCH  12  20
ATOM     20  O   UNL     1      23.784  38.291   6.875  1.00  0.00    -0.391 OA
ATOM     21  H   UNL     1      23.389  37.869   6.097  1.00  0.00     0.211 HD
ENDBRANCH  12  20
BRANCH  13  22
ATOM     22  N   UNL     1      25.607  37.397   8.874  1.00  0.00    -0.348 N 
ATOM     23  C   UNL     1      26.688  37.291   7.988  1.00  0.00     0.217 C 
ATOM     24  H   UNL     1      25.756  37.967   9.750  1.00  0.00     0.163 HD
ATOM     25  C   UNL     1      27.973  37.959   8.300  1.00  0.00     0.114 C 
ATOM     26  O   UNL     1      26.576  36.641   6.944  1.00  0.00    -0.275 OA
ENDBRANCH  13  22
ENDBRANCH   7   8
BRANCH   7  27
ATOM     27  O   UNL     1      25.406  36.620  11.562  1.00  0.00    -0.388 OA
ATOM     28  H   UNL     1      24.993  36.852  12.423  1.00  0.00     0.211 HD
ENDBRANCH   7  27
ENDBRANCH   6   7
BRANCH   6  29
ATOM     29  O   UNL     1      23.228  34.996  12.535  1.00  0.00    -0.388 OA
ATOM     30  H   UNL     1      23.647  35.425  13.341  1.00  0.00     0.211 HD
ENDBRANCH   6  29
ENDBRANCH   5   6
ENDBRANCH   1   5
BRANCH   2  31
ATOM     31  O   UNL     1      24.421  31.815  15.450  1.00  0.00    -0.443 OA
BRANCH  31  32
ATOM     32  C   UNL     1      25.186  32.443  16.453  1.00  0.00     0.294 C 
BRANCH  32  33
ATOM     33  C   UNL     1      26.411  31.692  16.779  1.00  0.00     0.120 A 
ATOM     34  C   UNL     1      27.669  31.830  16.185  1.00  0.00     0.138 A 
ATOM     35  N   UNL     1      26.569  30.728  17.703  1.00  0.00    -0.132 NA
ATOM     36  N   UNL     1      28.516  30.965  16.761  1.00  0.00    -0.248 N 
ATOM     37  N   UNL     1      27.826  30.311  17.675  1.00  0.00    -0.067 NA
BRANCH  36  38
ATOM     38  C   UNL     1      29.909  30.763  16.464  1.00  0.00     0.181 C 
BRANCH  38  39
ATOM     39  C   UNL     1      30.661  32.036  16.496  1.00  0.00    -0.026 A 
ATOM     40  C   UNL     1      30.780  32.748  17.667  1.00  0.00     0.009 A 
ATOM     41  C   UNL     1      31.243  32.511  15.349  1.00  0.00     0.009 A 
ATOM     42  C   UNL     1      31.490  33.946  17.688  1.00  0.00     0.047 A 
ATOM     43  C   UNL     1      31.957  33.708  15.356  1.00  0.00     0.047 A 
ATOM     44  C   UNL     1      32.076  34.416  16.524  1.00  0.00     0.118 A 
BRANCH  44  45
ATOM     45  O   UNL     1      32.784  35.619  16.564  1.00  0.00    -0.497 OA
ATOM     46  C   UNL     1      32.696  36.517  15.471  1.00  0.00     0.278 C 
ENDBRANCH  44  45
ENDBRANCH  38  39
ENDBRANCH  36  38
ENDBRANCH  32  33
ENDBRANCH  31  32
ENDBRANCH   2  31
TORSDOF 17
BEGIN_RES LYS A 131
REMARK  4 active torsions:
REMARK  status: ('A' for Active; 'I' for Inactive)
REMARK    1  A    between atoms: CA   and  CB  
REMARK    2  A    between atoms: CB   and  CG  
REMARK    3  A    between atoms: CG   and  CD  
REMARK    4  A    between atoms: CD   and  CE  
ROOT
ATOM      1  CA  LYS A 131      29.867  25.555  16.977  1.00 20.52     0.186 C 
ENDROOT
BRANCH   1   2
ATOM      2  CB  LYS A 131      28.345  25.722  17.026  1.00 20.94     0.034 C 
BRANCH   2   3
ATOM      3  CG  LYS A 131      27.601  24.402  16.897  1.00 22.96     0.005 C 
BRANCH   3   4
ATOM      4  CD  LYS A 131      26.152  24.528  17.278  1.00 24.33     0.041 C 
BRANCH   4   5
ATOM      5  CE  LYS A 131      25.636  23.180  17.771  1.00 26.91     0.338 C 
ATOM      6  NZ  LYS A 131      25.515  23.179  19.248  1.00 27.40     0.618 N 
ENDBRANCH   4   5
ENDBRANCH   3   4
ENDBRANCH   2   3
ENDBRANCH   1   2
END_RES LYS A 131
BEGIN_RES LYS A 135
REMARK  4 active torsions:
REMARK  status: ('A' for Active; 'I' for Inactive)
REMARK    5  A    between atoms: CA   and  CB  
REMARK    6  A    between atoms: CB   and  CG  
REMARK    7  A    between atoms: CG   and  CD  
REMARK    8  A    between atoms: CD   and  CE  
ROOT
ATOM      7  CA  LYS A 135      33.193  34.663   9.290  1.00 25.02     0.186 C 
ENDROOT
BRANCH   7   8
ATOM      8  CB  LYS A 135      32.060  35.360  10.034  1.00 26.63     0.034 C 
BRANCH   8   9
ATOM      9  CG  LYS A 135      30.798  35.494   9.221  1.00 29.45     0.005 C 
BRANCH   9  10
ATOM     10  CD  LYS A 135      30.215  34.125   8.907  1.00 32.00     0.041 C 
BRANCH  10  11
ATOM     11  CE  LYS A 135      28.705  34.142   9.052  1.00 34.25     0.338 C 
ATOM     12  NZ  LYS A 135      28.301  34.680  10.381  1.00 35.99     0.618 N 
ENDBRANCH  10  11
ENDBRANCH   9  10
ENDBRANCH   8   9
ENDBRANCH   7   8
END_RES LYS A 135
