REMARK VINA RESULT:    -4.942      4.033      8.153
REMARK INTER + INTRA:         -14.538
REMARK INTER:                  -7.243
REMARK INTRA:                  -7.296
REMARK UNBOUND:                -5.118
REMARK SMILES COc1ccc(Cn2cc(COC(=O)NC[C@@H](O)C(O)[C@@H]3O[C@@](O)(C(=O)O)C[C@H](O)[C@H]3NC(C)=O)nn2)cc1OC
REMARK SMILES IDX 15 1 13 2 14 3 16 5 17 6 19 7 21 8 23 9 28 10 22 11 29 12
REMARK SMILES IDX 31 13 24 14 25 16 26 17 27 18 30 20 32 22 33 23 34 25 35 26
REMARK SMILES IDX 20 27 18 29 12 31 11 32 10 33 9 34 36 35 8 36 37 37 7 38
REMARK SMILES IDX 6 39 38 40 5 41 39 42 4 43 3 44 40 45 41 46 2 47 1 48
REMARK H PARENT 15 4 24 15 27 19 30 21 32 24 20 28 18 30
REMARK Flexibility Score: inf
ROOT
ATOM      1  N   UNL     1      26.990  26.678  22.639  1.00  0.00    -0.319 N 
ATOM      2  C   UNL     1      25.925  25.823  22.324  1.00  0.00     0.407 C 
ATOM      3  O   UNL     1      25.587  24.894  23.089  1.00  0.00    -0.225 OA
ATOM      4  H   UNL     1      27.220  27.438  21.928  1.00  0.00     0.167 HD
ENDROOT
BRANCH   1   5
ATOM      5  C   UNL     1      27.803  26.620  23.841  1.00  0.00     0.154 C 
BRANCH   5   6
ATOM      6  C   UNL     1      29.029  27.448  23.692  1.00  0.00     0.165 C 
BRANCH   6   7
ATOM      7  C   UNL     1      30.284  26.659  23.412  1.00  0.00     0.176 C 
BRANCH   7   8
ATOM      8  C   UNL     1      30.998  27.043  22.160  1.00  0.00     0.178 C 
ATOM      9  C   UNL     1      32.681  28.524  22.805  1.00  0.00     0.269 C 
ATOM     10  C   UNL     1      32.679  29.315  21.505  1.00  0.00     0.112 C 
ATOM     11  O   UNL     1      32.356  27.232  22.490  1.00  0.00    -0.332 OA
ATOM     12  C   UNL     1      31.715  28.678  20.545  1.00  0.00     0.145 C 
ATOM     13  C   UNL     1      30.463  28.118  21.316  1.00  0.00     0.142 C 
BRANCH   9  14
ATOM     14  O   UNL     1      31.866  29.122  23.760  1.00  0.00    -0.357 OA
ATOM     15  H   UNL     1      31.413  28.459  24.344  1.00  0.00     0.214 HD
ENDBRANCH   9  14
BRANCH   9  16
ATOM     16  C   UNL     1      34.062  28.523  23.368  1.00  0.00     0.364 C 
ATOM     17  O   UNL     1      34.482  27.489  23.940  1.00  0.00    -0.246 OA
BRANCH  16  18
ATOM     18  O   UNL     1      34.904  29.622  23.286  1.00  0.00    -0.477 OA
ATOM     19  H   UNL     1      35.922  29.524  23.181  1.00  0.00     0.296 HD
ENDBRANCH  16  18
ENDBRANCH   9  16
BRANCH  12  20
ATOM     20  O   UNL     1      31.266  29.570  19.576  1.00  0.00    -0.391 OA
ATOM     21  H   UNL     1      31.695  30.447  19.669  1.00  0.00     0.211 HD
ENDBRANCH  12  20
BRANCH  13  22
ATOM     22  N   UNL     1      29.638  27.593  20.218  1.00  0.00    -0.348 N 
ATOM     23  C   UNL     1      28.289  27.958  19.998  1.00  0.00     0.217 C 
ATOM     24  H   UNL     1      30.048  26.896  19.529  1.00  0.00     0.163 HD
ATOM     25  C   UNL     1      27.478  27.408  18.882  1.00  0.00     0.114 C 
ATOM     26  O   UNL     1      27.737  28.781  20.770  1.00  0.00    -0.275 OA
ENDBRANCH  13  22
ENDBRANCH   7   8
BRANCH   7  27
ATOM     27  O   UNL     1      29.865  25.285  23.187  1.00  0.00    -0.388 OA
ATOM     28  H   UNL     1      30.523  24.886  22.568  1.00  0.00     0.211 HD
ENDBRANCH   7  27
ENDBRANCH   6   7
BRANCH   6  29
ATOM     29  O   UNL     1      29.181  28.477  24.584  1.00  0.00    -0.388 OA
ATOM     30  H   UNL     1      30.057  28.514  25.012  1.00  0.00     0.211 HD
ENDBRANCH   6  29
ENDBRANCH   5   6
ENDBRANCH   1   5
BRANCH   2  31
ATOM     31  O   UNL     1      25.195  25.985  21.126  1.00  0.00    -0.443 OA
BRANCH  31  32
ATOM     32  C   UNL     1      23.995  26.771  21.181  1.00  0.00     0.294 C 
BRANCH  32  33
ATOM     33  C   UNL     1      24.243  28.155  20.782  1.00  0.00     0.120 A 
ATOM     34  C   UNL     1      24.315  28.637  19.500  1.00  0.00     0.138 A 
ATOM     35  N   UNL     1      24.435  29.191  21.614  1.00  0.00    -0.132 NA
ATOM     36  N   UNL     1      24.547  29.943  19.573  1.00  0.00    -0.248 N 
ATOM     37  N   UNL     1      24.616  30.260  20.849  1.00  0.00    -0.067 NA
BRANCH  36  38
ATOM     38  C   UNL     1      24.708  30.876  18.464  1.00  0.00     0.181 C 
BRANCH  38  39
ATOM     39  C   UNL     1      26.139  30.841  18.028  1.00  0.00    -0.023 A 
ATOM     40  C   UNL     1      27.112  31.427  18.837  1.00  0.00     0.056 A 
ATOM     41  C   UNL     1      26.545  30.242  16.855  1.00  0.00     0.010 A 
ATOM     42  C   UNL     1      28.438  31.410  18.478  1.00  0.00     0.161 A 
ATOM     43  C   UNL     1      27.870  30.209  16.466  1.00  0.00     0.051 A 
ATOM     44  C   UNL     1      28.799  30.797  17.292  1.00  0.00     0.160 A 
BRANCH  42  45
ATOM     45  O   UNL     1      29.420  31.992  19.274  1.00  0.00    -0.493 OA
ATOM     46  C   UNL     1      29.180  32.100  20.667  1.00  0.00     0.278 C 
ENDBRANCH  42  45
BRANCH  44  47
ATOM     47  O   UNL     1      30.139  30.786  16.938  1.00  0.00    -0.493 OA
ATOM     48  C   UNL     1      30.681  31.716  16.019  1.00  0.00     0.278 C 
ENDBRANCH  44  47
ENDBRANCH  38  39
ENDBRANCH  36  38
ENDBRANCH  32  33
ENDBRANCH  31  32
ENDBRANCH   2  31
TORSDOF 18
BEGIN_RES LYS A 131
REMARK  4 active torsions:
REMARK  status: ('A' for Active; 'I' for Inactive)
REMARK    1  A    between atoms: CA   and  CB  
REMARK    2  A    between atoms: CB   and  CG  
REMARK    3  A    between atoms: CG   and  CD  
REMARK    4  A    between atoms: CD   and  CE  
ROOT
ATOM      1  CA  LYS A 131      29.867  25.555  16.977  1.00 20.52     0.186 C 
ENDROOT
BRANCH   1   2
ATOM      2  CB  LYS A 131      28.345  25.722  17.026  1.00 20.94     0.034 C 
BRANCH   2   3
ATOM      3  CG  LYS A 131      27.601  24.402  16.894  1.00 22.96     0.005 C 
BRANCH   3   4
ATOM      4  CD  LYS A 131      26.154  24.526  17.284  1.00 24.33     0.041 C 
BRANCH   4   5
ATOM      5  CE  LYS A 131      25.875  23.639  18.493  1.00 26.91     0.338 C 
ATOM      6  NZ  LYS A 131      24.417  23.556  18.750  1.00 27.40     0.618 N 
ENDBRANCH   4   5
ENDBRANCH   3   4
ENDBRANCH   2   3
ENDBRANCH   1   2
END_RES LYS A 131
BEGIN_RES LYS A 135
REMARK  4 active torsions:
REMARK  status: ('A' for Active; 'I' for Inactive)
REMARK    5  A    between atoms: CA   and  CB  
REMARK    6  A    between atoms: CB   and  CG  
REMARK    7  A    between atoms: CG   and  CD  
REMARK    8  A    between atoms: CD   and  CE  
ROOT
ATOM      7  CA  LYS A 135      33.193  34.663   9.290  1.00 25.02     0.186 C 
ENDROOT
BRANCH   7   8
ATOM      8  CB  LYS A 135      32.060  35.360  10.034  1.00 26.63     0.034 C 
BRANCH   8   9
ATOM      9  CG  LYS A 135      30.709  34.736   9.795  1.00 29.45     0.005 C 
BRANCH   9  10
ATOM     10  CD  LYS A 135      30.469  34.529   8.308  1.00 32.00     0.041 C 
BRANCH  10  11
ATOM     11  CE  LYS A 135      29.023  34.823   7.956  1.00 34.25     0.338 C 
ATOM     12  NZ  LYS A 135      28.922  35.528   6.648  1.00 35.99     0.618 N 
ENDBRANCH  10  11
ENDBRANCH   9  10
ENDBRANCH   8   9
ENDBRANCH   7   8
END_RES LYS A 135
