REMARK VINA RESULT:    -4.768      3.035      8.557
REMARK INTER + INTRA:         -14.717
REMARK INTER:                  -8.651
REMARK INTRA:                  -6.066
REMARK UNBOUND:                -6.187
REMARK SMILES CC(=O)N[C@@H]1[C@@H](O)C[C@](O)(C(=O)O)O[C@H]1C(O)[C@H](O)CNC(=O)OCc1cn(-c2cc(Cl)ccc2C(=O)N(C)C)nn1
REMARK SMILES IDX 21 1 22 2 23 3 20 5 18 6 16 7 15 8 9 9 8 10 14 11 6 12 5 13
REMARK SMILES IDX 10 14 11 16 12 17 13 18 7 20 4 22 2 23 1 25 3 26 17 27 19 29
REMARK SMILES IDX 24 31 25 32 26 33 27 34 42 35 28 36 41 37 29 38 30 39 35 40
REMARK SMILES IDX 31 41 34 42 32 43 33 44 36 45 37 46 38 47 39 48 40 49
REMARK H PARENT 21 4 10 15 13 19 7 21 4 24 17 28 19 30
REMARK Flexibility Score: inf
ROOT
ATOM      1  N   UNL     1      29.425  37.642  14.441  1.00  0.00    -0.319 N 
ATOM      2  C   UNL     1      30.327  37.390  13.397  1.00  0.00     0.407 C 
ATOM      3  O   UNL     1      30.910  36.290  13.321  1.00  0.00    -0.225 OA
ATOM      4  H   UNL     1      28.938  38.566  14.493  1.00  0.00     0.167 HD
ENDROOT
BRANCH   1   5
ATOM      5  C   UNL     1      29.132  36.672  15.463  1.00  0.00     0.154 C 
BRANCH   5   6
ATOM      6  C   UNL     1      27.819  35.995  15.164  1.00  0.00     0.165 C 
BRANCH   6   7
ATOM      7  C   UNL     1      27.996  34.623  14.565  1.00  0.00     0.176 C 
BRANCH   7   8
ATOM      8  C   UNL     1      29.005  33.842  15.317  1.00  0.00     0.178 C 
ATOM      9  C   UNL     1      31.156  33.059  15.448  1.00  0.00     0.269 C 
ATOM     10  C   UNL     1      30.714  32.789  16.864  1.00  0.00     0.112 C 
ATOM     11  O   UNL     1      30.163  33.529  14.626  1.00  0.00    -0.332 OA
ATOM     12  C   UNL     1      29.400  32.086  16.949  1.00  0.00     0.145 C 
ATOM     13  C   UNL     1      28.445  32.519  15.841  1.00  0.00     0.142 C 
BRANCH   9  14
ATOM     14  O   UNL     1      31.582  31.836  14.898  1.00  0.00    -0.357 OA
ATOM     15  H   UNL     1      32.568  31.790  15.089  1.00  0.00     0.214 HD
ENDBRANCH   9  14
BRANCH   9  16
ATOM     16  C   UNL     1      32.277  34.005  15.405  1.00  0.00     0.364 C 
ATOM     17  O   UNL     1      32.550  34.691  16.420  1.00  0.00    -0.246 OA
BRANCH  16  18
ATOM     18  O   UNL     1      33.081  34.205  14.294  1.00  0.00    -0.477 OA
ATOM     19  H   UNL     1      33.720  33.435  14.043  1.00  0.00     0.296 HD
ENDBRANCH  16  18
ENDBRANCH   9  16
BRANCH  12  20
ATOM     20  O   UNL     1      29.636  30.698  16.882  1.00  0.00    -0.391 OA
ATOM     21  H   UNL     1      29.287  30.328  17.737  1.00  0.00     0.211 HD
ENDBRANCH  12  20
BRANCH  13  22
ATOM     22  N   UNL     1      27.103  32.643  16.296  1.00  0.00    -0.348 N 
ATOM     23  C   UNL     1      26.159  31.618  16.031  1.00  0.00     0.217 C 
ATOM     24  H   UNL     1      26.785  33.475  16.828  1.00  0.00     0.163 HD
ATOM     25  C   UNL     1      24.754  31.794  16.533  1.00  0.00     0.114 C 
ATOM     26  O   UNL     1      26.421  30.576  15.405  1.00  0.00    -0.275 OA
ENDBRANCH  13  22
ENDBRANCH   7   8
BRANCH   7  27
ATOM     27  O   UNL     1      28.205  34.729  13.213  1.00  0.00    -0.388 OA
ATOM     28  H   UNL     1      29.012  34.164  12.991  1.00  0.00     0.211 HD
ENDBRANCH   7  27
ENDBRANCH   6   7
BRANCH   6  29
ATOM     29  O   UNL     1      27.109  36.757  14.185  1.00  0.00    -0.388 OA
ATOM     30  H   UNL     1      27.273  37.715  14.302  1.00  0.00     0.211 HD
ENDBRANCH   6  29
ENDBRANCH   5   6
ENDBRANCH   1   5
BRANCH   2  31
ATOM     31  O   UNL     1      30.626  38.317  12.403  1.00  0.00    -0.443 OA
BRANCH  31  32
ATOM     32  C   UNL     1      30.039  38.180  11.124  1.00  0.00     0.294 C 
BRANCH  32  33
ATOM     33  C   UNL     1      28.574  38.112  11.218  1.00  0.00     0.121 A 
ATOM     34  C   UNL     1      27.694  37.214  10.652  1.00  0.00     0.144 A 
ATOM     35  N   UNL     1      27.806  38.967  11.914  1.00  0.00    -0.131 NA
ATOM     36  N   UNL     1      26.424  37.542  11.014  1.00  0.00    -0.219 N 
ATOM     37  N   UNL     1      26.541  38.603  11.774  1.00  0.00    -0.062 NA
BRANCH  36  38
ATOM     38  C   UNL     1      25.216  36.886  10.656  1.00  0.00     0.081 A 
ATOM     39  C   UNL     1      24.729  35.833  11.416  1.00  0.00     0.049 A 
ATOM     40  C   UNL     1      24.527  37.305   9.541  1.00  0.00     0.065 A 
ATOM     41  C   UNL     1      23.564  35.186  11.087  1.00  0.00     0.043 A 
ATOM     42  C   UNL     1      23.348  36.676   9.181  1.00  0.00     0.017 A 
ATOM     43  Cl  UNL     1      22.935  33.847  12.044  1.00  0.00    -0.084 Cl
ATOM     44  C   UNL     1      22.886  35.620   9.966  1.00  0.00     0.021 A 
BRANCH  40  45
ATOM     45  C   UNL     1      25.046  38.404   8.760  1.00  0.00     0.255 C 
ATOM     46  O   UNL     1      24.789  39.614   9.015  1.00  0.00    -0.269 OA
ATOM     47  N   UNL     1      25.885  38.144   7.652  1.00  0.00    -0.345 N 
ATOM     48  C   UNL     1      26.207  36.777   7.324  1.00  0.00     0.146 C 
ATOM     49  C   UNL     1      26.436  39.211   6.831  1.00  0.00     0.146 C 
ENDBRANCH  40  45
ENDBRANCH  36  38
ENDBRANCH  32  33
ENDBRANCH  31  32
ENDBRANCH   2  31
TORSDOF 16
BEGIN_RES LYS A 131
REMARK  4 active torsions:
REMARK  status: ('A' for Active; 'I' for Inactive)
REMARK    1  A    between atoms: CA   and  CB  
REMARK    2  A    between atoms: CB   and  CG  
REMARK    3  A    between atoms: CG   and  CD  
REMARK    4  A    between atoms: CD   and  CE  
ROOT
ATOM      1  CA  LYS A 131      29.867  25.555  16.977  1.00 20.52     0.186 C 
ENDROOT
BRANCH   1   2
ATOM      2  CB  LYS A 131      28.345  25.722  17.026  1.00 20.94     0.034 C 
BRANCH   2   3
ATOM      3  CG  LYS A 131      27.601  24.401  16.903  1.00 22.96     0.005 C 
BRANCH   3   4
ATOM      4  CD  LYS A 131      26.170  24.513  17.350  1.00 24.33     0.041 C 
BRANCH   4   5
ATOM      5  CE  LYS A 131      26.002  25.760  18.212  1.00 26.91     0.338 C 
ATOM      6  NZ  LYS A 131      24.662  25.778  18.843  1.00 27.40     0.618 N 
ENDBRANCH   4   5
ENDBRANCH   3   4
ENDBRANCH   2   3
ENDBRANCH   1   2
END_RES LYS A 131
BEGIN_RES LYS A 135
REMARK  4 active torsions:
REMARK  status: ('A' for Active; 'I' for Inactive)
REMARK    5  A    between atoms: CA   and  CB  
REMARK    6  A    between atoms: CB   and  CG  
REMARK    7  A    between atoms: CG   and  CD  
REMARK    8  A    between atoms: CD   and  CE  
ROOT
ATOM      7  CA  LYS A 135      33.193  34.663   9.290  1.00 25.02     0.186 C 
ENDROOT
BRANCH   7   8
ATOM      8  CB  LYS A 135      32.060  35.360  10.034  1.00 26.63     0.034 C 
BRANCH   8   9
ATOM      9  CG  LYS A 135      30.742  34.636   9.940  1.00 29.45     0.005 C 
BRANCH   9  10
ATOM     10  CD  LYS A 135      30.337  34.445   8.486  1.00 32.00     0.041 C 
BRANCH  10  11
ATOM     11  CE  LYS A 135      28.826  34.451   8.349  1.00 34.25     0.338 C 
ATOM     12  NZ  LYS A 135      28.180  33.779   9.510  1.00 35.99     0.618 N 
ENDBRANCH  10  11
ENDBRANCH   9  10
ENDBRANCH   8   9
ENDBRANCH   7   8
END_RES LYS A 135
