REMARK VINA RESULT:    -3.449      7.988     12.572
REMARK INTER + INTRA:         -13.844
REMARK INTER:                  -8.857
REMARK INTRA:                  -4.988
REMARK UNBOUND:                -7.572
REMARK SMILES CC(=O)N[C@@H]1[C@@H](O)C[C@](O)(C(=O)O)O[C@H]1C(O)[C@H](O)CNC(=O)OCc1cn(CCO)nn1
REMARK SMILES IDX 21 1 22 2 23 3 20 5 18 6 16 7 15 8 9 9 8 10 14 11 6 12 5 13
REMARK SMILES IDX 10 14 11 16 12 17 13 18 7 20 4 22 2 23 1 25 3 26 17 27 19 29
REMARK SMILES IDX 24 31 25 32 26 33 27 34 33 35 28 36 32 37 29 38 30 39 31 40
REMARK H PARENT 21 4 10 15 13 19 7 21 4 24 17 28 19 30 31 41
REMARK Flexibility Score: inf
ROOT
ATOM      1  N   UNL     1      27.926  28.879  16.884  1.00  0.00    -0.319 N 
ATOM      2  C   UNL     1      27.881  30.107  16.214  1.00  0.00     0.407 C 
ATOM      3  O   UNL     1      26.842  30.761  16.194  1.00  0.00    -0.225 OA
ATOM      4  H   UNL     1      28.878  28.383  16.841  1.00  0.00     0.167 HD
ENDROOT
BRANCH   1   5
ATOM      5  C   UNL     1      26.914  28.202  17.599  1.00  0.00     0.154 C 
BRANCH   5   6
ATOM      6  C   UNL     1      27.220  27.771  18.999  1.00  0.00     0.165 C 
BRANCH   6   7
ATOM      7  C   UNL     1      27.408  28.934  19.926  1.00  0.00     0.176 C 
BRANCH   7   8
ATOM      8  C   UNL     1      28.771  29.353  20.279  1.00  0.00     0.178 C 
ATOM      9  C   UNL     1      30.798  28.739  21.188  1.00  0.00     0.269 C 
ATOM     10  C   UNL     1      31.276  29.936  20.394  1.00  0.00     0.112 C 
ATOM     11  O   UNL     1      29.495  28.353  20.878  1.00  0.00    -0.332 OA
ATOM     12  C   UNL     1      30.376  31.136  20.653  1.00  0.00     0.145 C 
ATOM     13  C   UNL     1      28.963  30.635  21.015  1.00  0.00     0.142 C 
BRANCH   9  14
ATOM     14  O   UNL     1      30.814  29.019  22.552  1.00  0.00    -0.357 OA
ATOM     15  H   UNL     1      30.718  28.214  23.109  1.00  0.00     0.214 HD
ENDBRANCH   9  14
BRANCH   9  16
ATOM     16  C   UNL     1      31.650  27.555  20.935  1.00  0.00     0.364 C 
ATOM     17  O   UNL     1      32.011  26.766  21.845  1.00  0.00    -0.246 OA
BRANCH  16  18
ATOM     18  O   UNL     1      32.075  27.296  19.645  1.00  0.00    -0.477 OA
ATOM     19  H   UNL     1      31.534  26.650  19.050  1.00  0.00     0.296 HD
ENDBRANCH  16  18
ENDBRANCH   9  16
BRANCH  12  20
ATOM     20  O   UNL     1      30.909  31.888  21.691  1.00  0.00    -0.391 OA
ATOM     21  H   UNL     1      31.315  32.697  21.282  1.00  0.00     0.211 HD
ENDBRANCH  12  20
BRANCH  13  22
ATOM     22  N   UNL     1      28.009  31.671  20.677  1.00  0.00    -0.348 N 
ATOM     23  C   UNL     1      27.588  32.566  21.693  1.00  0.00     0.217 C 
ATOM     24  H   UNL     1      27.624  31.775  19.706  1.00  0.00     0.163 HD
ATOM     25  C   UNL     1      26.610  33.659  21.439  1.00  0.00     0.114 C 
ATOM     26  O   UNL     1      28.047  32.443  22.851  1.00  0.00    -0.275 OA
ENDBRANCH  13  22
ENDBRANCH   7   8
BRANCH   7  27
ATOM     27  O   UNL     1      26.728  30.011  19.245  1.00  0.00    -0.388 OA
ATOM     28  H   UNL     1      26.132  30.444  19.879  1.00  0.00     0.211 HD
ENDBRANCH   7  27
ENDBRANCH   6   7
BRANCH   6  29
ATOM     29  O   UNL     1      28.228  26.867  19.045  1.00  0.00    -0.388 OA
ATOM     30  H   UNL     1      27.979  25.952  19.280  1.00  0.00     0.211 HD
ENDBRANCH   6  29
ENDBRANCH   5   6
ENDBRANCH   1   5
BRANCH   2  31
ATOM     31  O   UNL     1      28.997  30.621  15.557  1.00  0.00    -0.443 OA
BRANCH  31  32
ATOM     32  C   UNL     1      30.102  31.142  16.264  1.00  0.00     0.294 C 
BRANCH  32  33
ATOM     33  C   UNL     1      30.610  32.349  15.569  1.00  0.00     0.120 A 
ATOM     34  C   UNL     1      31.701  33.110  15.908  1.00  0.00     0.138 A 
ATOM     35  N   UNL     1      30.083  32.901  14.485  1.00  0.00    -0.132 NA
ATOM     36  N   UNL     1      31.767  34.092  14.991  1.00  0.00    -0.250 N 
ATOM     37  N   UNL     1      30.781  33.972  14.118  1.00  0.00    -0.067 NA
BRANCH  36  38
ATOM     38  C   UNL     1      32.781  35.127  14.979  1.00  0.00     0.174 C 
BRANCH  38  39
ATOM     39  C   UNL     1      33.903  34.699  14.036  1.00  0.00     0.179 C 
BRANCH  39  40
ATOM     40  O   UNL     1      33.399  34.680  12.720  1.00  0.00    -0.394 OA
ATOM     41  H   UNL     1      33.785  33.898  12.221  1.00  0.00     0.210 HD
ENDBRANCH  39  40
ENDBRANCH  38  39
ENDBRANCH  36  38
ENDBRANCH  32  33
ENDBRANCH  31  32
ENDBRANCH   2  31
TORSDOF 17
BEGIN_RES LYS A 131
REMARK  4 active torsions:
REMARK  status: ('A' for Active; 'I' for Inactive)
REMARK    1  A    between atoms: CA   and  CB  
REMARK    2  A    between atoms: CB   and  CG  
REMARK    3  A    between atoms: CG   and  CD  
REMARK    4  A    between atoms: CD   and  CE  
ROOT
ATOM      1  CA  LYS A 131      29.867  25.555  16.977  1.00 20.52     0.186 C 
ENDROOT
BRANCH   1   2
ATOM      2  CB  LYS A 131      28.345  25.722  17.026  1.00 20.94     0.034 C 
BRANCH   2   3
ATOM      3  CG  LYS A 131      27.599  24.442  16.681  1.00 22.96     0.005 C 
BRANCH   3   4
ATOM      4  CD  LYS A 131      27.010  23.785  17.898  1.00 24.33     0.041 C 
BRANCH   4   5
ATOM      5  CE  LYS A 131      25.607  23.281  17.576  1.00 26.91     0.338 C 
ATOM      6  NZ  LYS A 131      24.806  24.351  16.935  1.00 27.40     0.618 N 
ENDBRANCH   4   5
ENDBRANCH   3   4
ENDBRANCH   2   3
ENDBRANCH   1   2
END_RES LYS A 131
BEGIN_RES LYS A 135
REMARK  4 active torsions:
REMARK  status: ('A' for Active; 'I' for Inactive)
REMARK    5  A    between atoms: CA   and  CB  
REMARK    6  A    between atoms: CB   and  CG  
REMARK    7  A    between atoms: CG   and  CD  
REMARK    8  A    between atoms: CD   and  CE  
ROOT
ATOM      7  CA  LYS A 135      33.193  34.663   9.290  1.00 25.02     0.186 C 
ENDROOT
BRANCH   7   8
ATOM      8  CB  LYS A 135      32.060  35.360  10.034  1.00 26.63     0.034 C 
BRANCH   8   9
ATOM      9  CG  LYS A 135      30.743  34.632   9.945  1.00 29.45     0.005 C 
BRANCH   9  10
ATOM     10  CD  LYS A 135      30.358  34.396   8.493  1.00 32.00     0.041 C 
BRANCH  10  11
ATOM     11  CE  LYS A 135      29.003  35.008   8.194  1.00 34.25     0.338 C 
ATOM     12  NZ  LYS A 135      28.220  35.213   9.444  1.00 35.99     0.618 N 
ENDBRANCH  10  11
ENDBRANCH   9  10
ENDBRANCH   8   9
ENDBRANCH   7   8
END_RES LYS A 135
