REMARK VINA RESULT:    -5.908      4.520      7.519
REMARK INTER + INTRA:         -14.759
REMARK INTER:                  -8.624
REMARK INTRA:                  -6.134
REMARK UNBOUND:                -4.533
REMARK SMILES CC(=O)N[C@@H]1[C@@H](O)C[C@](O)(C(=O)O)O[C@H]1C(O)[C@H](O)CNC(=O)OCc1cn(-c2cnc3ccccc3c2)nn1
REMARK SMILES IDX 20 1 18 2 16 3 15 4 9 5 8 6 14 7 6 8 5 9 10 10 11 12 12 13
REMARK SMILES IDX 13 14 7 16 4 18 2 19 1 21 3 22 17 23 19 25 21 27 22 28 23 30
REMARK SMILES IDX 24 31 25 32 26 33 27 34 40 35 28 36 39 37 29 38 30 39 38 40
REMARK SMILES IDX 31 41 37 42 32 43 36 44 33 45 35 46 34 47
REMARK H PARENT 10 11 13 15 7 17 4 20 17 24 19 26 21 29
REMARK Flexibility Score: inf
ROOT
ATOM      1  C   UNL     1      28.994  34.831  19.963  1.00  0.00     0.154 C 
ENDROOT
BRANCH   1   2
ATOM      2  C   UNL     1      30.270  34.038  19.993  1.00  0.00     0.165 C 
BRANCH   2   3
ATOM      3  C   UNL     1      30.096  32.590  19.624  1.00  0.00     0.176 C 
BRANCH   3   4
ATOM      4  C   UNL     1      30.522  32.250  18.226  1.00  0.00     0.178 C 
ATOM      5  C   UNL     1      30.817  33.369  16.216  1.00  0.00     0.269 C 
ATOM      6  C   UNL     1      31.036  32.041  15.536  1.00  0.00     0.112 C 
ATOM      7  O   UNL     1      31.076  33.335  17.562  1.00  0.00    -0.332 OA
ATOM      8  C   UNL     1      30.222  30.975  16.190  1.00  0.00     0.145 C 
ATOM      9  C   UNL     1      29.493  31.510  17.442  1.00  0.00     0.142 C 
BRANCH   5  10
ATOM     10  O   UNL     1      29.534  33.807  15.895  1.00  0.00    -0.357 OA
ATOM     11  H   UNL     1      29.513  34.416  15.133  1.00  0.00     0.214 HD
ENDBRANCH   5  10
BRANCH   5  12
ATOM     12  C   UNL     1      31.771  34.340  15.599  1.00  0.00     0.364 C 
ATOM     13  O   UNL     1      31.764  35.522  16.024  1.00  0.00    -0.246 OA
BRANCH  12  14
ATOM     14  O   UNL     1      32.648  33.984  14.591  1.00  0.00    -0.477 OA
ATOM     15  H   UNL     1      33.066  34.711  14.002  1.00  0.00     0.296 HD
ENDBRANCH  12  14
ENDBRANCH   5  12
BRANCH   8  16
ATOM     16  O   UNL     1      29.273  30.450  15.294  1.00  0.00    -0.391 OA
ATOM     17  H   UNL     1      28.553  30.001  15.798  1.00  0.00     0.211 HD
ENDBRANCH   8  16
BRANCH   9  18
ATOM     18  N   UNL     1      29.065  30.355  18.237  1.00  0.00    -0.348 N 
ATOM     19  C   UNL     1      27.784  29.759  18.111  1.00  0.00     0.217 C 
ATOM     20  H   UNL     1      29.713  29.941  18.931  1.00  0.00     0.163 HD
ATOM     21  C   UNL     1      27.365  28.589  18.930  1.00  0.00     0.114 C 
ATOM     22  O   UNL     1      26.950  30.211  17.286  1.00  0.00    -0.275 OA
ENDBRANCH   9  18
ENDBRANCH   3   4
BRANCH   3  23
ATOM     23  O   UNL     1      30.820  31.839  20.571  1.00  0.00    -0.388 OA
ATOM     24  H   UNL     1      31.302  32.494  21.135  1.00  0.00     0.211 HD
ENDBRANCH   3  23
ENDBRANCH   2   3
BRANCH   2  25
ATOM     25  O   UNL     1      30.907  34.166  21.244  1.00  0.00    -0.388 OA
ATOM     26  H   UNL     1      31.526  34.954  21.124  1.00  0.00     0.211 HD
ENDBRANCH   2  25
ENDBRANCH   1   2
BRANCH   1  27
ATOM     27  N   UNL     1      28.600  35.058  18.593  1.00  0.00    -0.319 N 
ATOM     28  C   UNL     1      28.812  36.276  17.917  1.00  0.00     0.407 C 
ATOM     29  H   UNL     1      28.125  34.301  18.025  1.00  0.00     0.167 HD
ATOM     30  O   UNL     1      29.362  37.249  18.474  1.00  0.00    -0.225 OA
BRANCH  28  31
ATOM     31  O   UNL     1      28.423  36.475  16.585  1.00  0.00    -0.443 OA
BRANCH  31  32
ATOM     32  C   UNL     1      27.038  36.675  16.266  1.00  0.00     0.294 C 
BRANCH  32  33
ATOM     33  C   UNL     1      26.593  35.682  15.266  1.00  0.00     0.121 A 
ATOM     34  C   UNL     1      25.430  34.978  15.237  1.00  0.00     0.144 A 
ATOM     35  N   UNL     1      27.308  35.317  14.196  1.00  0.00    -0.131 NA
ATOM     36  N   UNL     1      25.488  34.194  14.122  1.00  0.00    -0.219 N 
ATOM     37  N   UNL     1      26.628  34.414  13.510  1.00  0.00    -0.062 NA
BRANCH  36  38
ATOM     38  C   UNL     1      24.491  33.290  13.687  1.00  0.00     0.085 A 
ATOM     39  C   UNL     1      23.236  33.776  13.366  1.00  0.00     0.140 A 
ATOM     40  C   UNL     1      24.790  31.950  13.592  1.00  0.00     0.040 A 
ATOM     41  N   UNL     1      22.290  32.917  12.954  1.00  0.00    -0.254 NA
ATOM     42  C   UNL     1      23.796  31.076  13.163  1.00  0.00     0.002 A 
ATOM     43  C   UNL     1      22.553  31.585  12.849  1.00  0.00     0.070 A 
ATOM     44  C   UNL     1      24.064  29.745  13.060  1.00  0.00     0.010 A 
ATOM     45  C   UNL     1      21.565  30.721  12.423  1.00  0.00     0.029 A 
ATOM     46  C   UNL     1      23.071  28.866  12.630  1.00  0.00     0.001 A 
ATOM     47  C   UNL     1      21.828  29.360  12.314  1.00  0.00     0.002 A 
ENDBRANCH  36  38
ENDBRANCH  32  33
ENDBRANCH  31  32
ENDBRANCH  28  31
ENDBRANCH   1  27
TORSDOF 15
BEGIN_RES LYS A 131
REMARK  4 active torsions:
REMARK  status: ('A' for Active; 'I' for Inactive)
REMARK    1  A    between atoms: CA   and  CB  
REMARK    2  A    between atoms: CB   and  CG  
REMARK    3  A    between atoms: CG   and  CD  
REMARK    4  A    between atoms: CD   and  CE  
ROOT
ATOM      1  CA  LYS A 131      29.867  25.555  16.977  1.00 20.52     0.186 C 
ENDROOT
BRANCH   1   2
ATOM      2  CB  LYS A 131      28.345  25.722  17.026  1.00 20.94     0.034 C 
BRANCH   2   3
ATOM      3  CG  LYS A 131      27.602  24.399  16.925  1.00 22.96     0.005 C 
BRANCH   3   4
ATOM      4  CD  LYS A 131      26.152  24.534  17.298  1.00 24.33     0.041 C 
BRANCH   4   5
ATOM      5  CE  LYS A 131      25.947  24.043  18.728  1.00 26.91     0.338 C 
ATOM      6  NZ  LYS A 131      24.502  23.886  19.020  1.00 27.40     0.618 N 
ENDBRANCH   4   5
ENDBRANCH   3   4
ENDBRANCH   2   3
ENDBRANCH   1   2
END_RES LYS A 131
BEGIN_RES LYS A 135
REMARK  4 active torsions:
REMARK  status: ('A' for Active; 'I' for Inactive)
REMARK    5  A    between atoms: CA   and  CB  
REMARK    6  A    between atoms: CB   and  CG  
REMARK    7  A    between atoms: CG   and  CD  
REMARK    8  A    between atoms: CD   and  CE  
ROOT
ATOM      7  CA  LYS A 135      33.193  34.663   9.290  1.00 25.02     0.186 C 
ENDROOT
BRANCH   7   8
ATOM      8  CB  LYS A 135      32.060  35.360  10.034  1.00 26.63     0.034 C 
BRANCH   8   9
ATOM      9  CG  LYS A 135      30.792  35.477   9.228  1.00 29.45     0.005 C 
BRANCH   9  10
ATOM     10  CD  LYS A 135      30.220  34.101   8.924  1.00 32.00     0.041 C 
BRANCH  10  11
ATOM     11  CE  LYS A 135      28.714  34.099   9.102  1.00 34.25     0.338 C 
ATOM     12  NZ  LYS A 135      28.042  34.838   7.997  1.00 35.99     0.618 N 
ENDBRANCH  10  11
ENDBRANCH   9  10
ENDBRANCH   8   9
ENDBRANCH   7   8
END_RES LYS A 135
