REMARK VINA RESULT:    -5.086      8.375     13.438
REMARK INTER + INTRA:         -15.213
REMARK INTER:                  -9.985
REMARK INTRA:                  -5.228
REMARK UNBOUND:                -5.964
REMARK SMILES CC(=O)N[C@@H]1[C@@H](O)C[C@](O)(C(=O)O)O[C@H]1C(O)[C@H](O)CNC(=O)OCc1cn(-c2ccc(S(N)(=O)=O)cc2)nn1
REMARK SMILES IDX 21 1 22 2 23 3 20 5 18 6 16 7 15 8 9 9 8 10 14 11 6 12 5 13
REMARK SMILES IDX 10 14 11 16 12 17 13 18 7 20 4 22 2 23 1 25 3 26 17 27 19 29
REMARK SMILES IDX 24 31 25 32 26 33 27 34 40 35 28 36 39 37 29 38 30 39 38 40
REMARK SMILES IDX 31 41 37 42 32 43 33 44 35 45 36 46 34 47
REMARK H PARENT 21 4 10 15 13 19 7 21 4 24 17 28 19 30 34 48 34 49
REMARK Flexibility Score: inf
ROOT
ATOM      1  N   UNL     1      27.523  38.647  10.737  1.00  0.00    -0.319 N 
ATOM      2  C   UNL     1      28.657  39.053  11.455  1.00  0.00     0.407 C 
ATOM      3  O   UNL     1      28.891  38.599  12.587  1.00  0.00    -0.225 OA
ATOM      4  H   UNL     1      27.382  39.068   9.779  1.00  0.00     0.167 HD
ENDROOT
BRANCH   1   5
ATOM      5  C   UNL     1      26.589  37.709  11.253  1.00  0.00     0.154 C 
BRANCH   5   6
ATOM      6  C   UNL     1      26.902  36.272  10.857  1.00  0.00     0.165 C 
BRANCH   6   7
ATOM      7  C   UNL     1      26.245  35.990   9.536  1.00  0.00     0.176 C 
BRANCH   7   8
ATOM      8  C   UNL     1      27.164  35.982   8.375  1.00  0.00     0.178 C 
ATOM      9  C   UNL     1      29.446  35.852   7.926  1.00  0.00     0.269 C 
ATOM     10  C   UNL     1      28.872  35.627   6.549  1.00  0.00     0.112 C 
ATOM     11  O   UNL     1      28.489  36.049   8.882  1.00  0.00    -0.332 OA
ATOM     12  C   UNL     1      27.849  36.650   6.160  1.00  0.00     0.145 C 
ATOM     13  C   UNL     1      27.064  37.074   7.377  1.00  0.00     0.142 C 
BRANCH   9  14
ATOM     14  O   UNL     1      30.404  36.895   7.912  1.00  0.00    -0.357 OA
ATOM     15  H   UNL     1      31.320  36.530   7.996  1.00  0.00     0.214 HD
ENDBRANCH   9  14
BRANCH   9  16
ATOM     16  C   UNL     1      30.206  34.625   8.284  1.00  0.00     0.364 C 
ATOM     17  O   UNL     1      29.621  33.745   8.964  1.00  0.00    -0.246 OA
BRANCH  16  18
ATOM     18  O   UNL     1      31.517  34.390   7.915  1.00  0.00    -0.477 OA
ATOM     19  H   UNL     1      32.137  35.158   7.669  1.00  0.00     0.296 HD
ENDBRANCH  16  18
ENDBRANCH   9  16
BRANCH  12  20
ATOM     20  O   UNL     1      28.502  37.708   5.542  1.00  0.00    -0.391 OA
ATOM     21  H   UNL     1      28.758  38.339   6.262  1.00  0.00     0.211 HD
ENDBRANCH  12  20
BRANCH  13  22
ATOM     22  N   UNL     1      25.785  37.598   7.079  1.00  0.00    -0.348 N 
ATOM     23  C   UNL     1      25.360  38.869   7.525  1.00  0.00     0.217 C 
ATOM     24  H   UNL     1      25.119  37.055   6.494  1.00  0.00     0.163 HD
ATOM     25  C   UNL     1      23.995  39.412   7.200  1.00  0.00     0.114 C 
ATOM     26  O   UNL     1      26.155  39.542   8.206  1.00  0.00    -0.275 OA
ENDBRANCH  13  22
ENDBRANCH   7   8
BRANCH   7  27
ATOM     27  O   UNL     1      25.237  35.064   9.554  1.00  0.00    -0.388 OA
ATOM     28  H   UNL     1      24.714  35.171  10.380  1.00  0.00     0.211 HD
ENDBRANCH   7  27
ENDBRANCH   6   7
BRANCH   6  29
ATOM     29  O   UNL     1      26.548  35.440  11.886  1.00  0.00    -0.388 OA
ATOM     30  H   UNL     1      27.316  35.315  12.509  1.00  0.00     0.211 HD
ENDBRANCH   6  29
ENDBRANCH   5   6
ENDBRANCH   1   5
BRANCH   2  31
ATOM     31  O   UNL     1      29.577  39.983  10.946  1.00  0.00    -0.443 OA
BRANCH  31  32
ATOM     32  C   UNL     1      29.293  40.722   9.800  1.00  0.00     0.294 C 
BRANCH  32  33
ATOM     33  C   UNL     1      30.135  40.319   8.653  1.00  0.00     0.121 A 
ATOM     34  C   UNL     1      31.489  40.451   8.458  1.00  0.00     0.144 A 
ATOM     35  N   UNL     1      29.666  39.710   7.534  1.00  0.00    -0.131 NA
ATOM     36  N   UNL     1      31.821  39.936   7.259  1.00  0.00    -0.220 N 
ATOM     37  N   UNL     1      30.695  39.499   6.731  1.00  0.00    -0.062 NA
BRANCH  36  38
ATOM     38  C   UNL     1      33.104  39.859   6.647  1.00  0.00     0.066 A 
ATOM     39  C   UNL     1      34.265  39.872   7.390  1.00  0.00     0.030 A 
ATOM     40  C   UNL     1      33.239  39.768   5.274  1.00  0.00     0.030 A 
ATOM     41  C   UNL     1      35.513  39.798   6.813  1.00  0.00     0.024 A 
ATOM     42  C   UNL     1      34.487  39.694   4.692  1.00  0.00     0.024 A 
ATOM     43  C   UNL     1      35.655  39.707   5.425  1.00  0.00     0.082 A 
BRANCH  43  44
ATOM     44  S   UNL     1      37.242  39.615   4.697  1.00  0.00     0.238 S 
ATOM     45  O   UNL     1      37.072  39.000   3.336  1.00  0.00    -0.207 OA
ATOM     46  O   UNL     1      37.751  41.021   4.476  1.00  0.00    -0.207 OA
BRANCH  44  47
ATOM     47  N   UNL     1      38.351  38.704   5.632  1.00  0.00    -0.225 NA
ATOM     48  H   UNL     1      37.928  38.005   6.252  1.00  0.00     0.137 HD
ATOM     49  H   UNL     1      39.126  38.310   5.054  1.00  0.00     0.137 HD
ENDBRANCH  44  47
ENDBRANCH  43  44
ENDBRANCH  36  38
ENDBRANCH  32  33
ENDBRANCH  31  32
ENDBRANCH   2  31
TORSDOF 17
BEGIN_RES LYS A 131
REMARK  4 active torsions:
REMARK  status: ('A' for Active; 'I' for Inactive)
REMARK    1  A    between atoms: CA   and  CB  
REMARK    2  A    between atoms: CB   and  CG  
REMARK    3  A    between atoms: CG   and  CD  
REMARK    4  A    between atoms: CD   and  CE  
ROOT
ATOM      1  CA  LYS A 131      29.867  25.555  16.977  1.00 20.52     0.186 C 
ENDROOT
BRANCH   1   2
ATOM      2  CB  LYS A 131      28.345  25.722  17.026  1.00 20.94     0.034 C 
BRANCH   2   3
ATOM      3  CG  LYS A 131      27.600  24.413  16.813  1.00 22.96     0.005 C 
BRANCH   3   4
ATOM      4  CD  LYS A 131      26.369  24.316  17.672  1.00 24.33     0.041 C 
BRANCH   4   5
ATOM      5  CE  LYS A 131      25.763  22.923  17.537  1.00 26.91     0.338 C 
ATOM      6  NZ  LYS A 131      24.283  22.995  17.578  1.00 27.40     0.618 N 
ENDBRANCH   4   5
ENDBRANCH   3   4
ENDBRANCH   2   3
ENDBRANCH   1   2
END_RES LYS A 131
BEGIN_RES LYS A 135
REMARK  4 active torsions:
REMARK  status: ('A' for Active; 'I' for Inactive)
REMARK    5  A    between atoms: CA   and  CB  
REMARK    6  A    between atoms: CB   and  CG  
REMARK    7  A    between atoms: CG   and  CD  
REMARK    8  A    between atoms: CD   and  CE  
ROOT
ATOM      7  CA  LYS A 135      33.193  34.663   9.290  1.00 25.02     0.186 C 
ENDROOT
BRANCH   7   8
ATOM      8  CB  LYS A 135      32.060  35.360  10.034  1.00 26.63     0.034 C 
BRANCH   8   9
ATOM      9  CG  LYS A 135      32.502  36.041  11.304  1.00 29.45     0.005 C 
BRANCH   9  10
ATOM     10  CD  LYS A 135      31.342  36.163  12.279  1.00 32.00     0.041 C 
BRANCH  10  11
ATOM     11  CE  LYS A 135      30.310  35.083  12.017  1.00 34.25     0.338 C 
ATOM     12  NZ  LYS A 135      29.767  34.538  13.293  1.00 35.99     0.618 N 
ENDBRANCH  10  11
ENDBRANCH   9  10
ENDBRANCH   8   9
ENDBRANCH   7   8
END_RES LYS A 135
