REMARK VINA RESULT:    -4.463      1.458      2.069
REMARK INTER + INTRA:         -16.277
REMARK INTER:                  -8.922
REMARK INTRA:                  -7.355
REMARK UNBOUND:                -7.118
REMARK SMILES CC(=O)N[C@@H]1[C@@H](O)C[C@](O)(C(=O)O)O[C@H]1C(O)[C@H](O)CNC(=O)OCc1cn(C[C@H](CC(=O)O)CC(C)C)nn1
REMARK SMILES IDX 24 1 22 2 21 3 23 5 20 6 18 7 16 8 15 9 9 10 8 11 14 12 6 13
REMARK SMILES IDX 5 14 10 15 11 17 12 18 13 19 7 21 4 23 2 24 1 26 3 27 17 28
REMARK SMILES IDX 19 30 25 32 26 33 27 34 40 35 28 36 39 37 29 38 30 39 31 40
REMARK SMILES IDX 32 41 33 42 34 43 35 45 36 46 37 47 38 48
REMARK H PARENT 21 4 10 16 13 20 7 22 4 25 17 29 19 31 34 44
REMARK Flexibility Score: inf
ROOT
ATOM      1  O   UNL     1      27.294  30.023  16.651  1.00  0.00    -0.443 OA
ENDROOT
BRANCH   1   2
ATOM      2  C   UNL     1      27.017  28.882  17.424  1.00  0.00     0.407 C 
ATOM      3  N   UNL     1      27.900  28.452  18.443  1.00  0.00    -0.319 N 
ATOM      4  H   UNL     1      28.776  29.047  18.585  1.00  0.00     0.167 HD
ATOM      5  O   UNL     1      25.959  28.253  17.180  1.00  0.00    -0.225 OA
BRANCH   3   6
ATOM      6  C   UNL     1      27.667  27.286  19.264  1.00  0.00     0.154 C 
BRANCH   6   7
ATOM      7  C   UNL     1      27.717  27.670  20.703  1.00  0.00     0.165 C 
BRANCH   7   8
ATOM      8  C   UNL     1      29.129  27.826  21.244  1.00  0.00     0.176 C 
BRANCH   8   9
ATOM      9  C   UNL     1      29.413  29.239  21.646  1.00  0.00     0.178 C 
ATOM     10  C   UNL     1      29.859  30.897  20.082  1.00  0.00     0.269 C 
ATOM     11  C   UNL     1      30.874  31.599  20.952  1.00  0.00     0.112 C 
ATOM     12  O   UNL     1      28.914  30.202  20.820  1.00  0.00    -0.332 OA
ATOM     13  C   UNL     1      31.023  30.924  22.299  1.00  0.00     0.145 C 
ATOM     14  C   UNL     1      30.884  29.423  22.010  1.00  0.00     0.142 C 
BRANCH  10  15
ATOM     15  O   UNL     1      30.489  30.082  19.138  1.00  0.00    -0.357 OA
ATOM     16  H   UNL     1      31.356  30.422  18.848  1.00  0.00     0.214 HD
ENDBRANCH  10  15
BRANCH  10  17
ATOM     17  C   UNL     1      29.128  31.947  19.324  1.00  0.00     0.364 C 
ATOM     18  O   UNL     1      29.715  33.046  19.082  1.00  0.00    -0.246 OA
BRANCH  17  19
ATOM     19  O   UNL     1      27.838  31.797  18.862  1.00  0.00    -0.477 OA
ATOM     20  H   UNL     1      27.548  32.307  18.013  1.00  0.00     0.296 HD
ENDBRANCH  17  19
ENDBRANCH  10  17
BRANCH  13  21
ATOM     21  O   UNL     1      32.203  31.226  22.931  1.00  0.00    -0.391 OA
ATOM     22  H   UNL     1      32.098  30.941  23.891  1.00  0.00     0.211 HD
ENDBRANCH  13  21
BRANCH  14  23
ATOM     23  N   UNL     1      31.173  28.645  23.188  1.00  0.00    -0.348 N 
ATOM     24  C   UNL     1      32.034  27.506  23.117  1.00  0.00     0.217 C 
ATOM     25  H   UNL     1      30.779  28.864  24.136  1.00  0.00     0.163 HD
ATOM     26  C   UNL     1      32.351  26.689  24.304  1.00  0.00     0.114 C 
ATOM     27  O   UNL     1      32.540  27.185  22.013  1.00  0.00    -0.275 OA
ENDBRANCH  14  23
ENDBRANCH   8   9
BRANCH   8  28
ATOM     28  O   UNL     1      30.048  27.282  20.378  1.00  0.00    -0.388 OA
ATOM     29  H   UNL     1      29.807  27.528  19.461  1.00  0.00     0.211 HD
ENDBRANCH   8  28
ENDBRANCH   7   8
BRANCH   7  30
ATOM     30  O   UNL     1      27.102  26.642  21.456  1.00  0.00    -0.388 OA
ATOM     31  H   UNL     1      26.660  25.989  20.869  1.00  0.00     0.211 HD
ENDBRANCH   7  30
ENDBRANCH   6   7
ENDBRANCH   3   6
ENDBRANCH   1   2
BRANCH   1  32
ATOM     32  C   UNL     1      28.436  29.990  15.831  1.00  0.00     0.294 C 
BRANCH  32  33
ATOM     33  C   UNL     1      29.132  31.288  15.784  1.00  0.00     0.120 A 
ATOM     34  C   UNL     1      30.488  31.572  15.716  1.00  0.00     0.138 A 
ATOM     35  N   UNL     1      28.531  32.484  15.799  1.00  0.00    -0.132 NA
ATOM     36  N   UNL     1      30.656  32.905  15.692  1.00  0.00    -0.252 N 
ATOM     37  N   UNL     1      29.460  33.433  15.744  1.00  0.00    -0.067 NA
BRANCH  36  38
ATOM     38  C   UNL     1      31.973  33.596  15.620  1.00  0.00     0.150 C 
BRANCH  38  39
ATOM     39  C   UNL     1      31.803  34.934  14.991  1.00  0.00     0.022 C 
BRANCH  39  40
ATOM     40  C   UNL     1      31.845  34.748  13.484  1.00  0.00     0.128 C 
BRANCH  40  41
ATOM     41  C   UNL     1      30.597  35.290  12.890  1.00  0.00     0.303 C 
ATOM     42  O   UNL     1      29.632  34.547  12.637  1.00  0.00    -0.252 OA
BRANCH  41  43
ATOM     43  O   UNL     1      30.554  36.662  12.626  1.00  0.00    -0.481 OA
ATOM     44  H   UNL     1      30.504  37.309  13.388  1.00  0.00     0.296 HD
ENDBRANCH  41  43
ENDBRANCH  40  41
ENDBRANCH  39  40
BRANCH  39  45
ATOM     45  C   UNL     1      32.732  35.952  15.511  1.00  0.00     0.009 C 
BRANCH  45  46
ATOM     46  C   UNL     1      32.228  37.332  15.699  1.00  0.00    -0.017 C 
ATOM     47  C   UNL     1      30.759  37.175  16.183  1.00  0.00     0.007 C 
ATOM     48  C   UNL     1      32.924  38.183  16.705  1.00  0.00     0.007 C 
ENDBRANCH  45  46
ENDBRANCH  39  45
ENDBRANCH  38  39
ENDBRANCH  36  38
ENDBRANCH  32  33
ENDBRANCH   1  32
TORSDOF 21
BEGIN_RES LYS A 131
REMARK  4 active torsions:
REMARK  status: ('A' for Active; 'I' for Inactive)
REMARK    1  A    between atoms: CA   and  CB  
REMARK    2  A    between atoms: CB   and  CG  
REMARK    3  A    between atoms: CG   and  CD  
REMARK    4  A    between atoms: CD   and  CE  
ROOT
ATOM      1  CA  LYS A 131      29.867  25.555  16.977  1.00 20.52     0.186 C 
ENDROOT
BRANCH   1   2
ATOM      2  CB  LYS A 131      28.345  25.722  17.026  1.00 20.94     0.034 C 
BRANCH   2   3
ATOM      3  CG  LYS A 131      27.601  24.403  16.881  1.00 22.96     0.005 C 
BRANCH   3   4
ATOM      4  CD  LYS A 131      26.170  24.508  17.332  1.00 24.33     0.041 C 
BRANCH   4   5
ATOM      5  CE  LYS A 131      25.973  23.675  18.595  1.00 26.91     0.338 C 
ATOM      6  NZ  LYS A 131      25.004  22.581  18.348  1.00 27.40     0.618 N 
ENDBRANCH   4   5
ENDBRANCH   3   4
ENDBRANCH   2   3
ENDBRANCH   1   2
END_RES LYS A 131
BEGIN_RES LYS A 135
REMARK  4 active torsions:
REMARK  status: ('A' for Active; 'I' for Inactive)
REMARK    5  A    between atoms: CA   and  CB  
REMARK    6  A    between atoms: CB   and  CG  
REMARK    7  A    between atoms: CG   and  CD  
REMARK    8  A    between atoms: CD   and  CE  
ROOT
ATOM      7  CA  LYS A 135      33.193  34.663   9.290  1.00 25.02     0.186 C 
ENDROOT
BRANCH   7   8
ATOM      8  CB  LYS A 135      32.060  35.360  10.034  1.00 26.63     0.034 C 
BRANCH   8   9
ATOM      9  CG  LYS A 135      30.798  35.493   9.222  1.00 29.45     0.005 C 
BRANCH   9  10
ATOM     10  CD  LYS A 135      30.110  34.144   9.074  1.00 32.00     0.041 C 
BRANCH  10  11
ATOM     11  CE  LYS A 135      28.662  34.327   8.663  1.00 34.25     0.338 C 
ATOM     12  NZ  LYS A 135      28.550  35.210   7.469  1.00 35.99     0.618 N 
ENDBRANCH  10  11
ENDBRANCH   9  10
ENDBRANCH   8   9
ENDBRANCH   7   8
END_RES LYS A 135
