REMARK VINA RESULT:    -5.561      3.182      6.155
REMARK INTER + INTRA:         -14.172
REMARK INTER:                  -9.005
REMARK INTRA:                  -5.167
REMARK UNBOUND:                -4.548
REMARK SMILES CC(=O)N[C@@H]1[C@@H](O)C[C@](O)(C(=O)O)O[C@H]1C(O)[C@H](O)CNC(=O)OCc1cn(-c2ccc3c(c2)OCO3)nn1
REMARK SMILES IDX 20 1 18 2 16 3 15 4 9 5 8 6 14 7 6 8 5 9 10 10 11 12 12 13
REMARK SMILES IDX 13 14 7 16 4 18 2 19 1 21 3 22 17 23 19 25 21 27 22 28 23 30
REMARK SMILES IDX 24 31 25 32 26 33 27 34 39 35 28 36 38 37 29 38 30 39 34 40
REMARK SMILES IDX 31 41 33 42 32 43 35 44 37 45 36 46
REMARK H PARENT 10 11 13 15 7 17 4 20 17 24 19 26 21 29
REMARK Flexibility Score: inf
ROOT
ATOM      1  C   UNL     1      30.904  33.639  19.359  1.00  0.00     0.154 C 
ENDROOT
BRANCH   1   2
ATOM      2  C   UNL     1      31.005  32.242  19.872  1.00  0.00     0.165 C 
BRANCH   2   3
ATOM      3  C   UNL     1      29.764  31.421  19.483  1.00  0.00     0.176 C 
BRANCH   3   4
ATOM      4  C   UNL     1      29.832  30.137  20.228  1.00  0.00     0.178 C 
ATOM      5  C   UNL     1      31.157  28.396  20.867  1.00  0.00     0.269 C 
ATOM      6  C   UNL     1      29.887  28.062  21.619  1.00  0.00     0.112 C 
ATOM      7  O   UNL     1      31.119  29.610  20.227  1.00  0.00    -0.332 OA
ATOM      8  C   UNL     1      28.667  28.080  20.718  1.00  0.00     0.145 C 
ATOM      9  C   UNL     1      28.932  29.059  19.625  1.00  0.00     0.142 C 
BRANCH   5  10
ATOM     10  O   UNL     1      31.387  27.330  19.995  1.00  0.00    -0.357 OA
ATOM     11  H   UNL     1      31.157  27.668  19.088  1.00  0.00     0.214 HD
ENDBRANCH   5  10
BRANCH   5  12
ATOM     12  C   UNL     1      32.243  28.457  21.873  1.00  0.00     0.364 C 
ATOM     13  O   UNL     1      32.525  29.556  22.406  1.00  0.00    -0.246 OA
BRANCH  12  14
ATOM     14  O   UNL     1      32.971  27.344  22.257  1.00  0.00    -0.477 OA
ATOM     15  H   UNL     1      33.953  27.214  22.039  1.00  0.00     0.296 HD
ENDBRANCH  12  14
ENDBRANCH   5  12
BRANCH   8  16
ATOM     16  O   UNL     1      28.539  26.764  20.222  1.00  0.00    -0.391 OA
ATOM     17  H   UNL     1      27.955  26.232  20.792  1.00  0.00     0.211 HD
ENDBRANCH   8  16
BRANCH   9  18
ATOM     18  N   UNL     1      27.788  29.580  18.969  1.00  0.00    -0.348 N 
ATOM     19  C   UNL     1      27.034  28.948  17.945  1.00  0.00     0.217 C 
ATOM     20  H   UNL     1      27.453  30.524  19.260  1.00  0.00     0.163 HD
ATOM     21  C   UNL     1      25.839  29.586  17.318  1.00  0.00     0.114 C 
ATOM     22  O   UNL     1      27.411  27.813  17.575  1.00  0.00    -0.275 OA
ENDBRANCH   9  18
ENDBRANCH   3   4
BRANCH   3  23
ATOM     23  O   UNL     1      28.660  32.162  19.806  1.00  0.00    -0.388 OA
ATOM     24  H   UNL     1      28.516  32.999  19.352  1.00  0.00     0.211 HD
ENDBRANCH   3  23
ENDBRANCH   2   3
BRANCH   2  25
ATOM     25  O   UNL     1      31.124  32.203  21.236  1.00  0.00    -0.388 OA
ATOM     26  H   UNL     1      31.102  33.064  21.705  1.00  0.00     0.211 HD
ENDBRANCH   2  25
ENDBRANCH   1   2
BRANCH   1  27
ATOM     27  N   UNL     1      31.053  33.707  17.948  1.00  0.00    -0.319 N 
ATOM     28  C   UNL     1      32.022  34.494  17.305  1.00  0.00     0.407 C 
ATOM     29  H   UNL     1      30.412  33.142  17.310  1.00  0.00     0.167 HD
ATOM     30  O   UNL     1      32.845  35.227  17.877  1.00  0.00    -0.225 OA
BRANCH  28  31
ATOM     31  O   UNL     1      32.087  34.472  15.900  1.00  0.00    -0.443 OA
BRANCH  31  32
ATOM     32  C   UNL     1      31.541  33.391  15.207  1.00  0.00     0.294 C 
BRANCH  32  33
ATOM     33  C   UNL     1      30.218  33.783  14.657  1.00  0.00     0.121 A 
ATOM     34  C   UNL     1      29.991  34.499  13.487  1.00  0.00     0.144 A 
ATOM     35  N   UNL     1      28.995  33.536  15.157  1.00  0.00    -0.131 NA
ATOM     36  N   UNL     1      28.668  34.665  13.312  1.00  0.00    -0.220 N 
ATOM     37  N   UNL     1      28.102  34.067  14.344  1.00  0.00    -0.062 NA
BRANCH  36  38
ATOM     38  C   UNL     1      28.046  35.347  12.228  1.00  0.00     0.070 A 
ATOM     39  C   UNL     1      28.428  36.631  11.896  1.00  0.00     0.032 A 
ATOM     40  C   UNL     1      27.048  34.776  11.466  1.00  0.00     0.079 A 
ATOM     41  C   UNL     1      27.833  37.317  10.839  1.00  0.00     0.053 A 
ATOM     42  C   UNL     1      26.438  35.443  10.404  1.00  0.00     0.167 A 
ATOM     43  C   UNL     1      26.837  36.724  10.092  1.00  0.00     0.165 A 
ATOM     44  O   UNL     1      25.434  35.094   9.504  1.00  0.00    -0.454 OA
ATOM     45  O   UNL     1      26.057  37.131   8.996  1.00  0.00    -0.454 OA
ATOM     46  C   UNL     1      24.914  36.273   8.917  1.00  0.00     0.468 C 
ENDBRANCH  36  38
ENDBRANCH  32  33
ENDBRANCH  31  32
ENDBRANCH  28  31
ENDBRANCH   1  27
TORSDOF 15
BEGIN_RES LYS A 131
REMARK  4 active torsions:
REMARK  status: ('A' for Active; 'I' for Inactive)
REMARK    1  A    between atoms: CA   and  CB  
REMARK    2  A    between atoms: CB   and  CG  
REMARK    3  A    between atoms: CG   and  CD  
REMARK    4  A    between atoms: CD   and  CE  
ROOT
ATOM      1  CA  LYS A 131      29.867  25.555  16.977  1.00 20.52     0.186 C 
ENDROOT
BRANCH   1   2
ATOM      2  CB  LYS A 131      28.345  25.722  17.026  1.00 20.94     0.034 C 
BRANCH   2   3
ATOM      3  CG  LYS A 131      27.602  24.399  16.924  1.00 22.96     0.005 C 
BRANCH   3   4
ATOM      4  CD  LYS A 131      26.650  24.194  18.070  1.00 24.33     0.041 C 
BRANCH   4   5
ATOM      5  CE  LYS A 131      25.412  25.061  17.864  1.00 26.91     0.338 C 
ATOM      6  NZ  LYS A 131      25.050  25.756  19.122  1.00 27.40     0.618 N 
ENDBRANCH   4   5
ENDBRANCH   3   4
ENDBRANCH   2   3
ENDBRANCH   1   2
END_RES LYS A 131
BEGIN_RES LYS A 135
REMARK  4 active torsions:
REMARK  status: ('A' for Active; 'I' for Inactive)
REMARK    5  A    between atoms: CA   and  CB  
REMARK    6  A    between atoms: CB   and  CG  
REMARK    7  A    between atoms: CG   and  CD  
REMARK    8  A    between atoms: CD   and  CE  
ROOT
ATOM      7  CA  LYS A 135      33.193  34.663   9.290  1.00 25.02     0.186 C 
ENDROOT
BRANCH   7   8
ATOM      8  CB  LYS A 135      32.060  35.360  10.034  1.00 26.63     0.034 C 
BRANCH   8   9
ATOM      9  CG  LYS A 135      30.704  34.762   9.763  1.00 29.45     0.005 C 
BRANCH   9  10
ATOM     10  CD  LYS A 135      30.478  34.598   8.268  1.00 32.00     0.041 C 
BRANCH  10  11
ATOM     11  CE  LYS A 135      29.023  34.844   7.919  1.00 34.25     0.338 C 
ATOM     12  NZ  LYS A 135      28.897  35.581   6.631  1.00 35.99     0.618 N 
ENDBRANCH  10  11
ENDBRANCH   9  10
ENDBRANCH   8   9
ENDBRANCH   7   8
END_RES LYS A 135
