REMARK VINA RESULT:    -5.450      3.476      8.443
REMARK INTER + INTRA:         -15.345
REMARK INTER:                 -10.303
REMARK INTRA:                  -5.043
REMARK UNBOUND:                -5.276
REMARK SMILES COc1ccc(Cn2cc(COC(=O)NC[C@@H](O)C(O)[C@@H]3O[C@@](O)(C(=O)O)C[C@H](O)[C@H]3NC(C)=O)nn2)cc1
REMARK SMILES IDX 15 1 13 2 14 3 16 5 17 6 19 7 21 8 23 9 28 10 22 11 29 12
REMARK SMILES IDX 31 13 24 14 25 16 26 17 27 18 30 20 32 22 33 23 34 25 35 26
REMARK SMILES IDX 20 27 18 29 12 31 11 32 10 33 9 34 36 35 8 36 37 37 7 38
REMARK SMILES IDX 6 39 5 40 38 41 4 42 39 43 3 44 2 45 1 46
REMARK H PARENT 15 4 24 15 27 19 30 21 32 24 20 28 18 30
REMARK Flexibility Score: inf
ROOT
ATOM      1  N   UNL     1      28.904  31.083  16.855  1.00  0.00    -0.319 N 
ATOM      2  C   UNL     1      28.109  31.760  17.806  1.00  0.00     0.407 C 
ATOM      3  O   UNL     1      28.589  32.459  18.730  1.00  0.00    -0.225 OA
ATOM      4  H   UNL     1      28.397  30.524  16.130  1.00  0.00     0.167 HD
ENDROOT
BRANCH   1   5
ATOM      5  C   UNL     1      30.331  31.119  16.824  1.00  0.00     0.154 C 
BRANCH   5   6
ATOM      6  C   UNL     1      30.916  31.991  15.767  1.00  0.00     0.165 C 
BRANCH   6   7
ATOM      7  C   UNL     1      31.525  33.259  16.325  1.00  0.00     0.176 C 
BRANCH   7   8
ATOM      8  C   UNL     1      31.371  34.451  15.450  1.00  0.00     0.178 C 
ATOM      9  C   UNL     1      31.570  35.223  13.277  1.00  0.00     0.269 C 
ATOM     10  C   UNL     1      32.198  36.512  13.726  1.00  0.00     0.112 C 
ATOM     11  O   UNL     1      31.705  34.172  14.127  1.00  0.00    -0.332 OA
ATOM     12  C   UNL     1      32.035  36.756  15.212  1.00  0.00     0.145 C 
ATOM     13  C   UNL     1      32.402  35.489  15.906  1.00  0.00     0.142 C 
BRANCH   9  14
ATOM     14  O   UNL     1      32.272  34.868  12.096  1.00  0.00    -0.357 OA
ATOM     15  H   UNL     1      32.262  35.680  11.534  1.00  0.00     0.214 HD
ENDBRANCH   9  14
BRANCH   9  16
ATOM     16  C   UNL     1      30.180  35.520  12.856  1.00  0.00     0.364 C 
ATOM     17  O   UNL     1      29.291  34.623  12.773  1.00  0.00    -0.246 OA
BRANCH  16  18
ATOM     18  O   UNL     1      29.773  36.811  12.525  1.00  0.00    -0.477 OA
ATOM     19  H   UNL     1      30.439  37.555  12.441  1.00  0.00     0.296 HD
ENDBRANCH  16  18
ENDBRANCH   9  16
BRANCH  12  20
ATOM     20  O   UNL     1      32.800  37.840  15.595  1.00  0.00    -0.391 OA
ATOM     21  H   UNL     1      33.462  38.031  14.912  1.00  0.00     0.211 HD
ENDBRANCH  12  20
BRANCH  13  22
ATOM     22  N   UNL     1      32.518  35.594  17.325  1.00  0.00    -0.348 N 
ATOM     23  C   UNL     1      33.703  35.860  18.024  1.00  0.00     0.217 C 
ATOM     24  H   UNL     1      31.640  35.465  17.897  1.00  0.00     0.163 HD
ATOM     25  C   UNL     1      33.691  35.946  19.504  1.00  0.00     0.114 C 
ATOM     26  O   UNL     1      34.763  36.025  17.412  1.00  0.00    -0.275 OA
ENDBRANCH  13  22
ENDBRANCH   7   8
BRANCH   7  27
ATOM     27  O   UNL     1      31.010  33.496  17.581  1.00  0.00    -0.388 OA
ATOM     28  H   UNL     1      30.312  32.872  17.878  1.00  0.00     0.211 HD
ENDBRANCH   7  27
ENDBRANCH   6   7
BRANCH   6  29
ATOM     29  O   UNL     1      30.069  32.240  14.728  1.00  0.00    -0.388 OA
ATOM     30  H   UNL     1      29.130  32.205  15.082  1.00  0.00     0.211 HD
ENDBRANCH   6  29
ENDBRANCH   5   6
ENDBRANCH   1   5
BRANCH   2  31
ATOM     31  O   UNL     1      26.707  31.659  17.733  1.00  0.00    -0.443 OA
BRANCH  31  32
ATOM     32  C   UNL     1      26.124  30.380  17.823  1.00  0.00     0.294 C 
BRANCH  32  33
ATOM     33  C   UNL     1      25.291  30.058  16.650  1.00  0.00     0.120 A 
ATOM     34  C   UNL     1      25.496  30.470  15.330  1.00  0.00     0.138 A 
ATOM     35  N   UNL     1      24.173  29.313  16.610  1.00  0.00    -0.132 NA
ATOM     36  N   UNL     1      24.517  29.968  14.565  1.00  0.00    -0.248 N 
ATOM     37  N   UNL     1      23.730  29.272  15.363  1.00  0.00    -0.067 NA
BRANCH  36  38
ATOM     38  C   UNL     1      24.331  30.136  13.147  1.00  0.00     0.181 C 
BRANCH  38  39
ATOM     39  C   UNL     1      22.898  30.237  12.797  1.00  0.00    -0.026 A 
ATOM     40  C   UNL     1      22.197  29.123  12.395  1.00  0.00     0.009 A 
ATOM     41  C   UNL     1      22.264  31.450  12.872  1.00  0.00     0.009 A 
ATOM     42  C   UNL     1      20.847  29.229  12.067  1.00  0.00     0.047 A 
ATOM     43  C   UNL     1      20.914  31.569  12.547  1.00  0.00     0.047 A 
ATOM     44  C   UNL     1      20.215  30.459  12.147  1.00  0.00     0.118 A 
BRANCH  44  45
ATOM     45  O   UNL     1      18.862  30.544  11.814  1.00  0.00    -0.497 OA
ATOM     46  C   UNL     1      18.206  29.414  11.266  1.00  0.00     0.278 C 
ENDBRANCH  44  45
ENDBRANCH  38  39
ENDBRANCH  36  38
ENDBRANCH  32  33
ENDBRANCH  31  32
ENDBRANCH   2  31
TORSDOF 17
BEGIN_RES LYS A 131
REMARK  4 active torsions:
REMARK  status: ('A' for Active; 'I' for Inactive)
REMARK    1  A    between atoms: CA   and  CB  
REMARK    2  A    between atoms: CB   and  CG  
REMARK    3  A    between atoms: CG   and  CD  
REMARK    4  A    between atoms: CD   and  CE  
ROOT
ATOM      1  CA  LYS A 131      29.867  25.555  16.977  1.00 20.52     0.186 C 
ENDROOT
BRANCH   1   2
ATOM      2  CB  LYS A 131      28.345  25.722  17.026  1.00 20.94     0.034 C 
BRANCH   2   3
ATOM      3  CG  LYS A 131      27.601  24.401  16.906  1.00 22.96     0.005 C 
BRANCH   3   4
ATOM      4  CD  LYS A 131      26.159  24.524  17.310  1.00 24.33     0.041 C 
BRANCH   4   5
ATOM      5  CE  LYS A 131      25.918  23.722  18.586  1.00 26.91     0.338 C 
ATOM      6  NZ  LYS A 131      24.616  23.017  18.517  1.00 27.40     0.618 N 
ENDBRANCH   4   5
ENDBRANCH   3   4
ENDBRANCH   2   3
ENDBRANCH   1   2
END_RES LYS A 131
BEGIN_RES LYS A 135
REMARK  4 active torsions:
REMARK  status: ('A' for Active; 'I' for Inactive)
REMARK    5  A    between atoms: CA   and  CB  
REMARK    6  A    between atoms: CB   and  CG  
REMARK    7  A    between atoms: CG   and  CD  
REMARK    8  A    between atoms: CD   and  CE  
ROOT
ATOM      7  CA  LYS A 135      33.193  34.663   9.290  1.00 25.02     0.186 C 
ENDROOT
BRANCH   7   8
ATOM      8  CB  LYS A 135      32.060  35.360  10.034  1.00 26.63     0.034 C 
BRANCH   8   9
ATOM      9  CG  LYS A 135      30.803  35.507   9.216  1.00 29.45     0.005 C 
BRANCH   9  10
ATOM     10  CD  LYS A 135      30.097  34.167   9.071  1.00 32.00     0.041 C 
BRANCH  10  11
ATOM     11  CE  LYS A 135      28.634  34.370   8.729  1.00 34.25     0.338 C 
ATOM     12  NZ  LYS A 135      27.753  33.648   9.688  1.00 35.99     0.618 N 
ENDBRANCH  10  11
ENDBRANCH   9  10
ENDBRANCH   8   9
ENDBRANCH   7   8
END_RES LYS A 135
