REMARK VINA RESULT:    -5.016      5.003      8.754
REMARK INTER + INTRA:         -13.954
REMARK INTER:                  -7.907
REMARK INTRA:                  -6.046
REMARK UNBOUND:                -5.272
REMARK SMILES CC(=O)N[C@@H]1[C@@H](O)C[C@](O)(C(=O)O)O[C@H]1C(O)[C@H](O)CNC(=O)OCc1cn(-c2ccncc2)nn1
REMARK SMILES IDX 20 1 18 2 16 3 15 4 9 5 8 6 14 7 6 8 5 9 10 10 11 12 12 13
REMARK SMILES IDX 13 14 7 16 4 18 2 19 1 21 3 22 17 23 19 25 21 27 22 28 23 30
REMARK SMILES IDX 24 31 25 32 26 33 27 34 36 35 28 36 35 37 29 38 30 39 34 40
REMARK SMILES IDX 31 41 33 42 32 43
REMARK H PARENT 10 11 13 15 7 17 4 20 17 24 19 26 21 29
REMARK Flexibility Score: inf
ROOT
ATOM      1  C   UNL     1      32.355  37.197  18.063  1.00  0.00     0.154 C 
ENDROOT
BRANCH   1   2
ATOM      2  C   UNL     1      32.685  37.512  16.646  1.00  0.00     0.165 C 
BRANCH   2   3
ATOM      3  C   UNL     1      32.850  36.265  15.793  1.00  0.00     0.176 C 
BRANCH   3   4
ATOM      4  C   UNL     1      31.672  35.359  15.828  1.00  0.00     0.178 C 
ATOM      5  C   UNL     1      30.984  33.169  16.060  1.00  0.00     0.269 C 
ATOM      6  C   UNL     1      29.616  33.738  15.775  1.00  0.00     0.112 C 
ATOM      7  O   UNL     1      31.926  34.120  16.344  1.00  0.00    -0.332 OA
ATOM      8  C   UNL     1      29.628  34.751  14.664  1.00  0.00     0.145 C 
ATOM      9  C   UNL     1      31.067  35.172  14.446  1.00  0.00     0.142 C 
BRANCH   5  10
ATOM     10  O   UNL     1      31.410  32.310  15.047  1.00  0.00    -0.357 OA
ATOM     11  H   UNL     1      32.137  31.706  15.356  1.00  0.00     0.214 HD
ENDBRANCH   5  10
BRANCH   5  12
ATOM     12  C   UNL     1      30.836  32.316  17.291  1.00  0.00     0.364 C 
ATOM     13  O   UNL     1      30.435  31.143  17.264  1.00  0.00    -0.246 OA
BRANCH  12  14
ATOM     14  O   UNL     1      31.180  32.928  18.494  1.00  0.00    -0.477 OA
ATOM     15  H   UNL     1      32.145  33.189  18.679  1.00  0.00     0.296 HD
ENDBRANCH  12  14
ENDBRANCH   5  12
BRANCH   8  16
ATOM     16  O   UNL     1      29.089  34.238  13.484  1.00  0.00    -0.391 OA
ATOM     17  H   UNL     1      28.608  34.954  13.003  1.00  0.00     0.211 HD
ENDBRANCH   8  16
BRANCH   9  18
ATOM     18  N   UNL     1      31.160  36.370  13.645  1.00  0.00    -0.348 N 
ATOM     19  C   UNL     1      32.076  36.453  12.561  1.00  0.00     0.217 C 
ATOM     20  H   UNL     1      30.567  37.199  13.835  1.00  0.00     0.163 HD
ATOM     21  C   UNL     1      32.198  37.680  11.711  1.00  0.00     0.114 C 
ATOM     22  O   UNL     1      32.808  35.463  12.309  1.00  0.00    -0.275 OA
ENDBRANCH   9  18
ENDBRANCH   3   4
BRANCH   3  23
ATOM     23  O   UNL     1      34.072  35.679  16.000  1.00  0.00    -0.388 OA
ATOM     24  H   UNL     1      33.962  34.902  16.612  1.00  0.00     0.211 HD
ENDBRANCH   3  23
ENDBRANCH   2   3
BRANCH   2  25
ATOM     25  O   UNL     1      33.865  38.221  16.507  1.00  0.00    -0.388 OA
ATOM     26  H   UNL     1      34.458  37.873  15.804  1.00  0.00     0.211 HD
ENDBRANCH   2  25
ENDBRANCH   1   2
BRANCH   1  27
ATOM     27  N   UNL     1      33.540  37.105  18.867  1.00  0.00    -0.319 N 
ATOM     28  C   UNL     1      34.036  35.989  19.551  1.00  0.00     0.407 C 
ATOM     29  H   UNL     1      34.137  37.998  18.970  1.00  0.00     0.167 HD
ATOM     30  O   UNL     1      33.440  34.911  19.521  1.00  0.00    -0.225 OA
BRANCH  28  31
ATOM     31  O   UNL     1      35.225  36.028  20.304  1.00  0.00    -0.443 OA
BRANCH  31  32
ATOM     32  C   UNL     1      36.364  35.289  19.848  1.00  0.00     0.294 C 
BRANCH  32  33
ATOM     33  C   UNL     1      36.698  35.634  18.463  1.00  0.00     0.121 A 
ATOM     34  C   UNL     1      37.414  34.919  17.530  1.00  0.00     0.144 A 
ATOM     35  N   UNL     1      36.333  36.779  17.847  1.00  0.00    -0.131 NA
ATOM     36  N   UNL     1      37.447  35.662  16.400  1.00  0.00    -0.220 N 
ATOM     37  N   UNL     1      36.794  36.779  16.601  1.00  0.00    -0.062 NA
BRANCH  36  38
ATOM     38  C   UNL     1      38.083  35.313  15.169  1.00  0.00     0.069 A 
ATOM     39  C   UNL     1      37.619  34.223  14.472  1.00  0.00     0.048 A 
ATOM     40  C   UNL     1      39.150  36.064  14.691  1.00  0.00     0.048 A 
ATOM     41  C   UNL     1      38.243  33.900  13.287  1.00  0.00     0.113 A 
ATOM     42  C   UNL     1      39.734  35.705  13.511  1.00  0.00     0.113 A 
ATOM     43  N   UNL     1      39.270  34.633  12.836  1.00  0.00    -0.265 NA
ENDBRANCH  36  38
ENDBRANCH  32  33
ENDBRANCH  31  32
ENDBRANCH  28  31
ENDBRANCH   1  27
TORSDOF 15
BEGIN_RES LYS A 131
REMARK  4 active torsions:
REMARK  status: ('A' for Active; 'I' for Inactive)
REMARK    1  A    between atoms: CA   and  CB  
REMARK    2  A    between atoms: CB   and  CG  
REMARK    3  A    between atoms: CG   and  CD  
REMARK    4  A    between atoms: CD   and  CE  
ROOT
ATOM      1  CA  LYS A 131      29.867  25.555  16.977  1.00 20.52     0.186 C 
ENDROOT
BRANCH   1   2
ATOM      2  CB  LYS A 131      28.345  25.722  17.026  1.00 20.94     0.034 C 
BRANCH   2   3
ATOM      3  CG  LYS A 131      27.601  24.402  16.890  1.00 22.96     0.005 C 
BRANCH   3   4
ATOM      4  CD  LYS A 131      26.151  24.528  17.269  1.00 24.33     0.041 C 
BRANCH   4   5
ATOM      5  CE  LYS A 131      25.600  23.153  17.635  1.00 26.91     0.338 C 
ATOM      6  NZ  LYS A 131      24.226  22.988  17.105  1.00 27.40     0.618 N 
ENDBRANCH   4   5
ENDBRANCH   3   4
ENDBRANCH   2   3
ENDBRANCH   1   2
END_RES LYS A 131
BEGIN_RES LYS A 135
REMARK  4 active torsions:
REMARK  status: ('A' for Active; 'I' for Inactive)
REMARK    5  A    between atoms: CA   and  CB  
REMARK    6  A    between atoms: CB   and  CG  
REMARK    7  A    between atoms: CG   and  CD  
REMARK    8  A    between atoms: CD   and  CE  
ROOT
ATOM      7  CA  LYS A 135      33.193  34.663   9.290  1.00 25.02     0.186 C 
ENDROOT
BRANCH   7   8
ATOM      8  CB  LYS A 135      32.060  35.360  10.034  1.00 26.63     0.034 C 
BRANCH   8   9
ATOM      9  CG  LYS A 135      30.849  35.623   9.177  1.00 29.45     0.005 C 
BRANCH   9  10
ATOM     10  CD  LYS A 135      30.282  34.320   8.634  1.00 32.00     0.041 C 
BRANCH  10  11
ATOM     11  CE  LYS A 135      28.773  34.406   8.511  1.00 34.25     0.338 C 
ATOM     12  NZ  LYS A 135      28.377  35.188   7.306  1.00 35.99     0.618 N 
ENDBRANCH  10  11
ENDBRANCH   9  10
ENDBRANCH   8   9
ENDBRANCH   7   8
END_RES LYS A 135
