REMARK VINA RESULT:    -4.807      0.000      0.000
REMARK INTER + INTRA:         -14.885
REMARK INTER:                  -9.335
REMARK INTRA:                  -5.550
REMARK UNBOUND:                -6.145
REMARK SMILES CC(=O)N[C@@H]1[C@@H](O)C[C@](O)(C(=O)O)O[C@H]1C(O)[C@H](O)CNC(=O)OCc1cn(C(C)(C)CO)nn1
REMARK SMILES IDX 21 1 22 2 23 3 20 5 18 6 16 7 15 8 9 9 8 10 14 11 6 12 5 13
REMARK SMILES IDX 10 14 11 16 12 17 13 18 7 20 4 22 2 23 1 25 3 26 17 27 19 29
REMARK SMILES IDX 24 31 25 32 26 33 27 34 35 35 28 36 34 37 29 38 30 39 31 40
REMARK SMILES IDX 32 41 33 42
REMARK H PARENT 21 4 10 15 13 19 7 21 4 24 17 28 19 30 33 43
REMARK Flexibility Score: inf
ROOT
ATOM      1  N   UNL     1      28.172  40.307   4.486  1.00  0.00    -0.319 N 
ATOM      2  C   UNL     1      28.140  41.737   4.414  1.00  0.00     0.407 C 
ATOM      3  O   UNL     1      27.135  42.401   4.839  1.00  0.00    -0.225 OA
ATOM      4  H   UNL     1      29.017  39.817   4.138  1.00  0.00     0.167 HD
ENDROOT
BRANCH   1   5
ATOM      5  C   UNL     1      27.045  39.596   5.052  1.00  0.00     0.154 C 
BRANCH   5   6
ATOM      6  C   UNL     1      27.439  38.393   5.815  1.00  0.00     0.165 C 
BRANCH   6   7
ATOM      7  C   UNL     1      28.670  38.454   6.637  1.00  0.00     0.176 C 
BRANCH   7   8
ATOM      8  C   UNL     1      28.491  37.748   7.958  1.00  0.00     0.178 C 
ATOM      9  C   UNL     1      29.227  35.548   7.498  1.00  0.00     0.269 C 
ATOM     10  C   UNL     1      27.778  35.050   7.654  1.00  0.00     0.112 C 
ATOM     11  O   UNL     1      29.434  36.750   8.094  1.00  0.00    -0.332 OA
ATOM     12  C   UNL     1      27.204  35.848   8.776  1.00  0.00     0.145 C 
ATOM     13  C   UNL     1      27.089  37.309   8.252  1.00  0.00     0.142 C 
BRANCH   9  14
ATOM     14  O   UNL     1      29.584  35.454   6.169  1.00  0.00    -0.357 OA
ATOM     15  H   UNL     1      29.980  36.306   5.866  1.00  0.00     0.214 HD
ENDBRANCH   9  14
BRANCH   9  16
ATOM     16  C   UNL     1      30.099  34.565   8.254  1.00  0.00     0.364 C 
ATOM     17  O   UNL     1      29.617  33.842   9.157  1.00  0.00    -0.246 OA
BRANCH  16  18
ATOM     18  O   UNL     1      31.433  34.492   7.916  1.00  0.00    -0.477 OA
ATOM     19  H   UNL     1      31.893  35.239   7.409  1.00  0.00     0.296 HD
ENDBRANCH  16  18
ENDBRANCH   9  16
BRANCH  12  20
ATOM     20  O   UNL     1      25.968  35.404   9.202  1.00  0.00    -0.391 OA
ATOM     21  H   UNL     1      25.288  35.851   8.631  1.00  0.00     0.211 HD
ENDBRANCH  12  20
BRANCH  13  22
ATOM     22  N   UNL     1      26.501  37.998   9.412  1.00  0.00    -0.348 N 
ATOM     23  C   UNL     1      25.382  38.832   9.326  1.00  0.00     0.217 C 
ATOM     24  H   UNL     1      26.961  37.837  10.332  1.00  0.00     0.163 HD
ATOM     25  C   UNL     1      24.776  39.541  10.482  1.00  0.00     0.114 C 
ATOM     26  O   UNL     1      24.844  39.003   8.197  1.00  0.00    -0.275 OA
ENDBRANCH  13  22
ENDBRANCH   7   8
BRANCH   7  27
ATOM     27  O   UNL     1      29.872  38.310   6.026  1.00  0.00    -0.388 OA
ATOM     28  H   UNL     1      29.833  38.230   5.038  1.00  0.00     0.211 HD
ENDBRANCH   7  27
ENDBRANCH   6   7
BRANCH   6  29
ATOM     29  O   UNL     1      27.554  37.296   4.930  1.00  0.00    -0.388 OA
ATOM     30  H   UNL     1      28.254  36.703   5.282  1.00  0.00     0.211 HD
ENDBRANCH   6  29
ENDBRANCH   5   6
ENDBRANCH   1   5
BRANCH   2  31
ATOM     31  O   UNL     1      29.222  42.383   3.874  1.00  0.00    -0.443 OA
BRANCH  31  32
ATOM     32  C   UNL     1      30.254  42.930   4.640  1.00  0.00     0.294 C 
BRANCH  32  33
ATOM     33  C   UNL     1      31.033  41.872   5.333  1.00  0.00     0.120 A 
ATOM     34  C   UNL     1      31.451  41.942   6.638  1.00  0.00     0.139 A 
ATOM     35  N   UNL     1      31.465  40.703   4.859  1.00  0.00    -0.132 NA
ATOM     36  N   UNL     1      32.121  40.822   6.928  1.00  0.00    -0.244 N 
ATOM     37  N   UNL     1      32.113  40.081   5.818  1.00  0.00    -0.066 NA
BRANCH  36  38
ATOM     38  C   UNL     1      32.722  40.510   8.200  1.00  0.00     0.082 C 
ATOM     39  C   UNL     1      32.773  41.736   9.085  1.00  0.00     0.039 C 
ATOM     40  C   UNL     1      34.129  39.979   7.955  1.00  0.00     0.039 C 
BRANCH  38  41
ATOM     41  C   UNL     1      31.949  39.403   8.869  1.00  0.00     0.186 C 
BRANCH  41  42
ATOM     42  O   UNL     1      31.919  38.274   8.044  1.00  0.00    -0.394 OA
ATOM     43  H   UNL     1      31.101  37.755   8.252  1.00  0.00     0.210 HD
ENDBRANCH  41  42
ENDBRANCH  38  41
ENDBRANCH  36  38
ENDBRANCH  32  33
ENDBRANCH  31  32
ENDBRANCH   2  31
TORSDOF 17
BEGIN_RES LYS A 131
REMARK  4 active torsions:
REMARK  status: ('A' for Active; 'I' for Inactive)
REMARK    1  A    between atoms: CA   and  CB  
REMARK    2  A    between atoms: CB   and  CG  
REMARK    3  A    between atoms: CG   and  CD  
REMARK    4  A    between atoms: CD   and  CE  
ROOT
ATOM      1  CA  LYS A 131      29.867  25.555  16.977  1.00 20.52     0.186 C 
ENDROOT
BRANCH   1   2
ATOM      2  CB  LYS A 131      28.345  25.722  17.026  1.00 20.94     0.034 C 
BRANCH   2   3
ATOM      3  CG  LYS A 131      27.600  24.414  16.809  1.00 22.96     0.005 C 
BRANCH   3   4
ATOM      4  CD  LYS A 131      26.166  24.499  17.253  1.00 24.33     0.041 C 
BRANCH   4   5
ATOM      5  CE  LYS A 131      25.740  23.165  17.857  1.00 26.91     0.338 C 
ATOM      6  NZ  LYS A 131      25.505  23.306  19.313  1.00 27.40     0.618 N 
ENDBRANCH   4   5
ENDBRANCH   3   4
ENDBRANCH   2   3
ENDBRANCH   1   2
END_RES LYS A 131
BEGIN_RES LYS A 135
REMARK  4 active torsions:
REMARK  status: ('A' for Active; 'I' for Inactive)
REMARK    5  A    between atoms: CA   and  CB  
REMARK    6  A    between atoms: CB   and  CG  
REMARK    7  A    between atoms: CG   and  CD  
REMARK    8  A    between atoms: CD   and  CE  
ROOT
ATOM      7  CA  LYS A 135      33.193  34.663   9.290  1.00 25.02     0.186 C 
ENDROOT
BRANCH   7   8
ATOM      8  CB  LYS A 135      32.060  35.360  10.034  1.00 26.63     0.034 C 
BRANCH   8   9
ATOM      9  CG  LYS A 135      32.388  35.677  11.470  1.00 29.45     0.005 C 
BRANCH   9  10
ATOM     10  CD  LYS A 135      31.259  35.234  12.389  1.00 32.00     0.041 C 
BRANCH  10  11
ATOM     11  CE  LYS A 135      31.625  35.480  13.840  1.00 34.25     0.338 C 
ATOM     12  NZ  LYS A 135      32.111  36.874  14.041  1.00 35.99     0.618 N 
ENDBRANCH  10  11
ENDBRANCH   9  10
ENDBRANCH   8   9
ENDBRANCH   7   8
END_RES LYS A 135
