REMARK VINA RESULT:    -4.521      3.625      9.104
REMARK INTER + INTRA:         -13.611
REMARK INTER:                  -8.345
REMARK INTRA:                  -5.266
REMARK UNBOUND:                -5.786
REMARK SMILES CC(=O)N[C@@H]1[C@@H](O)C[C@](O)(C(=O)O)O[C@H]1C(O)[C@H](O)CNC(=O)OCc1cn(C2CCN(C)CC2)nn1
REMARK SMILES IDX 20 1 18 2 16 3 15 4 9 5 8 6 14 7 6 8 5 9 10 10 11 12 12 13
REMARK SMILES IDX 13 14 7 16 4 18 2 19 1 21 3 22 17 23 19 25 21 27 22 28 23 30
REMARK SMILES IDX 24 31 25 32 26 33 27 34 37 35 28 36 36 37 29 38 30 39 35 40
REMARK SMILES IDX 31 41 34 42 32 43 33 44
REMARK H PARENT 10 11 13 15 7 17 4 20 17 24 19 26 21 29
REMARK Flexibility Score: inf
ROOT
ATOM      1  C   UNL     1      30.042  31.132  16.079  1.00  0.00     0.154 C 
ENDROOT
BRANCH   1   2
ATOM      2  C   UNL     1      30.547  32.470  15.656  1.00  0.00     0.165 C 
BRANCH   2   3
ATOM      3  C   UNL     1      29.494  33.291  14.941  1.00  0.00     0.176 C 
BRANCH   3   4
ATOM      4  C   UNL     1      30.158  34.411  14.170  1.00  0.00     0.178 C 
ATOM      5  C   UNL     1      31.819  36.049  14.274  1.00  0.00     0.269 C 
ATOM      6  C   UNL     1      30.889  37.065  13.687  1.00  0.00     0.112 C 
ATOM      7  O   UNL     1      31.234  34.940  14.810  1.00  0.00    -0.332 OA
ATOM      8  C   UNL     1      29.810  36.415  12.862  1.00  0.00     0.145 C 
ATOM      9  C   UNL     1      29.113  35.403  13.768  1.00  0.00     0.142 C 
BRANCH   5  10
ATOM     10  O   UNL     1      32.622  36.716  15.242  1.00  0.00    -0.357 OA
ATOM     11  H   UNL     1      32.195  36.694  16.133  1.00  0.00     0.214 HD
ENDBRANCH   5  10
BRANCH   5  12
ATOM     12  C   UNL     1      32.740  35.589  13.203  1.00  0.00     0.364 C 
ATOM     13  O   UNL     1      32.880  36.277  12.161  1.00  0.00    -0.246 OA
BRANCH  12  14
ATOM     14  O   UNL     1      33.484  34.420  13.259  1.00  0.00    -0.477 OA
ATOM     15  H   UNL     1      33.858  34.049  14.132  1.00  0.00     0.296 HD
ENDBRANCH  12  14
ENDBRANCH   5  12
BRANCH   8  16
ATOM     16  O   UNL     1      28.876  37.349  12.407  1.00  0.00    -0.391 OA
ATOM     17  H   UNL     1      28.870  38.169  12.948  1.00  0.00     0.211 HD
ENDBRANCH   8  16
BRANCH   9  18
ATOM     18  N   UNL     1      28.117  34.756  12.903  1.00  0.00    -0.348 N 
ATOM     19  C   UNL     1      26.742  35.047  12.995  1.00  0.00     0.217 C 
ATOM     20  H   UNL     1      28.475  34.076  12.220  1.00  0.00     0.163 HD
ATOM     21  C   UNL     1      25.735  34.375  12.101  1.00  0.00     0.114 C 
ATOM     22  O   UNL     1      26.363  35.888  13.850  1.00  0.00    -0.275 OA
ENDBRANCH   9  18
ENDBRANCH   3   4
BRANCH   3  23
ATOM     23  O   UNL     1      28.586  33.749  15.868  1.00  0.00    -0.388 OA
ATOM     24  H   UNL     1      28.030  34.475  15.487  1.00  0.00     0.211 HD
ENDBRANCH   3  23
ENDBRANCH   2   3
BRANCH   2  25
ATOM     25  O   UNL     1      31.615  32.269  14.749  1.00  0.00    -0.388 OA
ATOM     26  H   UNL     1      31.471  32.789  13.915  1.00  0.00     0.211 HD
ENDBRANCH   2  25
ENDBRANCH   1   2
BRANCH   1  27
ATOM     27  N   UNL     1      30.283  30.973  17.497  1.00  0.00    -0.319 N 
ATOM     28  C   UNL     1      29.386  31.390  18.516  1.00  0.00     0.407 C 
ATOM     29  H   UNL     1      31.174  30.520  17.865  1.00  0.00     0.167 HD
ATOM     30  O   UNL     1      28.315  31.928  18.197  1.00  0.00    -0.225 OA
BRANCH  28  31
ATOM     31  O   UNL     1      29.662  31.217  19.867  1.00  0.00    -0.443 OA
BRANCH  31  32
ATOM     32  C   UNL     1      30.046  29.952  20.366  1.00  0.00     0.294 C 
BRANCH  32  33
ATOM     33  C   UNL     1      28.863  29.066  20.520  1.00  0.00     0.120 A 
ATOM     34  C   UNL     1      28.115  28.474  19.543  1.00  0.00     0.138 A 
ATOM     35  N   UNL     1      28.309  28.685  21.686  1.00  0.00    -0.132 NA
ATOM     36  N   UNL     1      27.135  27.756  20.117  1.00  0.00    -0.249 N 
ATOM     37  N   UNL     1      27.287  27.909  21.436  1.00  0.00    -0.067 NA
BRANCH  36  38
ATOM     38  C   UNL     1      26.130  26.980  19.427  1.00  0.00     0.111 C 
ATOM     39  C   UNL     1      25.906  27.488  18.020  1.00  0.00     0.043 C 
ATOM     40  C   UNL     1      24.858  26.899  20.217  1.00  0.00     0.043 C 
ATOM     41  C   UNL     1      24.939  28.648  17.971  1.00  0.00     0.086 C 
ATOM     42  C   UNL     1      23.999  28.121  20.117  1.00  0.00     0.086 C 
ATOM     43  N   UNL     1      23.751  28.415  18.738  1.00  0.00    -0.306 NA
ATOM     44  C   UNL     1      22.898  27.411  18.170  1.00  0.00     0.105 C 
ENDBRANCH  36  38
ENDBRANCH  32  33
ENDBRANCH  31  32
ENDBRANCH  28  31
ENDBRANCH   1  27
TORSDOF 15
BEGIN_RES LYS A 131
REMARK  4 active torsions:
REMARK  status: ('A' for Active; 'I' for Inactive)
REMARK    1  A    between atoms: CA   and  CB  
REMARK    2  A    between atoms: CB   and  CG  
REMARK    3  A    between atoms: CG   and  CD  
REMARK    4  A    between atoms: CD   and  CE  
ROOT
ATOM      1  CA  LYS A 131      29.867  25.555  16.977  1.00 20.52     0.186 C 
ENDROOT
BRANCH   1   2
ATOM      2  CB  LYS A 131      28.345  25.722  17.026  1.00 20.94     0.034 C 
BRANCH   2   3
ATOM      3  CG  LYS A 131      27.599  24.441  16.685  1.00 22.96     0.005 C 
BRANCH   3   4
ATOM      4  CD  LYS A 131      27.033  23.773  17.908  1.00 24.33     0.041 C 
BRANCH   4   5
ATOM      5  CE  LYS A 131      25.651  23.212  17.588  1.00 26.91     0.338 C 
ATOM      6  NZ  LYS A 131      24.796  24.257  16.979  1.00 27.40     0.618 N 
ENDBRANCH   4   5
ENDBRANCH   3   4
ENDBRANCH   2   3
ENDBRANCH   1   2
END_RES LYS A 131
BEGIN_RES LYS A 135
REMARK  4 active torsions:
REMARK  status: ('A' for Active; 'I' for Inactive)
REMARK    5  A    between atoms: CA   and  CB  
REMARK    6  A    between atoms: CB   and  CG  
REMARK    7  A    between atoms: CG   and  CD  
REMARK    8  A    between atoms: CD   and  CE  
ROOT
ATOM      7  CA  LYS A 135      33.193  34.663   9.290  1.00 25.02     0.186 C 
ENDROOT
BRANCH   7   8
ATOM      8  CB  LYS A 135      32.060  35.360  10.034  1.00 26.63     0.034 C 
BRANCH   8   9
ATOM      9  CG  LYS A 135      30.729  34.668   9.889  1.00 29.45     0.005 C 
BRANCH   9  10
ATOM     10  CD  LYS A 135      30.340  34.555   8.423  1.00 32.00     0.041 C 
BRANCH  10  11
ATOM     11  CE  LYS A 135      28.831  34.549   8.272  1.00 34.25     0.338 C 
ATOM     12  NZ  LYS A 135      28.181  33.829   9.401  1.00 35.99     0.618 N 
ENDBRANCH  10  11
ENDBRANCH   9  10
ENDBRANCH   8   9
ENDBRANCH   7   8
END_RES LYS A 135
