REMARK VINA RESULT:    -5.310      7.072     13.237
REMARK INTER + INTRA:         -14.838
REMARK INTER:                  -9.093
REMARK INTRA:                  -5.745
REMARK UNBOUND:                -5.337
REMARK SMILES CC(=O)N[C@@H]1[C@@H](O)C[C@](O)(C(=O)O)O[C@H]1C(O)[C@H](O)CNC(=O)OCc1cn(CC2=CC[C@H]3C[C@@H]2C3(C)C)nn1
REMARK SMILES IDX 21 1 22 2 23 3 20 5 18 6 16 7 15 8 9 9 8 10 14 11 6 12 5 13
REMARK SMILES IDX 10 14 11 16 12 17 13 18 7 20 4 22 2 23 1 25 3 26 17 27 19 29
REMARK SMILES IDX 24 31 25 32 26 33 27 34 40 35 28 36 39 37 29 38 30 39 31 40
REMARK SMILES IDX 35 41 32 42 34 43 36 44 33 45 37 46 38 47
REMARK H PARENT 21 4 10 15 13 19 7 21 4 24 17 28 19 30
REMARK Flexibility Score: inf
ROOT
ATOM      1  N   UNL     1      30.193  39.214  11.370  1.00  0.00    -0.319 N 
ATOM      2  C   UNL     1      29.628  39.740  12.583  1.00  0.00     0.407 C 
ATOM      3  O   UNL     1      29.666  40.982  12.774  1.00  0.00    -0.225 OA
ATOM      4  H   UNL     1      30.163  38.186  11.206  1.00  0.00     0.167 HD
ENDROOT
BRANCH   1   5
ATOM      5  C   UNL     1      30.788  40.115  10.406  1.00  0.00     0.154 C 
BRANCH   5   6
ATOM      6  C   UNL     1      30.082  39.929   9.093  1.00  0.00     0.165 C 
BRANCH   6   7
ATOM      7  C   UNL     1      30.327  38.561   8.497  1.00  0.00     0.176 C 
BRANCH   7   8
ATOM      8  C   UNL     1      28.980  37.900   8.322  1.00  0.00     0.178 C 
ATOM      9  C   UNL     1      29.413  35.635   8.104  1.00  0.00     0.269 C 
ATOM     10  C   UNL     1      28.816  35.549   6.718  1.00  0.00     0.112 C 
ATOM     11  O   UNL     1      28.891  36.652   8.866  1.00  0.00    -0.332 OA
ATOM     12  C   UNL     1      27.824  36.674   6.568  1.00  0.00     0.145 C 
ATOM     13  C   UNL     1      28.562  37.963   6.871  1.00  0.00     0.142 C 
BRANCH   9  14
ATOM     14  O   UNL     1      30.807  35.691   8.008  1.00  0.00    -0.357 OA
ATOM     15  H   UNL     1      31.101  36.313   8.728  1.00  0.00     0.214 HD
ENDBRANCH   9  14
BRANCH   9  16
ATOM     16  C   UNL     1      29.086  34.351   8.791  1.00  0.00     0.364 C 
ATOM     17  O   UNL     1      30.039  33.580   9.154  1.00  0.00    -0.246 OA
BRANCH  16  18
ATOM     18  O   UNL     1      27.794  33.951   9.057  1.00  0.00    -0.477 OA
ATOM     19  H   UNL     1      27.561  33.405   9.882  1.00  0.00     0.296 HD
ENDBRANCH  16  18
ENDBRANCH   9  16
BRANCH  12  20
ATOM     20  O   UNL     1      27.307  36.757   5.290  1.00  0.00    -0.391 OA
ATOM     21  H   UNL     1      27.792  37.483   4.820  1.00  0.00     0.211 HD
ENDBRANCH  12  20
BRANCH  13  22
ATOM     22  N   UNL     1      27.761  39.120   6.565  1.00  0.00    -0.348 N 
ATOM     23  C   UNL     1      28.272  40.200   5.800  1.00  0.00     0.217 C 
ATOM     24  H   UNL     1      26.783  39.148   6.924  1.00  0.00     0.163 HD
ATOM     25  C   UNL     1      27.376  41.358   5.531  1.00  0.00     0.114 C 
ATOM     26  O   UNL     1      29.450  40.173   5.365  1.00  0.00    -0.275 OA
ENDBRANCH  13  22
ENDBRANCH   7   8
BRANCH   7  27
ATOM     27  O   UNL     1      30.913  38.668   7.238  1.00  0.00    -0.388 OA
ATOM     28  H   UNL     1      30.547  38.046   6.586  1.00  0.00     0.211 HD
ENDBRANCH   7  27
ENDBRANCH   6   7
BRANCH   6  29
ATOM     29  O   UNL     1      30.613  40.895   8.212  1.00  0.00    -0.388 OA
ATOM     30  H   UNL     1      30.939  41.687   8.725  1.00  0.00     0.211 HD
ENDBRANCH   6  29
ENDBRANCH   5   6
ENDBRANCH   1   5
BRANCH   2  31
ATOM     31  O   UNL     1      29.049  38.949  13.538  1.00  0.00    -0.443 OA
BRANCH  31  32
ATOM     32  C   UNL     1      27.656  38.705  13.629  1.00  0.00     0.294 C 
BRANCH  32  33
ATOM     33  C   UNL     1      27.294  37.518  12.828  1.00  0.00     0.120 A 
ATOM     34  C   UNL     1      26.046  37.086  12.445  1.00  0.00     0.138 A 
ATOM     35  N   UNL     1      28.161  36.628  12.323  1.00  0.00    -0.132 NA
ATOM     36  N   UNL     1      26.177  35.941  11.712  1.00  0.00    -0.248 N 
ATOM     37  N   UNL     1      27.478  35.692  11.659  1.00  0.00    -0.067 NA
BRANCH  36  38
ATOM     38  C   UNL     1      25.084  35.195  11.138  1.00  0.00     0.177 C 
BRANCH  38  39
ATOM     39  C   UNL     1      24.397  35.988  10.059  1.00  0.00    -0.049 C 
ATOM     40  C   UNL     1      25.084  36.532   9.059  1.00  0.00    -0.025 C 
ATOM     41  C   UNL     1      22.935  36.189  10.072  1.00  0.00     0.023 C 
ATOM     42  C   UNL     1      24.334  37.089   7.900  1.00  0.00     0.031 C 
ATOM     43  C   UNL     1      22.432  35.737   8.693  1.00  0.00     0.013 C 
ATOM     44  C   UNL     1      22.622  37.603   9.625  1.00  0.00    -0.026 C 
ATOM     45  C   UNL     1      22.865  37.104   8.193  1.00  0.00    -0.000 C 
ATOM     46  C   UNL     1      21.179  37.991   9.792  1.00  0.00     0.012 C 
ATOM     47  C   UNL     1      23.566  38.660  10.089  1.00  0.00     0.012 C 
ENDBRANCH  38  39
ENDBRANCH  36  38
ENDBRANCH  32  33
ENDBRANCH  31  32
ENDBRANCH   2  31
TORSDOF 16
BEGIN_RES LYS A 131
REMARK  4 active torsions:
REMARK  status: ('A' for Active; 'I' for Inactive)
REMARK    1  A    between atoms: CA   and  CB  
REMARK    2  A    between atoms: CB   and  CG  
REMARK    3  A    between atoms: CG   and  CD  
REMARK    4  A    between atoms: CD   and  CE  
ROOT
ATOM      1  CA  LYS A 131      29.867  25.555  16.977  1.00 20.52     0.186 C 
ENDROOT
BRANCH   1   2
ATOM      2  CB  LYS A 131      28.345  25.722  17.026  1.00 20.94     0.034 C 
BRANCH   2   3
ATOM      3  CG  LYS A 131      27.601  24.403  16.882  1.00 22.96     0.005 C 
BRANCH   3   4
ATOM      4  CD  LYS A 131      26.667  24.151  18.033  1.00 24.33     0.041 C 
BRANCH   4   5
ATOM      5  CE  LYS A 131      25.540  23.228  17.580  1.00 26.91     0.338 C 
ATOM      6  NZ  LYS A 131      24.472  24.004  16.908  1.00 27.40     0.618 N 
ENDBRANCH   4   5
ENDBRANCH   3   4
ENDBRANCH   2   3
ENDBRANCH   1   2
END_RES LYS A 131
BEGIN_RES LYS A 135
REMARK  4 active torsions:
REMARK  status: ('A' for Active; 'I' for Inactive)
REMARK    5  A    between atoms: CA   and  CB  
REMARK    6  A    between atoms: CB   and  CG  
REMARK    7  A    between atoms: CG   and  CD  
REMARK    8  A    between atoms: CD   and  CE  
ROOT
ATOM      7  CA  LYS A 135      33.193  34.663   9.290  1.00 25.02     0.186 C 
ENDROOT
BRANCH   7   8
ATOM      8  CB  LYS A 135      32.060  35.360  10.034  1.00 26.63     0.034 C 
BRANCH   8   9
ATOM      9  CG  LYS A 135      32.536  36.370  11.046  1.00 29.45     0.005 C 
BRANCH   9  10
ATOM     10  CD  LYS A 135      32.723  35.718  12.408  1.00 32.00     0.041 C 
BRANCH  10  11
ATOM     11  CE  LYS A 135      31.488  35.915  13.266  1.00 34.25     0.338 C 
ATOM     12  NZ  LYS A 135      30.867  34.608  13.620  1.00 35.99     0.618 N 
ENDBRANCH  10  11
ENDBRANCH   9  10
ENDBRANCH   8   9
ENDBRANCH   7   8
END_RES LYS A 135
