REMARK VINA RESULT:    -4.990      4.354      8.210
REMARK INTER + INTRA:         -14.431
REMARK INTER:                  -9.014
REMARK INTRA:                  -5.417
REMARK UNBOUND:                -5.212
REMARK SMILES CC(=O)N[C@@H]1[C@@H](O)C[C@](O)(C(=O)O)O[C@H]1C(O)[C@H](O)CNC(=O)OCc1cn(Cc2cccc(C#N)c2)nn1
REMARK SMILES IDX 21 1 22 2 23 3 20 5 18 6 16 7 15 8 9 9 8 10 14 11 6 12 5 13
REMARK SMILES IDX 10 14 11 16 12 17 13 18 7 20 4 22 2 23 1 25 3 26 17 27 19 29
REMARK SMILES IDX 24 31 25 32 26 33 27 34 39 35 28 36 38 37 29 38 30 39 31 40
REMARK SMILES IDX 37 41 32 42 34 43 33 44 35 45 36 46
REMARK H PARENT 21 4 10 15 13 19 7 21 4 24 17 28 19 30
REMARK Flexibility Score: inf
ROOT
ATOM      1  N   UNL     1      27.121  28.373  18.278  1.00  0.00    -0.319 N 
ATOM      2  C   UNL     1      27.208  29.641  17.693  1.00  0.00     0.407 C 
ATOM      3  O   UNL     1      26.865  30.662  18.324  1.00  0.00    -0.225 OA
ATOM      4  H   UNL     1      27.437  27.552  17.680  1.00  0.00     0.167 HD
ENDROOT
BRANCH   1   5
ATOM      5  C   UNL     1      26.639  28.136  19.613  1.00  0.00     0.154 C 
BRANCH   5   6
ATOM      6  C   UNL     1      27.537  27.233  20.411  1.00  0.00     0.165 C 
BRANCH   6   7
ATOM      7  C   UNL     1      27.999  27.766  21.711  1.00  0.00     0.176 C 
BRANCH   7   8
ATOM      8  C   UNL     1      29.216  28.702  21.636  1.00  0.00     0.178 C 
ATOM      9  C   UNL     1      30.432  29.933  20.155  1.00  0.00     0.269 C 
ATOM     10  C   UNL     1      31.663  29.083  20.397  1.00  0.00     0.112 C 
ATOM     11  O   UNL     1      29.335  29.143  20.379  1.00  0.00    -0.332 OA
ATOM     12  C   UNL     1      31.722  28.604  21.822  1.00  0.00     0.145 C 
ATOM     13  C   UNL     1      30.392  28.132  22.334  1.00  0.00     0.142 C 
BRANCH   9  14
ATOM     14  O   UNL     1      30.450  30.328  18.793  1.00  0.00    -0.357 OA
ATOM     15  H   UNL     1      30.189  31.293  18.817  1.00  0.00     0.214 HD
ENDBRANCH   9  14
BRANCH   9  16
ATOM     16  C   UNL     1      30.525  31.165  20.943  1.00  0.00     0.364 C 
ATOM     17  O   UNL     1      31.624  31.701  21.215  1.00  0.00    -0.246 OA
BRANCH  16  18
ATOM     18  O   UNL     1      29.399  31.842  21.455  1.00  0.00    -0.477 OA
ATOM     19  H   UNL     1      28.635  31.972  20.787  1.00  0.00     0.296 HD
ENDBRANCH  16  18
ENDBRANCH   9  16
BRANCH  12  20
ATOM     20  O   UNL     1      32.657  27.570  21.881  1.00  0.00    -0.391 OA
ATOM     21  H   UNL     1      32.761  27.109  21.023  1.00  0.00     0.211 HD
ENDBRANCH  12  20
BRANCH  13  22
ATOM     22  N   UNL     1      30.325  28.385  23.760  1.00  0.00    -0.348 N 
ATOM     23  C   UNL     1      30.677  27.387  24.740  1.00  0.00     0.217 C 
ATOM     24  H   UNL     1      30.017  29.297  24.184  1.00  0.00     0.163 HD
ATOM     25  C   UNL     1      30.589  27.694  26.203  1.00  0.00     0.114 C 
ATOM     26  O   UNL     1      31.059  26.258  24.373  1.00  0.00    -0.275 OA
ENDBRANCH  13  22
ENDBRANCH   7   8
BRANCH   7  27
ATOM     27  O   UNL     1      28.328  26.769  22.631  1.00  0.00    -0.388 OA
ATOM     28  H   UNL     1      29.122  26.994  23.175  1.00  0.00     0.211 HD
ENDBRANCH   7  27
ENDBRANCH   6   7
BRANCH   6  29
ATOM     29  O   UNL     1      28.539  26.765  19.562  1.00  0.00    -0.388 OA
ATOM     30  H   UNL     1      29.334  26.563  20.114  1.00  0.00     0.211 HD
ENDBRANCH   6  29
ENDBRANCH   5   6
ENDBRANCH   1   5
BRANCH   2  31
ATOM     31  O   UNL     1      27.672  29.841  16.393  1.00  0.00    -0.443 OA
BRANCH  31  32
ATOM     32  C   UNL     1      27.628  31.138  15.856  1.00  0.00     0.294 C 
BRANCH  32  33
ATOM     33  C   UNL     1      28.960  31.760  15.996  1.00  0.00     0.120 A 
ATOM     34  C   UNL     1      29.266  33.093  16.163  1.00  0.00     0.138 A 
ATOM     35  N   UNL     1      30.138  31.110  15.986  1.00  0.00    -0.132 NA
ATOM     36  N   UNL     1      30.603  33.213  16.250  1.00  0.00    -0.248 N 
ATOM     37  N   UNL     1      31.093  31.984  16.137  1.00  0.00    -0.067 NA
BRANCH  36  38
ATOM     38  C   UNL     1      31.428  34.377  16.436  1.00  0.00     0.181 C 
BRANCH  38  39
ATOM     39  C   UNL     1      31.817  34.968  15.113  1.00  0.00    -0.025 A 
ATOM     40  C   UNL     1      33.014  34.616  14.531  1.00  0.00     0.006 A 
ATOM     41  C   UNL     1      31.007  35.853  14.453  1.00  0.00     0.025 A 
ATOM     42  C   UNL     1      33.380  35.158  13.293  1.00  0.00     0.002 A 
ATOM     43  C   UNL     1      31.335  36.407  13.233  1.00  0.00     0.052 A 
ATOM     44  C   UNL     1      32.531  36.054  12.651  1.00  0.00     0.019 A 
BRANCH  43  45
ATOM     45  C   UNL     1      30.504  37.334  12.523  1.00  0.00     0.099 C 
ATOM     46  N   UNL     1      29.833  38.103  11.957  1.00  0.00    -0.192 NA
ENDBRANCH  43  45
ENDBRANCH  38  39
ENDBRANCH  36  38
ENDBRANCH  32  33
ENDBRANCH  31  32
ENDBRANCH   2  31
TORSDOF 17
BEGIN_RES LYS A 131
REMARK  4 active torsions:
REMARK  status: ('A' for Active; 'I' for Inactive)
REMARK    1  A    between atoms: CA   and  CB  
REMARK    2  A    between atoms: CB   and  CG  
REMARK    3  A    between atoms: CG   and  CD  
REMARK    4  A    between atoms: CD   and  CE  
ROOT
ATOM      1  CA  LYS A 131      29.867  25.555  16.977  1.00 20.52     0.186 C 
ENDROOT
BRANCH   1   2
ATOM      2  CB  LYS A 131      28.345  25.722  17.026  1.00 20.94     0.034 C 
BRANCH   2   3
ATOM      3  CG  LYS A 131      27.601  24.402  16.891  1.00 22.96     0.005 C 
BRANCH   3   4
ATOM      4  CD  LYS A 131      26.494  24.270  17.900  1.00 24.33     0.041 C 
BRANCH   4   5
ATOM      5  CE  LYS A 131      25.654  23.039  17.575  1.00 26.91     0.338 C 
ATOM      6  NZ  LYS A 131      24.321  23.440  17.066  1.00 27.40     0.618 N 
ENDBRANCH   4   5
ENDBRANCH   3   4
ENDBRANCH   2   3
ENDBRANCH   1   2
END_RES LYS A 131
BEGIN_RES LYS A 135
REMARK  4 active torsions:
REMARK  status: ('A' for Active; 'I' for Inactive)
REMARK    5  A    between atoms: CA   and  CB  
REMARK    6  A    between atoms: CB   and  CG  
REMARK    7  A    between atoms: CG   and  CD  
REMARK    8  A    between atoms: CD   and  CE  
ROOT
ATOM      7  CA  LYS A 135      33.193  34.663   9.290  1.00 25.02     0.186 C 
ENDROOT
BRANCH   7   8
ATOM      8  CB  LYS A 135      32.060  35.360  10.034  1.00 26.63     0.034 C 
BRANCH   8   9
ATOM      9  CG  LYS A 135      30.821  35.556   9.199  1.00 29.45     0.005 C 
BRANCH   9  10
ATOM     10  CD  LYS A 135      30.057  34.248   9.057  1.00 32.00     0.041 C 
BRANCH  10  11
ATOM     11  CE  LYS A 135      28.724  34.482   8.373  1.00 34.25     0.338 C 
ATOM     12  NZ  LYS A 135      28.887  35.320   7.153  1.00 35.99     0.618 N 
ENDBRANCH  10  11
ENDBRANCH   9  10
ENDBRANCH   8   9
ENDBRANCH   7   8
END_RES LYS A 135
