REMARK VINA RESULT:    -4.138      4.578      7.489
REMARK INTER + INTRA:         -14.246
REMARK INTER:                  -8.371
REMARK INTRA:                  -5.875
REMARK UNBOUND:                -5.875
REMARK SMILES CC[N+](C)(CC)CCCn1cc(COC(=O)NC[C@@H](O)C(O)[C@@H]2O[C@@](O)(C(=O)O)C[C@H](O)[C@H]2NC(C)=O)nn1
REMARK SMILES IDX 14 1 15 2 17 3 16 5 18 6 19 7 21 8 23 9 25 10 30 11 24 12
REMARK SMILES IDX 31 13 33 14 26 15 27 17 28 18 29 19 32 21 34 23 35 24 36 26
REMARK SMILES IDX 37 27 22 28 20 30 13 32 12 33 11 34 38 35 10 36 39 37 9 38
REMARK SMILES IDX 8 39 7 40 3 41 4 42 2 43 1 44 5 45 6 46
REMARK H PARENT 17 4 26 16 29 20 32 22 34 25 22 29 20 31
REMARK Flexibility Score: inf
ROOT
ATOM      1  O   UNL     1      27.049  30.604  17.546  1.00  0.00    -0.443 OA
ENDROOT
BRANCH   1   2
ATOM      2  C   UNL     1      28.390  30.906  17.661  1.00  0.00     0.407 C 
ATOM      3  N   UNL     1      29.205  31.205  16.522  1.00  0.00    -0.319 N 
ATOM      4  H   UNL     1      28.729  31.191  15.613  1.00  0.00     0.167 HD
ATOM      5  O   UNL     1      28.910  30.916  18.801  1.00  0.00    -0.225 OA
BRANCH   3   6
ATOM      6  C   UNL     1      30.574  31.505  16.721  1.00  0.00     0.154 C 
BRANCH   6   7
ATOM      7  C   UNL     1      31.286  32.181  15.596  1.00  0.00     0.165 C 
BRANCH   7   8
ATOM      8  C   UNL     1      31.751  33.578  15.868  1.00  0.00     0.176 C 
BRANCH   8   9
ATOM      9  C   UNL     1      31.168  34.627  14.970  1.00  0.00     0.178 C 
ATOM     10  C   UNL     1      31.758  36.365  13.585  1.00  0.00     0.269 C 
ATOM     11  C   UNL     1      30.296  36.194  13.217  1.00  0.00     0.112 C 
ATOM     12  O   UNL     1      32.186  35.397  14.462  1.00  0.00    -0.332 OA
ATOM     13  C   UNL     1      29.432  36.260  14.438  1.00  0.00     0.145 C 
ATOM     14  C   UNL     1      30.108  35.482  15.570  1.00  0.00     0.142 C 
BRANCH  10  15
ATOM     15  O   UNL     1      31.879  37.617  14.215  1.00  0.00    -0.357 OA
ATOM     16  H   UNL     1      32.311  37.436  15.091  1.00  0.00     0.214 HD
ENDBRANCH  10  15
BRANCH  10  17
ATOM     17  C   UNL     1      32.582  36.372  12.366  1.00  0.00     0.364 C 
ATOM     18  O   UNL     1      32.416  37.266  11.490  1.00  0.00    -0.246 OA
BRANCH  17  19
ATOM     19  O   UNL     1      33.552  35.417  12.142  1.00  0.00    -0.477 OA
ATOM     20  H   UNL     1      34.414  35.420  12.653  1.00  0.00     0.296 HD
ENDBRANCH  17  19
ENDBRANCH  10  17
BRANCH  13  21
ATOM     21  O   UNL     1      29.269  37.604  14.800  1.00  0.00    -0.391 OA
ATOM     22  H   UNL     1      30.131  37.971  15.094  1.00  0.00     0.211 HD
ENDBRANCH  13  21
BRANCH  14  23
ATOM     23  N   UNL     1      29.026  34.682  16.152  1.00  0.00    -0.348 N 
ATOM     24  C   UNL     1      28.196  35.223  17.162  1.00  0.00     0.217 C 
ATOM     25  H   UNL     1      28.878  33.705  15.809  1.00  0.00     0.163 HD
ATOM     26  C   UNL     1      27.097  34.392  17.749  1.00  0.00     0.114 C 
ATOM     27  O   UNL     1      28.329  36.403  17.612  1.00  0.00    -0.275 OA
ENDBRANCH  14  23
ENDBRANCH   8   9
BRANCH   8  28
ATOM     28  O   UNL     1      31.494  33.887  17.212  1.00  0.00    -0.388 OA
ATOM     29  H   UNL     1      32.349  33.762  17.710  1.00  0.00     0.211 HD
ENDBRANCH   8  28
ENDBRANCH   7   8
BRANCH   7  30
ATOM     30  O   UNL     1      30.400  32.175  14.497  1.00  0.00    -0.388 OA
ATOM     31  H   UNL     1      30.432  31.335  13.996  1.00  0.00     0.211 HD
ENDBRANCH   7  30
ENDBRANCH   6   7
ENDBRANCH   3   6
ENDBRANCH   1   2
BRANCH   1  32
ATOM     32  C   UNL     1      26.631  29.707  16.526  1.00  0.00     0.294 C 
BRANCH  32  33
ATOM     33  C   UNL     1      25.715  30.399  15.590  1.00  0.00     0.120 A 
ATOM     34  C   UNL     1      25.704  31.712  15.173  1.00  0.00     0.138 A 
ATOM     35  N   UNL     1      24.672  29.831  14.950  1.00  0.00    -0.132 NA
ATOM     36  N   UNL     1      24.687  31.914  14.314  1.00  0.00    -0.252 N 
ATOM     37  N   UNL     1      24.086  30.748  14.206  1.00  0.00    -0.067 NA
BRANCH  36  38
ATOM     38  C   UNL     1      24.296  33.110  13.641  1.00  0.00     0.152 C 
BRANCH  38  39
ATOM     39  C   UNL     1      25.415  34.031  13.337  1.00  0.00     0.085 C 
BRANCH  39  40
ATOM     40  C   UNL     1      25.672  34.393  11.934  1.00  0.00     0.265 C 
BRANCH  40  41
ATOM     41  N   UNL     1      25.157  35.580  11.386  1.00  0.00    -0.326 N 
ATOM     42  C   UNL     1      24.729  36.595  12.310  1.00  0.00     0.334 C 
BRANCH  41  43
ATOM     43  C   UNL     1      26.276  36.201  10.649  1.00  0.00     0.260 C 
ATOM     44  C   UNL     1      27.168  37.038  11.481  1.00  0.00     0.071 C 
ENDBRANCH  41  43
BRANCH  41  45
ATOM     45  C   UNL     1      24.112  35.376  10.423  1.00  0.00     0.260 C 
ATOM     46  C   UNL     1      24.324  36.039   9.110  1.00  0.00     0.071 C 
ENDBRANCH  41  45
ENDBRANCH  40  41
ENDBRANCH  39  40
ENDBRANCH  38  39
ENDBRANCH  36  38
ENDBRANCH  32  33
ENDBRANCH   1  32
TORSDOF 20
BEGIN_RES LYS A 131
REMARK  4 active torsions:
REMARK  status: ('A' for Active; 'I' for Inactive)
REMARK    1  A    between atoms: CA   and  CB  
REMARK    2  A    between atoms: CB   and  CG  
REMARK    3  A    between atoms: CG   and  CD  
REMARK    4  A    between atoms: CD   and  CE  
ROOT
ATOM      1  CA  LYS A 131      29.867  25.555  16.977  1.00 20.52     0.186 C 
ENDROOT
BRANCH   1   2
ATOM      2  CB  LYS A 131      28.345  25.722  17.026  1.00 20.94     0.034 C 
BRANCH   2   3
ATOM      3  CG  LYS A 131      27.601  24.402  16.894  1.00 22.96     0.005 C 
BRANCH   3   4
ATOM      4  CD  LYS A 131      26.430  24.315  17.832  1.00 24.33     0.041 C 
BRANCH   4   5
ATOM      5  CE  LYS A 131      26.024  25.719  18.271  1.00 26.91     0.338 C 
ATOM      6  NZ  LYS A 131      25.902  25.787  19.746  1.00 27.40     0.618 N 
ENDBRANCH   4   5
ENDBRANCH   3   4
ENDBRANCH   2   3
ENDBRANCH   1   2
END_RES LYS A 131
BEGIN_RES LYS A 135
REMARK  4 active torsions:
REMARK  status: ('A' for Active; 'I' for Inactive)
REMARK    5  A    between atoms: CA   and  CB  
REMARK    6  A    between atoms: CB   and  CG  
REMARK    7  A    between atoms: CG   and  CD  
REMARK    8  A    between atoms: CD   and  CE  
ROOT
ATOM      7  CA  LYS A 135      33.193  34.663   9.290  1.00 25.02     0.186 C 
ENDROOT
BRANCH   7   8
ATOM      8  CB  LYS A 135      32.060  35.360  10.034  1.00 26.63     0.034 C 
BRANCH   8   9
ATOM      9  CG  LYS A 135      30.702  34.768   9.755  1.00 29.45     0.005 C 
BRANCH   9  10
ATOM     10  CD  LYS A 135      30.574  34.389   8.288  1.00 32.00     0.041 C 
BRANCH  10  11
ATOM     11  CE  LYS A 135      29.460  35.180   7.629  1.00 34.25     0.338 C 
ATOM     12  NZ  LYS A 135      28.123  34.684   8.059  1.00 35.99     0.618 N 
ENDBRANCH  10  11
ENDBRANCH   9  10
ENDBRANCH   8   9
ENDBRANCH   7   8
END_RES LYS A 135
