REMARK VINA RESULT:    -4.021      2.151      6.815
REMARK INTER + INTRA:         -14.622
REMARK INTER:                  -8.897
REMARK INTRA:                  -5.725
REMARK UNBOUND:                -7.311
REMARK SMILES CC(=O)N[C@@H]1[C@@H](O)C[C@](O)(C(=O)O)O[C@H]1C(O)[C@H](O)CNC(=O)OCc1cn(-c2ccc(O)c([N+](=O)[O-])c2)nn1
REMARK SMILES IDX 21 1 22 2 23 3 20 5 18 6 16 7 15 8 9 9 8 10 14 11 6 12 5 13
REMARK SMILES IDX 10 14 11 16 12 17 13 18 7 20 4 22 2 23 1 25 3 26 17 27 19 29
REMARK SMILES IDX 24 31 25 32 26 33 27 34 40 35 28 36 39 37 29 38 30 39 38 40
REMARK SMILES IDX 31 41 34 42 32 43 35 44 36 45 37 46 33 47
REMARK H PARENT 21 4 10 15 13 19 7 21 4 24 17 28 19 30 33 48
REMARK Flexibility Score: inf
ROOT
ATOM      1  N   UNL     1      25.703  34.477  14.862  1.00  0.00    -0.319 N 
ATOM      2  C   UNL     1      25.247  33.710  13.755  1.00  0.00     0.407 C 
ATOM      3  O   UNL     1      25.715  33.883  12.581  1.00  0.00    -0.225 OA
ATOM      4  H   UNL     1      25.304  34.301  15.797  1.00  0.00     0.167 HD
ENDROOT
BRANCH   1   5
ATOM      5  C   UNL     1      26.715  35.470  14.654  1.00  0.00     0.154 C 
BRANCH   5   6
ATOM      6  C   UNL     1      28.077  35.149  15.157  1.00  0.00     0.165 C 
BRANCH   6   7
ATOM      7  C   UNL     1      28.969  34.413  14.191  1.00  0.00     0.176 C 
BRANCH   7   8
ATOM      8  C   UNL     1      30.388  34.891  14.167  1.00  0.00     0.178 C 
ATOM      9  C   UNL     1      31.993  35.974  12.933  1.00  0.00     0.269 C 
ATOM     10  C   UNL     1      32.621  36.029  14.307  1.00  0.00     0.112 C 
ATOM     11  O   UNL     1      30.751  35.365  12.917  1.00  0.00    -0.332 OA
ATOM     12  C   UNL     1      32.730  34.646  14.856  1.00  0.00     0.145 C 
ATOM     13  C   UNL     1      31.354  33.970  14.813  1.00  0.00     0.142 C 
BRANCH   9  14
ATOM     14  O   UNL     1      32.860  35.256  12.120  1.00  0.00    -0.357 OA
ATOM     15  H   UNL     1      32.661  34.292  12.266  1.00  0.00     0.214 HD
ENDBRANCH   9  14
BRANCH   9  16
ATOM     16  C   UNL     1      31.920  37.366  12.425  1.00  0.00     0.364 C 
ATOM     17  O   UNL     1      32.215  37.643  11.233  1.00  0.00    -0.246 OA
BRANCH  16  18
ATOM     18  O   UNL     1      31.523  38.395  13.258  1.00  0.00    -0.477 OA
ATOM     19  H   UNL     1      32.003  38.645  14.101  1.00  0.00     0.296 HD
ENDBRANCH  16  18
ENDBRANCH   9  16
BRANCH  12  20
ATOM     20  O   UNL     1      33.660  33.956  14.057  1.00  0.00    -0.391 OA
ATOM     21  H   UNL     1      33.116  33.445  13.385  1.00  0.00     0.211 HD
ENDBRANCH  12  20
BRANCH  13  22
ATOM     22  N   UNL     1      30.917  33.805  16.209  1.00  0.00    -0.348 N 
ATOM     23  C   UNL     1      30.757  32.542  16.815  1.00  0.00     0.217 C 
ATOM     24  H   UNL     1      30.716  34.665  16.771  1.00  0.00     0.163 HD
ATOM     25  C   UNL     1      30.312  32.419  18.224  1.00  0.00     0.114 C 
ATOM     26  O   UNL     1      30.990  31.516  16.164  1.00  0.00    -0.275 OA
ENDBRANCH  13  22
ENDBRANCH   7   8
BRANCH   7  27
ATOM     27  O   UNL     1      28.980  33.044  14.455  1.00  0.00    -0.388 OA
ATOM     28  H   UNL     1      28.394  32.781  15.183  1.00  0.00     0.211 HD
ENDBRANCH   7  27
ENDBRANCH   6   7
BRANCH   6  29
ATOM     29  O   UNL     1      27.904  34.382  16.319  1.00  0.00    -0.388 OA
ATOM     30  H   UNL     1      27.706  35.018  17.064  1.00  0.00     0.211 HD
ENDBRANCH   6  29
ENDBRANCH   5   6
ENDBRANCH   1   5
BRANCH   2  31
ATOM     31  O   UNL     1      24.276  32.764  13.979  1.00  0.00    -0.443 OA
BRANCH  31  32
ATOM     32  C   UNL     1      24.624  31.415  14.054  1.00  0.00     0.294 C 
BRANCH  32  33
ATOM     33  C   UNL     1      25.591  31.113  15.143  1.00  0.00     0.121 A 
ATOM     34  C   UNL     1      25.541  30.085  16.073  1.00  0.00     0.144 A 
ATOM     35  N   UNL     1      26.717  31.785  15.446  1.00  0.00    -0.131 NA
ATOM     36  N   UNL     1      26.602  30.153  16.892  1.00  0.00    -0.220 N 
ATOM     37  N   UNL     1      27.305  31.198  16.490  1.00  0.00    -0.062 NA
BRANCH  36  38
ATOM     38  C   UNL     1      26.949  29.306  17.981  1.00  0.00     0.073 A 
ATOM     39  C   UNL     1      26.144  28.234  18.307  1.00  0.00     0.033 A 
ATOM     40  C   UNL     1      28.077  29.502  18.750  1.00  0.00     0.118 A 
ATOM     41  C   UNL     1      26.462  27.396  19.364  1.00  0.00     0.056 A 
ATOM     42  C   UNL     1      28.435  28.692  19.816  1.00  0.00     0.312 A 
ATOM     43  C   UNL     1      27.595  27.622  20.109  1.00  0.00     0.194 A 
BRANCH  42  44
ATOM     44  N   UNL     1      29.591  28.906  20.593  1.00  0.00     0.066 N 
ATOM     45  O   UNL     1      29.769  30.001  21.128  1.00  0.00    -0.258 OA
ATOM     46  O   UNL     1      30.502  27.909  20.747  1.00  0.00    -0.258 OA
ENDBRANCH  42  44
BRANCH  43  47
ATOM     47  O   UNL     1      27.957  26.809  21.181  1.00  0.00    -0.502 OA
ATOM     48  H   UNL     1      28.036  25.796  21.013  1.00  0.00     0.293 HD
ENDBRANCH  43  47
ENDBRANCH  36  38
ENDBRANCH  32  33
ENDBRANCH  31  32
ENDBRANCH   2  31
TORSDOF 17
BEGIN_RES LYS A 131
REMARK  4 active torsions:
REMARK  status: ('A' for Active; 'I' for Inactive)
REMARK    1  A    between atoms: CA   and  CB  
REMARK    2  A    between atoms: CB   and  CG  
REMARK    3  A    between atoms: CG   and  CD  
REMARK    4  A    between atoms: CD   and  CE  
ROOT
ATOM      1  CA  LYS A 131      29.867  25.555  16.977  1.00 20.52     0.186 C 
ENDROOT
BRANCH   1   2
ATOM      2  CB  LYS A 131      28.345  25.722  17.026  1.00 20.94     0.034 C 
BRANCH   2   3
ATOM      3  CG  LYS A 131      27.600  24.410  16.831  1.00 22.96     0.005 C 
BRANCH   3   4
ATOM      4  CD  LYS A 131      26.661  24.118  17.969  1.00 24.33     0.041 C 
BRANCH   4   5
ATOM      5  CE  LYS A 131      25.668  23.040  17.545  1.00 26.91     0.338 C 
ATOM      6  NZ  LYS A 131      24.433  23.656  17.005  1.00 27.40     0.618 N 
ENDBRANCH   4   5
ENDBRANCH   3   4
ENDBRANCH   2   3
ENDBRANCH   1   2
END_RES LYS A 131
BEGIN_RES LYS A 135
REMARK  4 active torsions:
REMARK  status: ('A' for Active; 'I' for Inactive)
REMARK    5  A    between atoms: CA   and  CB  
REMARK    6  A    between atoms: CB   and  CG  
REMARK    7  A    between atoms: CG   and  CD  
REMARK    8  A    between atoms: CD   and  CE  
ROOT
ATOM      7  CA  LYS A 135      33.193  34.663   9.290  1.00 25.02     0.186 C 
ENDROOT
BRANCH   7   8
ATOM      8  CB  LYS A 135      32.060  35.360  10.034  1.00 26.63     0.034 C 
BRANCH   8   9
ATOM      9  CG  LYS A 135      30.791  35.475   9.229  1.00 29.45     0.005 C 
BRANCH   9  10
ATOM     10  CD  LYS A 135      29.823  34.359   9.591  1.00 32.00     0.041 C 
BRANCH  10  11
ATOM     11  CE  LYS A 135      28.655  34.333   8.624  1.00 34.25     0.338 C 
ATOM     12  NZ  LYS A 135      27.436  34.926   9.240  1.00 35.99     0.618 N 
ENDBRANCH  10  11
ENDBRANCH   9  10
ENDBRANCH   8   9
ENDBRANCH   7   8
END_RES LYS A 135
