REMARK VINA RESULT:    -5.629      1.868      2.835
REMARK INTER + INTRA:         -14.139
REMARK INTER:                  -8.497
REMARK INTRA:                  -5.642
REMARK UNBOUND:                -4.396
REMARK SMILES CC(=O)N[C@@H]1[C@@H](O)C[C@](O)(C(=O)O)O[C@H]1C(O)[C@H](O)CNC(=O)OCc1cn(-c2ccccc2Br)nn1
REMARK SMILES IDX 20 1 18 2 16 3 15 4 9 5 8 6 14 7 6 8 5 9 10 10 11 12 12 13
REMARK SMILES IDX 13 14 7 16 4 18 2 19 1 21 3 22 17 23 19 25 21 27 22 28 23 30
REMARK SMILES IDX 24 31 25 32 26 33 27 34 37 35 28 36 36 37 29 38 30 39 34 40
REMARK SMILES IDX 31 41 33 42 35 43 32 44
REMARK H PARENT 10 11 13 15 7 17 4 20 17 24 19 26 21 29
REMARK Flexibility Score: inf
ROOT
ATOM      1  C   UNL     1      27.983  27.860  19.591  1.00  0.00     0.154 C 
ENDROOT
BRANCH   1   2
ATOM      2  C   UNL     1      29.062  27.854  20.643  1.00  0.00     0.165 C 
BRANCH   2   3
ATOM      3  C   UNL     1      29.696  29.210  20.662  1.00  0.00     0.176 C 
BRANCH   3   4
ATOM      4  C   UNL     1      30.064  29.743  22.027  1.00  0.00     0.178 C 
ATOM      5  C   UNL     1      32.244  29.062  22.555  1.00  0.00     0.269 C 
ATOM      6  C   UNL     1      31.936  29.138  24.051  1.00  0.00     0.112 C 
ATOM      7  O   UNL     1      31.432  29.976  21.971  1.00  0.00    -0.332 OA
ATOM      8  C   UNL     1      30.568  28.539  24.208  1.00  0.00     0.145 C 
ATOM      9  C   UNL     1      29.565  28.979  23.175  1.00  0.00     0.142 C 
BRANCH   5  10
ATOM     10  O   UNL     1      32.087  27.752  22.181  1.00  0.00    -0.357 OA
ATOM     11  H   UNL     1      31.415  27.345  22.783  1.00  0.00     0.214 HD
ENDBRANCH   5  10
BRANCH   5  12
ATOM     12  C   UNL     1      33.665  29.448  22.334  1.00  0.00     0.364 C 
ATOM     13  O   UNL     1      33.919  30.554  21.796  1.00  0.00    -0.246 OA
BRANCH  12  14
ATOM     14  O   UNL     1      34.712  28.613  22.708  1.00  0.00    -0.477 OA
ATOM     15  H   UNL     1      35.667  28.940  22.832  1.00  0.00     0.296 HD
ENDBRANCH  12  14
ENDBRANCH   5  12
BRANCH   8  16
ATOM     16  O   UNL     1      30.733  27.155  24.139  1.00  0.00    -0.391 OA
ATOM     17  H   UNL     1      31.602  26.914  23.774  1.00  0.00     0.211 HD
ENDBRANCH   8  16
BRANCH   9  18
ATOM     18  N   UNL     1      28.531  29.788  23.855  1.00  0.00    -0.348 N 
ATOM     19  C   UNL     1      27.185  29.363  23.912  1.00  0.00     0.217 C 
ATOM     20  H   UNL     1      28.790  30.708  24.315  1.00  0.00     0.163 HD
ATOM     21  C   UNL     1      26.127  30.185  24.592  1.00  0.00     0.114 C 
ATOM     22  O   UNL     1      26.886  28.269  23.372  1.00  0.00    -0.275 OA
ENDBRANCH   9  18
ENDBRANCH   3   4
BRANCH   3  23
ATOM     23  O   UNL     1      30.684  29.298  19.715  1.00  0.00    -0.388 OA
ATOM     24  H   UNL     1      30.702  28.507  19.097  1.00  0.00     0.211 HD
ENDBRANCH   3  23
ENDBRANCH   2   3
BRANCH   2  25
ATOM     25  O   UNL     1      29.988  26.882  20.368  1.00  0.00    -0.388 OA
ATOM     26  H   UNL     1      30.728  27.206  19.784  1.00  0.00     0.211 HD
ENDBRANCH   2  25
ENDBRANCH   1   2
BRANCH   1  27
ATOM     27  N   UNL     1      28.086  28.846  18.570  1.00  0.00    -0.319 N 
ATOM     28  C   UNL     1      27.186  28.972  17.490  1.00  0.00     0.407 C 
ATOM     29  H   UNL     1      28.890  29.559  18.590  1.00  0.00     0.167 HD
ATOM     30  O   UNL     1      26.205  28.211  17.317  1.00  0.00    -0.225 OA
BRANCH  28  31
ATOM     31  O   UNL     1      27.397  30.001  16.560  1.00  0.00    -0.443 OA
BRANCH  31  32
ATOM     32  C   UNL     1      28.574  29.944  15.787  1.00  0.00     0.294 C 
BRANCH  32  33
ATOM     33  C   UNL     1      29.477  31.027  16.250  1.00  0.00     0.121 A 
ATOM     34  C   UNL     1      29.890  32.107  15.459  1.00  0.00     0.144 A 
ATOM     35  N   UNL     1      30.082  31.239  17.425  1.00  0.00    -0.131 NA
ATOM     36  N   UNL     1      30.706  32.906  16.167  1.00  0.00    -0.219 N 
ATOM     37  N   UNL     1      30.806  32.352  17.363  1.00  0.00    -0.062 NA
BRANCH  36  38
ATOM     38  C   UNL     1      31.326  34.105  15.701  1.00  0.00     0.081 A 
ATOM     39  C   UNL     1      32.531  34.085  15.035  1.00  0.00     0.029 A 
ATOM     40  C   UNL     1      30.737  35.335  15.902  1.00  0.00     0.043 A 
ATOM     41  C   UNL     1      33.124  35.267  14.586  1.00  0.00     0.002 A 
ATOM     42  C   UNL     1      31.322  36.510  15.457  1.00  0.00     0.018 A 
ATOM     43  Br  UNL     1      29.057  35.373  16.830  1.00  0.00    -0.048 Br
ATOM     44  C   UNL     1      32.528  36.494  14.790  1.00  0.00     0.001 A 
ENDBRANCH  36  38
ENDBRANCH  32  33
ENDBRANCH  31  32
ENDBRANCH  28  31
ENDBRANCH   1  27
TORSDOF 15
BEGIN_RES LYS A 131
REMARK  4 active torsions:
REMARK  status: ('A' for Active; 'I' for Inactive)
REMARK    1  A    between atoms: CA   and  CB  
REMARK    2  A    between atoms: CB   and  CG  
REMARK    3  A    between atoms: CG   and  CD  
REMARK    4  A    between atoms: CD   and  CE  
ROOT
ATOM      1  CA  LYS A 131      29.867  25.555  16.977  1.00 20.52     0.186 C 
ENDROOT
BRANCH   1   2
ATOM      2  CB  LYS A 131      28.345  25.722  17.026  1.00 20.94     0.034 C 
BRANCH   2   3
ATOM      3  CG  LYS A 131      27.601  24.402  16.892  1.00 22.96     0.005 C 
BRANCH   3   4
ATOM      4  CD  LYS A 131      26.154  24.525  17.282  1.00 24.33     0.041 C 
BRANCH   4   5
ATOM      5  CE  LYS A 131      26.052  24.781  18.782  1.00 26.91     0.338 C 
ATOM      6  NZ  LYS A 131      25.536  23.580  19.480  1.00 27.40     0.618 N 
ENDBRANCH   4   5
ENDBRANCH   3   4
ENDBRANCH   2   3
ENDBRANCH   1   2
END_RES LYS A 131
BEGIN_RES LYS A 135
REMARK  4 active torsions:
REMARK  status: ('A' for Active; 'I' for Inactive)
REMARK    5  A    between atoms: CA   and  CB  
REMARK    6  A    between atoms: CB   and  CG  
REMARK    7  A    between atoms: CG   and  CD  
REMARK    8  A    between atoms: CD   and  CE  
ROOT
ATOM      7  CA  LYS A 135      33.193  34.663   9.290  1.00 25.02     0.186 C 
ENDROOT
BRANCH   7   8
ATOM      8  CB  LYS A 135      32.060  35.360  10.034  1.00 26.63     0.034 C 
BRANCH   8   9
ATOM      9  CG  LYS A 135      30.846  35.617   9.179  1.00 29.45     0.005 C 
BRANCH   9  10
ATOM     10  CD  LYS A 135      30.276  34.310   8.650  1.00 32.00     0.041 C 
BRANCH  10  11
ATOM     11  CE  LYS A 135      28.770  34.408   8.500  1.00 34.25     0.338 C 
ATOM     12  NZ  LYS A 135      28.073  33.712   9.617  1.00 35.99     0.618 N 
ENDBRANCH  10  11
ENDBRANCH   9  10
ENDBRANCH   8   9
ENDBRANCH   7   8
END_RES LYS A 135
