REMARK VINA RESULT:    -4.647      2.913      5.289
REMARK INTER + INTRA:         -14.533
REMARK INTER:                 -11.178
REMARK INTRA:                  -3.355
REMARK UNBOUND:                -6.490
REMARK SMILES CC(=O)N[C@@H]1[C@@H](O)C[C@](O)(C(=O)O)O[C@H]1C(O)[C@H](O)CNC(=O)OCc1cn(-c2ccc3[nH]ncc3c2)nn1
REMARK SMILES IDX 20 1 18 2 16 3 15 4 9 5 8 6 14 7 6 8 5 9 10 10 11 12 12 13
REMARK SMILES IDX 13 14 7 16 4 18 2 19 1 21 3 22 17 23 19 25 21 27 22 28 23 30
REMARK SMILES IDX 24 31 25 32 26 33 27 34 39 35 28 36 38 37 29 38 30 39 37 40
REMARK SMILES IDX 31 41 36 42 32 43 35 44 33 45 34 46
REMARK H PARENT 10 11 13 15 7 17 4 20 17 24 19 26 21 29 33 47
REMARK Flexibility Score: inf
ROOT
ATOM      1  C   UNL     1      30.389  34.005  14.624  1.00  0.00     0.154 C 
ENDROOT
BRANCH   1   2
ATOM      2  C   UNL     1      30.221  32.607  15.033  1.00  0.00     0.165 C 
BRANCH   2   3
ATOM      3  C   UNL     1      29.941  32.509  16.549  1.00  0.00     0.176 C 
BRANCH   3   4
ATOM      4  C   UNL     1      29.731  31.137  17.022  1.00  0.00     0.178 C 
ATOM      5  C   UNL     1      27.483  30.628  16.625  1.00  0.00     0.269 C 
ATOM      6  C   UNL     1      27.195  31.331  17.920  1.00  0.00     0.112 C 
ATOM      7  O   UNL     1      28.801  30.364  16.392  1.00  0.00    -0.332 OA
ATOM      8  C   UNL     1      28.171  31.027  19.002  1.00  0.00     0.145 C 
ATOM      9  C   UNL     1      29.595  31.072  18.548  1.00  0.00     0.142 C 
BRANCH   5  10
ATOM     10  O   UNL     1      26.958  31.374  15.570  1.00  0.00    -0.357 OA
ATOM     11  H   UNL     1      26.859  30.838  14.746  1.00  0.00     0.214 HD
ENDBRANCH   5  10
BRANCH   5  12
ATOM     12  C   UNL     1      26.766  29.333  16.668  1.00  0.00     0.364 C 
ATOM     13  O   UNL     1      25.539  29.294  16.479  1.00  0.00    -0.246 OA
BRANCH  12  14
ATOM     14  O   UNL     1      27.463  28.170  16.919  1.00  0.00    -0.477 OA
ATOM     15  H   UNL     1      28.397  27.978  16.531  1.00  0.00     0.296 HD
ENDBRANCH  12  14
ENDBRANCH   5  12
BRANCH   8  16
ATOM     16  O   UNL     1      27.941  31.929  20.058  1.00  0.00    -0.391 OA
ATOM     17  H   UNL     1      28.561  32.680  19.900  1.00  0.00     0.211 HD
ENDBRANCH   8  16
BRANCH   9  18
ATOM     18  N   UNL     1      30.405  30.028  19.118  1.00  0.00    -0.348 N 
ATOM     19  C   UNL     1      31.257  30.248  20.233  1.00  0.00     0.217 C 
ATOM     20  H   UNL     1      30.377  29.049  18.701  1.00  0.00     0.163 HD
ATOM     21  C   UNL     1      32.069  29.144  20.781  1.00  0.00     0.114 C 
ATOM     22  O   UNL     1      31.302  31.399  20.738  1.00  0.00    -0.275 OA
ENDBRANCH   9  18
ENDBRANCH   3   4
BRANCH   3  23
ATOM     23  O   UNL     1      31.220  32.914  17.075  1.00  0.00    -0.388 OA
ATOM     24  H   UNL     1      31.163  33.029  18.051  1.00  0.00     0.211 HD
ENDBRANCH   3  23
ENDBRANCH   2   3
BRANCH   2  25
ATOM     25  O   UNL     1      31.535  32.016  14.897  1.00  0.00    -0.388 OA
ATOM     26  H   UNL     1      32.211  32.748  14.848  1.00  0.00     0.211 HD
ENDBRANCH   2  25
ENDBRANCH   1   2
BRANCH   1  27
ATOM     27  N   UNL     1      29.457  34.507  13.653  1.00  0.00    -0.319 N 
ATOM     28  C   UNL     1      28.217  35.087  14.028  1.00  0.00     0.407 C 
ATOM     29  H   UNL     1      29.694  34.504  12.648  1.00  0.00     0.167 HD
ATOM     30  O   UNL     1      27.939  35.154  15.254  1.00  0.00    -0.225 OA
BRANCH  28  31
ATOM     31  O   UNL     1      27.299  35.577  13.128  1.00  0.00    -0.443 OA
BRANCH  31  32
ATOM     32  C   UNL     1      26.374  34.785  12.408  1.00  0.00     0.294 C 
BRANCH  32  33
ATOM     33  C   UNL     1      26.772  34.823  10.960  1.00  0.00     0.121 A 
ATOM     34  C   UNL     1      26.757  35.897  10.098  1.00  0.00     0.144 A 
ATOM     35  N   UNL     1      27.232  33.780  10.213  1.00  0.00    -0.131 NA
ATOM     36  N   UNL     1      27.204  35.447   8.890  1.00  0.00    -0.220 N 
ATOM     37  N   UNL     1      27.484  34.160   8.990  1.00  0.00    -0.062 NA
BRANCH  36  38
ATOM     38  C   UNL     1      27.336  36.253   7.730  1.00  0.00     0.067 A 
ATOM     39  C   UNL     1      27.973  35.740   6.616  1.00  0.00     0.030 A 
ATOM     40  C   UNL     1      26.856  37.543   7.644  1.00  0.00     0.040 A 
ATOM     41  C   UNL     1      28.131  36.476   5.461  1.00  0.00     0.030 A 
ATOM     42  C   UNL     1      27.000  38.289   6.511  1.00  0.00     0.022 A 
ATOM     43  C   UNL     1      27.643  37.770   5.388  1.00  0.00     0.065 A 
ATOM     44  C   UNL     1      26.631  39.565   6.155  1.00  0.00     0.143 A 
ATOM     45  N   UNL     1      27.644  38.708   4.429  1.00  0.00    -0.278 N 
ATOM     46  N   UNL     1      27.042  39.787   4.873  1.00  0.00    -0.183 NA
ATOM     47  H   UNL     1      28.058  38.590   3.485  1.00  0.00     0.190 HD
ENDBRANCH  36  38
ENDBRANCH  32  33
ENDBRANCH  31  32
ENDBRANCH  28  31
ENDBRANCH   1  27
TORSDOF 15
BEGIN_RES LYS A 131
REMARK  4 active torsions:
REMARK  status: ('A' for Active; 'I' for Inactive)
REMARK    1  A    between atoms: CA   and  CB  
REMARK    2  A    between atoms: CB   and  CG  
REMARK    3  A    between atoms: CG   and  CD  
REMARK    4  A    between atoms: CD   and  CE  
ROOT
ATOM      1  CA  LYS A 131      29.867  25.555  16.977  1.00 20.52     0.186 C 
ENDROOT
BRANCH   1   2
ATOM      2  CB  LYS A 131      28.345  25.722  17.026  1.00 20.94     0.034 C 
BRANCH   2   3
ATOM      3  CG  LYS A 131      27.601  24.402  16.895  1.00 22.96     0.005 C 
BRANCH   3   4
ATOM      4  CD  LYS A 131      26.420  24.323  17.822  1.00 24.33     0.041 C 
BRANCH   4   5
ATOM      5  CE  LYS A 131      26.451  25.503  18.788  1.00 26.91     0.338 C 
ATOM      6  NZ  LYS A 131      25.148  26.210  18.786  1.00 27.40     0.618 N 
ENDBRANCH   4   5
ENDBRANCH   3   4
ENDBRANCH   2   3
ENDBRANCH   1   2
END_RES LYS A 131
BEGIN_RES LYS A 135
REMARK  4 active torsions:
REMARK  status: ('A' for Active; 'I' for Inactive)
REMARK    5  A    between atoms: CA   and  CB  
REMARK    6  A    between atoms: CB   and  CG  
REMARK    7  A    between atoms: CG   and  CD  
REMARK    8  A    between atoms: CD   and  CE  
ROOT
ATOM      7  CA  LYS A 135      33.193  34.663   9.290  1.00 25.02     0.186 C 
ENDROOT
BRANCH   7   8
ATOM      8  CB  LYS A 135      32.060  35.360  10.034  1.00 26.63     0.034 C 
BRANCH   8   9
ATOM      9  CG  LYS A 135      30.821  35.556   9.198  1.00 29.45     0.005 C 
BRANCH   9  10
ATOM     10  CD  LYS A 135      30.474  37.033   9.091  1.00 32.00     0.041 C 
BRANCH  10  11
ATOM     11  CE  LYS A 135      30.216  37.620  10.466  1.00 34.25     0.338 C 
ATOM     12  NZ  LYS A 135      29.135  38.643  10.418  1.00 35.99     0.618 N 
ENDBRANCH  10  11
ENDBRANCH   9  10
ENDBRANCH   8   9
ENDBRANCH   7   8
END_RES LYS A 135
