REMARK VINA RESULT:    -5.058      2.392      6.817
REMARK INTER + INTRA:         -15.846
REMARK INTER:                  -9.133
REMARK INTRA:                  -6.713
REMARK UNBOUND:                -5.909
REMARK SMILES CC(=O)N[C@@H]1[C@@H](O)C[C@](O)(C(=O)O)O[C@H]1C(O)[C@H](O)CNC(=O)OCc1cn(CCNC(=O)NCc2ccco2)nn1
REMARK SMILES IDX 24 1 22 2 21 3 23 5 20 6 18 7 16 8 15 9 9 10 8 11 14 12 6 13
REMARK SMILES IDX 5 14 10 15 11 17 12 18 13 19 7 21 4 23 2 24 1 26 3 27 17 28
REMARK SMILES IDX 19 30 25 32 26 33 27 34 42 35 28 36 41 37 29 38 30 39 31 40
REMARK SMILES IDX 32 41 33 43 34 44 35 46 36 47 37 48 40 49 38 50 39 51
REMARK H PARENT 21 4 10 16 13 20 7 22 4 25 17 29 19 31 31 42 34 45
REMARK Flexibility Score: inf
ROOT
ATOM      1  O   UNL     1      25.558  33.558  14.859  1.00  0.00    -0.443 OA
ENDROOT
BRANCH   1   2
ATOM      2  C   UNL     1      26.730  34.112  14.356  1.00  0.00     0.407 C 
ATOM      3  N   UNL     1      27.942  34.180  15.058  1.00  0.00    -0.319 N 
ATOM      4  H   UNL     1      28.004  33.802  16.014  1.00  0.00     0.167 HD
ATOM      5  O   UNL     1      26.691  34.584  13.189  1.00  0.00    -0.225 OA
BRANCH   3   6
ATOM      6  C   UNL     1      29.120  34.788  14.431  1.00  0.00     0.154 C 
BRANCH   6   7
ATOM      7  C   UNL     1      30.237  33.779  14.416  1.00  0.00     0.165 C 
BRANCH   7   8
ATOM      8  C   UNL     1      31.420  34.218  15.234  1.00  0.00     0.176 C 
BRANCH   8   9
ATOM      9  C   UNL     1      31.381  33.693  16.640  1.00  0.00     0.178 C 
ATOM     10  C   UNL     1      29.858  32.674  18.090  1.00  0.00     0.269 C 
ATOM     11  C   UNL     1      30.607  33.165  19.285  1.00  0.00     0.112 C 
ATOM     12  O   UNL     1      30.044  33.383  16.947  1.00  0.00    -0.332 OA
ATOM     13  C   UNL     1      31.834  33.934  19.003  1.00  0.00     0.145 C 
ATOM     14  C   UNL     1      31.778  34.698  17.694  1.00  0.00     0.142 C 
BRANCH  10  15
ATOM     15  O   UNL     1      28.486  32.817  18.423  1.00  0.00    -0.357 OA
ATOM     16  H   UNL     1      28.170  32.038  18.945  1.00  0.00     0.214 HD
ENDBRANCH  10  15
BRANCH  10  17
ATOM     17  C   UNL     1      30.075  31.231  17.824  1.00  0.00     0.364 C 
ATOM     18  O   UNL     1      29.946  30.745  16.665  1.00  0.00    -0.246 OA
BRANCH  17  19
ATOM     19  O   UNL     1      30.427  30.329  18.821  1.00  0.00    -0.477 OA
ATOM     20  H   UNL     1      30.485  29.338  18.610  1.00  0.00     0.296 HD
ENDBRANCH  17  19
ENDBRANCH  10  17
BRANCH  13  21
ATOM     21  O   UNL     1      32.091  34.830  20.062  1.00  0.00    -0.391 OA
ATOM     22  H   UNL     1      32.539  35.642  19.750  1.00  0.00     0.211 HD
ENDBRANCH  13  21
BRANCH  14  23
ATOM     23  N   UNL     1      32.998  35.391  17.461  1.00  0.00    -0.348 N 
ATOM     24  C   UNL     1      32.957  36.802  17.238  1.00  0.00     0.217 C 
ATOM     25  H   UNL     1      33.940  34.945  17.447  1.00  0.00     0.163 HD
ATOM     26  C   UNL     1      34.168  37.613  16.989  1.00  0.00     0.114 C 
ATOM     27  O   UNL     1      31.845  37.406  17.252  1.00  0.00    -0.275 OA
ENDBRANCH  14  23
ENDBRANCH   8   9
BRANCH   8  28
ATOM     28  O   UNL     1      32.634  34.038  14.596  1.00  0.00    -0.388 OA
ATOM     29  H   UNL     1      32.586  33.451  13.800  1.00  0.00     0.211 HD
ENDBRANCH   8  28
ENDBRANCH   7   8
BRANCH   7  30
ATOM     30  O   UNL     1      30.703  33.751  13.073  1.00  0.00    -0.388 OA
ATOM     31  H   UNL     1      30.319  34.590  12.672  1.00  0.00     0.211 HD
ENDBRANCH   7  30
ENDBRANCH   6   7
ENDBRANCH   3   6
ENDBRANCH   1   2
BRANCH   1  32
ATOM     32  C   UNL     1      25.193  32.224  14.575  1.00  0.00     0.294 C 
BRANCH  32  33
ATOM     33  C   UNL     1      25.680  31.367  15.678  1.00  0.00     0.120 A 
ATOM     34  C   UNL     1      25.582  30.005  15.771  1.00  0.00     0.138 A 
ATOM     35  N   UNL     1      26.310  31.785  16.788  1.00  0.00    -0.132 NA
ATOM     36  N   UNL     1      26.153  29.634  16.931  1.00  0.00    -0.250 N 
ATOM     37  N   UNL     1      26.594  30.719  17.546  1.00  0.00    -0.067 NA
BRANCH  36  38
ATOM     38  C   UNL     1      26.282  28.271  17.455  1.00  0.00     0.167 C 
BRANCH  38  39
ATOM     39  C   UNL     1      26.724  28.379  18.890  1.00  0.00     0.141 C 
BRANCH  39  40
ATOM     40  N   UNL     1      28.108  27.993  18.995  1.00  0.00    -0.336 N 
ATOM     41  C   UNL     1      28.768  27.714  20.215  1.00  0.00     0.315 C 
ATOM     42  H   UNL     1      28.695  27.904  18.117  1.00  0.00     0.165 HD
ATOM     43  O   UNL     1      28.103  27.805  21.290  1.00  0.00    -0.249 OA
ATOM     44  N   UNL     1      30.138  27.343  20.213  1.00  0.00    -0.331 N 
ATOM     45  H   UNL     1      30.704  27.261  19.349  1.00  0.00     0.165 HD
BRANCH  44  46
ATOM     46  C   UNL     1      30.778  27.065  21.480  1.00  0.00     0.193 C 
BRANCH  46  47
ATOM     47  C   UNL     1      31.827  28.083  21.707  1.00  0.00     0.122 A 
ATOM     48  C   UNL     1      32.635  28.124  22.838  1.00  0.00     0.047 A 
ATOM     49  O   UNL     1      32.154  29.063  20.925  1.00  0.00    -0.467 OA
ATOM     50  C   UNL     1      33.464  29.209  22.656  1.00  0.00     0.042 A 
ATOM     51  C   UNL     1      33.119  29.761  21.440  1.00  0.00     0.195 A 
ENDBRANCH  46  47
ENDBRANCH  44  46
ENDBRANCH  39  40
ENDBRANCH  38  39
ENDBRANCH  36  38
ENDBRANCH  32  33
ENDBRANCH   1  32
TORSDOF 19
BEGIN_RES LYS A 131
REMARK  4 active torsions:
REMARK  status: ('A' for Active; 'I' for Inactive)
REMARK    1  A    between atoms: CA   and  CB  
REMARK    2  A    between atoms: CB   and  CG  
REMARK    3  A    between atoms: CG   and  CD  
REMARK    4  A    between atoms: CD   and  CE  
ROOT
ATOM      1  CA  LYS A 131      29.867  25.555  16.977  1.00 20.52     0.186 C 
ENDROOT
BRANCH   1   2
ATOM      2  CB  LYS A 131      28.345  25.722  17.026  1.00 20.94     0.034 C 
BRANCH   2   3
ATOM      3  CG  LYS A 131      27.601  24.401  16.900  1.00 22.96     0.005 C 
BRANCH   3   4
ATOM      4  CD  LYS A 131      26.524  24.257  17.939  1.00 24.33     0.041 C 
BRANCH   4   5
ATOM      5  CE  LYS A 131      25.206  23.899  17.260  1.00 26.91     0.338 C 
ATOM      6  NZ  LYS A 131      24.827  22.500  17.569  1.00 27.40     0.618 N 
ENDBRANCH   4   5
ENDBRANCH   3   4
ENDBRANCH   2   3
ENDBRANCH   1   2
END_RES LYS A 131
BEGIN_RES LYS A 135
REMARK  4 active torsions:
REMARK  status: ('A' for Active; 'I' for Inactive)
REMARK    5  A    between atoms: CA   and  CB  
REMARK    6  A    between atoms: CB   and  CG  
REMARK    7  A    between atoms: CG   and  CD  
REMARK    8  A    between atoms: CD   and  CE  
ROOT
ATOM      7  CA  LYS A 135      33.193  34.663   9.290  1.00 25.02     0.186 C 
ENDROOT
BRANCH   7   8
ATOM      8  CB  LYS A 135      32.060  35.360  10.034  1.00 26.63     0.034 C 
BRANCH   8   9
ATOM      9  CG  LYS A 135      30.824  35.562   9.196  1.00 29.45     0.005 C 
BRANCH   9  10
ATOM     10  CD  LYS A 135      30.237  34.225   8.773  1.00 32.00     0.041 C 
BRANCH  10  11
ATOM     11  CE  LYS A 135      28.894  33.997   9.439  1.00 34.25     0.338 C 
ATOM     12  NZ  LYS A 135      28.394  35.246  10.078  1.00 35.99     0.618 N 
ENDBRANCH  10  11
ENDBRANCH   9  10
ENDBRANCH   8   9
ENDBRANCH   7   8
END_RES LYS A 135
