REMARK VINA RESULT:    -4.046      4.144      7.392
REMARK INTER + INTRA:         -13.980
REMARK INTER:                  -7.357
REMARK INTRA:                  -6.624
REMARK UNBOUND:                -6.624
REMARK SMILES CC(=O)N[C@@H]1[C@@H](O)C[C@](O)(C(=O)O)O[C@H]1C(O)[C@H](O)CNC(=O)OCc1cn(-c2cccc(S(N)(=O)=O)c2)nn1
REMARK SMILES IDX 21 1 22 2 23 3 20 5 18 6 16 7 15 8 9 9 8 10 14 11 6 12 5 13
REMARK SMILES IDX 10 14 11 16 12 17 13 18 7 20 4 22 2 23 1 25 3 26 17 27 19 29
REMARK SMILES IDX 24 31 25 32 26 33 27 34 40 35 28 36 39 37 29 38 38 39 30 40
REMARK SMILES IDX 33 41 31 42 32 43 34 44 36 45 37 46 35 47
REMARK H PARENT 21 4 10 15 13 19 7 21 4 24 17 28 19 30 35 48 35 49
REMARK Flexibility Score: inf
ROOT
ATOM      1  N   UNL     1      28.062  35.860  14.853  1.00  0.00    -0.319 N 
ATOM      2  C   UNL     1      27.073  35.159  14.117  1.00  0.00     0.407 C 
ATOM      3  O   UNL     1      26.349  35.793  13.331  1.00  0.00    -0.225 OA
ATOM      4  H   UNL     1      28.641  35.259  15.501  1.00  0.00     0.167 HD
ENDROOT
BRANCH   1   5
ATOM      5  C   UNL     1      28.268  37.280  14.732  1.00  0.00     0.154 C 
BRANCH   5   6
ATOM      6  C   UNL     1      29.516  37.582  13.930  1.00  0.00     0.165 C 
BRANCH   6   7
ATOM      7  C   UNL     1      30.626  38.014  14.879  1.00  0.00     0.176 C 
BRANCH   7   8
ATOM      8  C   UNL     1      31.751  36.984  14.803  1.00  0.00     0.178 C 
ATOM      9  C   UNL     1      31.311  34.770  15.331  1.00  0.00     0.269 C 
ATOM     10  C   UNL     1      32.697  34.537  15.884  1.00  0.00     0.112 C 
ATOM     11  O   UNL     1      31.272  35.780  14.390  1.00  0.00    -0.332 OA
ATOM     12  C   UNL     1      33.475  35.796  16.065  1.00  0.00     0.145 C 
ATOM     13  C   UNL     1      32.492  36.967  16.105  1.00  0.00     0.142 C 
BRANCH   9  14
ATOM     14  O   UNL     1      30.386  35.028  16.339  1.00  0.00    -0.357 OA
ATOM     15  H   UNL     1      29.506  34.610  16.079  1.00  0.00     0.214 HD
ENDBRANCH   9  14
BRANCH   9  16
ATOM     16  C   UNL     1      30.898  33.513  14.652  1.00  0.00     0.364 C 
ATOM     17  O   UNL     1      30.066  33.515  13.707  1.00  0.00    -0.246 OA
BRANCH  16  18
ATOM     18  O   UNL     1      31.413  32.271  15.027  1.00  0.00    -0.477 OA
ATOM     19  H   UNL     1      31.898  31.691  14.352  1.00  0.00     0.296 HD
ENDBRANCH  16  18
ENDBRANCH   9  16
BRANCH  12  20
ATOM     20  O   UNL     1      34.290  35.803  17.183  1.00  0.00    -0.391 OA
ATOM     21  H   UNL     1      34.527  36.723  17.492  1.00  0.00     0.211 HD
ENDBRANCH  12  20
BRANCH  13  22
ATOM     22  N   UNL     1      33.242  38.209  16.200  1.00  0.00    -0.348 N 
ATOM     23  C   UNL     1      33.443  38.888  17.437  1.00  0.00     0.217 C 
ATOM     24  H   UNL     1      33.653  38.622  15.317  1.00  0.00     0.163 HD
ATOM     25  C   UNL     1      34.227  40.150  17.414  1.00  0.00     0.114 C 
ATOM     26  O   UNL     1      32.954  38.389  18.465  1.00  0.00    -0.275 OA
ENDBRANCH  13  22
ENDBRANCH   7   8
BRANCH   7  27
ATOM     27  O   UNL     1      31.118  39.226  14.428  1.00  0.00    -0.388 OA
ATOM     28  H   UNL     1      32.104  39.225  14.397  1.00  0.00     0.211 HD
ENDBRANCH   7  27
ENDBRANCH   6   7
BRANCH   6  29
ATOM     29  O   UNL     1      29.219  38.628  13.039  1.00  0.00    -0.388 OA
ATOM     30  H   UNL     1      29.294  39.522  13.498  1.00  0.00     0.211 HD
ENDBRANCH   6  29
ENDBRANCH   5   6
ENDBRANCH   1   5
BRANCH   2  31
ATOM     31  O   UNL     1      26.899  33.778  14.259  1.00  0.00    -0.443 OA
BRANCH  31  32
ATOM     32  C   UNL     1      26.465  33.216  15.481  1.00  0.00     0.294 C 
BRANCH  32  33
ATOM     33  C   UNL     1      27.575  32.467  16.120  1.00  0.00     0.121 A 
ATOM     34  C   UNL     1      28.150  32.784  17.335  1.00  0.00     0.144 A 
ATOM     35  N   UNL     1      28.219  31.382  15.673  1.00  0.00    -0.131 NA
ATOM     36  N   UNL     1      29.104  31.862  17.537  1.00  0.00    -0.220 N 
ATOM     37  N   UNL     1      29.156  31.004  16.530  1.00  0.00    -0.062 NA
BRANCH  36  38
ATOM     38  C   UNL     1      29.961  31.799  18.675  1.00  0.00     0.068 A 
ATOM     39  C   UNL     1      30.733  32.863  19.087  1.00  0.00     0.050 A 
ATOM     40  C   UNL     1      30.047  30.635  19.421  1.00  0.00     0.028 A 
ATOM     41  C   UNL     1      31.569  32.792  20.201  1.00  0.00     0.084 A 
ATOM     42  C   UNL     1      30.860  30.542  20.518  1.00  0.00     0.004 A 
ATOM     43  C   UNL     1      31.618  31.620  20.905  1.00  0.00     0.022 A 
BRANCH  41  44
ATOM     44  S   UNL     1      32.538  34.134  20.715  1.00  0.00     0.238 S 
ATOM     45  O   UNL     1      32.769  35.033  19.526  1.00  0.00    -0.207 OA
ATOM     46  O   UNL     1      33.898  33.634  21.141  1.00  0.00    -0.207 OA
BRANCH  44  47
ATOM     47  N   UNL     1      31.773  35.034  21.960  1.00  0.00    -0.225 NA
ATOM     48  H   UNL     1      32.437  35.726  22.351  1.00  0.00     0.137 HD
ATOM     49  H   UNL     1      31.375  34.425  22.705  1.00  0.00     0.137 HD
ENDBRANCH  44  47
ENDBRANCH  41  44
ENDBRANCH  36  38
ENDBRANCH  32  33
ENDBRANCH  31  32
ENDBRANCH   2  31
TORSDOF 17
BEGIN_RES LYS A 131
REMARK  4 active torsions:
REMARK  status: ('A' for Active; 'I' for Inactive)
REMARK    1  A    between atoms: CA   and  CB  
REMARK    2  A    between atoms: CB   and  CG  
REMARK    3  A    between atoms: CG   and  CD  
REMARK    4  A    between atoms: CD   and  CE  
ROOT
ATOM      1  CA  LYS A 131      29.867  25.555  16.977  1.00 20.52     0.186 C 
ENDROOT
BRANCH   1   2
ATOM      2  CB  LYS A 131      28.345  25.722  17.026  1.00 20.94     0.034 C 
BRANCH   2   3
ATOM      3  CG  LYS A 131      27.602  24.400  16.912  1.00 22.96     0.005 C 
BRANCH   3   4
ATOM      4  CD  LYS A 131      26.147  24.535  17.270  1.00 24.33     0.041 C 
BRANCH   4   5
ATOM      5  CE  LYS A 131      26.000  24.601  18.786  1.00 26.91     0.338 C 
ATOM      6  NZ  LYS A 131      25.403  25.895  19.194  1.00 27.40     0.618 N 
ENDBRANCH   4   5
ENDBRANCH   3   4
ENDBRANCH   2   3
ENDBRANCH   1   2
END_RES LYS A 131
BEGIN_RES LYS A 135
REMARK  4 active torsions:
REMARK  status: ('A' for Active; 'I' for Inactive)
REMARK    5  A    between atoms: CA   and  CB  
REMARK    6  A    between atoms: CB   and  CG  
REMARK    7  A    between atoms: CG   and  CD  
REMARK    8  A    between atoms: CD   and  CE  
ROOT
ATOM      7  CA  LYS A 135      33.193  34.663   9.290  1.00 25.02     0.186 C 
ENDROOT
BRANCH   7   8
ATOM      8  CB  LYS A 135      32.060  35.360  10.034  1.00 26.63     0.034 C 
BRANCH   8   9
ATOM      9  CG  LYS A 135      30.690  34.880   9.631  1.00 29.45     0.005 C 
BRANCH   9  10
ATOM     10  CD  LYS A 135      29.623  35.483  10.532  1.00 32.00     0.041 C 
BRANCH  10  11
ATOM     11  CE  LYS A 135      28.447  34.537  10.672  1.00 34.25     0.338 C 
ATOM     12  NZ  LYS A 135      28.213  33.781   9.411  1.00 35.99     0.618 N 
ENDBRANCH  10  11
ENDBRANCH   9  10
ENDBRANCH   8   9
ENDBRANCH   7   8
END_RES LYS A 135
