REMARK VINA RESULT:    -4.915      6.236     12.702
REMARK INTER + INTRA:         -13.662
REMARK INTER:                  -9.717
REMARK INTRA:                  -3.944
REMARK UNBOUND:                -4.724
REMARK SMILES CC(=O)N[C@@H]1[C@@H](O)C[C@](O)(C(=O)O)O[C@H]1C(O)[C@H](O)CNC(=O)OCc1cn([C@@H](C)C(=O)O)nn1
REMARK SMILES IDX 21 1 22 2 23 3 20 5 18 6 16 7 15 8 9 9 8 10 14 11 6 12 5 13
REMARK SMILES IDX 10 14 11 16 12 17 13 18 7 20 4 22 2 23 1 25 3 26 17 27 19 29
REMARK SMILES IDX 24 31 25 32 26 33 27 34 35 35 28 36 34 37 29 38 30 39 31 40
REMARK SMILES IDX 32 41 33 42
REMARK H PARENT 21 4 10 15 13 19 7 21 4 24 17 28 19 30 33 43
REMARK Flexibility Score: inf
ROOT
ATOM      1  N   UNL     1      29.716  41.372   6.952  1.00  0.00    -0.319 N 
ATOM      2  C   UNL     1      31.115  41.202   7.057  1.00  0.00     0.407 C 
ATOM      3  O   UNL     1      31.651  40.764   8.106  1.00  0.00    -0.225 OA
ATOM      4  H   UNL     1      29.322  41.737   6.064  1.00  0.00     0.167 HD
ENDROOT
BRANCH   1   5
ATOM      5  C   UNL     1      28.828  41.056   8.033  1.00  0.00     0.154 C 
BRANCH   5   6
ATOM      6  C   UNL     1      27.935  39.847   7.737  1.00  0.00     0.165 C 
BRANCH   6   7
ATOM      7  C   UNL     1      28.708  38.627   8.098  1.00  0.00     0.176 C 
BRANCH   7   8
ATOM      8  C   UNL     1      27.926  37.473   8.629  1.00  0.00     0.178 C 
ATOM      9  C   UNL     1      29.485  35.777   8.247  1.00  0.00     0.269 C 
ATOM     10  C   UNL     1      28.968  35.730   6.864  1.00  0.00     0.112 C 
ATOM     11  O   UNL     1      28.833  36.566   9.157  1.00  0.00    -0.332 OA
ATOM     12  C   UNL     1      27.514  35.976   6.668  1.00  0.00     0.145 C 
ATOM     13  C   UNL     1      26.923  36.853   7.735  1.00  0.00     0.142 C 
BRANCH   9  14
ATOM     14  O   UNL     1      30.796  36.316   8.160  1.00  0.00    -0.357 OA
ATOM     15  H   UNL     1      31.138  36.093   7.268  1.00  0.00     0.214 HD
ENDBRANCH   9  14
BRANCH   9  16
ATOM     16  C   UNL     1      29.647  34.389   8.760  1.00  0.00     0.364 C 
ATOM     17  O   UNL     1      28.670  33.718   9.190  1.00  0.00    -0.246 OA
BRANCH  16  18
ATOM     18  O   UNL     1      30.890  33.780   8.781  1.00  0.00    -0.477 OA
ATOM     19  H   UNL     1      31.035  32.813   9.050  1.00  0.00     0.296 HD
ENDBRANCH  16  18
ENDBRANCH   9  16
BRANCH  12  20
ATOM     20  O   UNL     1      27.354  36.540   5.388  1.00  0.00    -0.391 OA
ATOM     21  H   UNL     1      26.772  37.329   5.509  1.00  0.00     0.211 HD
ENDBRANCH  12  20
BRANCH  13  22
ATOM     22  N   UNL     1      26.061  36.018   8.596  1.00  0.00    -0.348 N 
ATOM     23  C   UNL     1      24.727  36.388   8.875  1.00  0.00     0.217 C 
ATOM     24  H   UNL     1      26.401  35.138   9.025  1.00  0.00     0.163 HD
ATOM     25  C   UNL     1      23.831  35.586   9.728  1.00  0.00     0.114 C 
ATOM     26  O   UNL     1      24.251  37.461   8.376  1.00  0.00    -0.275 OA
ENDBRANCH  13  22
ENDBRANCH   7   8
BRANCH   7  27
ATOM     27  O   UNL     1      29.541  39.030   9.192  1.00  0.00    -0.388 OA
ATOM     28  H   UNL     1      30.205  39.637   8.780  1.00  0.00     0.211 HD
ENDBRANCH   7  27
ENDBRANCH   6   7
BRANCH   6  29
ATOM     29  O   UNL     1      27.677  39.912   6.373  1.00  0.00    -0.388 OA
ATOM     30  H   UNL     1      26.754  40.257   6.266  1.00  0.00     0.211 HD
ENDBRANCH   6  29
ENDBRANCH   5   6
ENDBRANCH   1   5
BRANCH   2  31
ATOM     31  O   UNL     1      31.964  41.518   5.979  1.00  0.00    -0.443 OA
BRANCH  31  32
ATOM     32  C   UNL     1      31.881  40.804   4.760  1.00  0.00     0.294 C 
BRANCH  32  33
ATOM     33  C   UNL     1      33.158  40.112   4.454  1.00  0.00     0.120 A 
ATOM     34  C   UNL     1      34.067  39.607   5.387  1.00  0.00     0.139 A 
ATOM     35  N   UNL     1      33.709  39.824   3.254  1.00  0.00    -0.132 NA
ATOM     36  N   UNL     1      35.095  39.055   4.736  1.00  0.00    -0.238 N 
ATOM     37  N   UNL     1      34.873  39.189   3.453  1.00  0.00    -0.066 NA
BRANCH  36  38
ATOM     38  C   UNL     1      36.270  38.409   5.330  1.00  0.00     0.215 C 
ATOM     39  C   UNL     1      37.064  37.694   4.250  1.00  0.00     0.046 C 
BRANCH  38  40
ATOM     40  C   UNL     1      37.117  39.364   6.042  1.00  0.00     0.328 C 
ATOM     41  O   UNL     1      37.046  39.455   7.289  1.00  0.00    -0.250 OA
BRANCH  40  42
ATOM     42  O   UNL     1      38.027  40.211   5.413  1.00  0.00    -0.480 OA
ATOM     43  H   UNL     1      38.108  41.185   5.682  1.00  0.00     0.296 HD
ENDBRANCH  40  42
ENDBRANCH  38  40
ENDBRANCH  36  38
ENDBRANCH  32  33
ENDBRANCH  31  32
ENDBRANCH   2  31
TORSDOF 17
BEGIN_RES LYS A 131
REMARK  4 active torsions:
REMARK  status: ('A' for Active; 'I' for Inactive)
REMARK    1  A    between atoms: CA   and  CB  
REMARK    2  A    between atoms: CB   and  CG  
REMARK    3  A    between atoms: CG   and  CD  
REMARK    4  A    between atoms: CD   and  CE  
ROOT
ATOM      1  CA  LYS A 131      29.867  25.555  16.977  1.00 20.52     0.186 C 
ENDROOT
BRANCH   1   2
ATOM      2  CB  LYS A 131      28.345  25.722  17.026  1.00 20.94     0.034 C 
BRANCH   2   3
ATOM      3  CG  LYS A 131      27.603  24.396  16.970  1.00 22.96     0.005 C 
BRANCH   3   4
ATOM      4  CD  LYS A 131      26.156  24.540  17.351  1.00 24.33     0.041 C 
BRANCH   4   5
ATOM      5  CE  LYS A 131      25.552  23.159  17.587  1.00 26.91     0.338 C 
ATOM      6  NZ  LYS A 131      25.254  22.962  19.026  1.00 27.40     0.618 N 
ENDBRANCH   4   5
ENDBRANCH   3   4
ENDBRANCH   2   3
ENDBRANCH   1   2
END_RES LYS A 131
BEGIN_RES LYS A 135
REMARK  4 active torsions:
REMARK  status: ('A' for Active; 'I' for Inactive)
REMARK    5  A    between atoms: CA   and  CB  
REMARK    6  A    between atoms: CB   and  CG  
REMARK    7  A    between atoms: CG   and  CD  
REMARK    8  A    between atoms: CD   and  CE  
ROOT
ATOM      7  CA  LYS A 135      33.193  34.663   9.290  1.00 25.02     0.186 C 
ENDROOT
BRANCH   7   8
ATOM      8  CB  LYS A 135      32.060  35.360  10.034  1.00 26.63     0.034 C 
BRANCH   8   9
ATOM      9  CG  LYS A 135      32.525  36.176  11.213  1.00 29.45     0.005 C 
BRANCH   9  10
ATOM     10  CD  LYS A 135      31.953  35.622  12.508  1.00 32.00     0.041 C 
BRANCH  10  11
ATOM     11  CE  LYS A 135      30.526  35.151  12.302  1.00 34.25     0.338 C 
ATOM     12  NZ  LYS A 135      30.107  34.219  13.385  1.00 35.99     0.618 N 
ENDBRANCH  10  11
ENDBRANCH   9  10
ENDBRANCH   8   9
ENDBRANCH   7   8
END_RES LYS A 135
