REMARK VINA RESULT:    -4.004      3.449      6.111
REMARK INTER + INTRA:         -13.301
REMARK INTER:                  -9.073
REMARK INTRA:                  -4.228
REMARK UNBOUND:                -6.136
REMARK SMILES CC(=O)N[C@@H]1[C@@H](O)C[C@](O)(C(=O)O)O[C@H]1C(O)[C@H](O)CNC(=O)OCc1cn(Cc2ccsc2)nn1
REMARK SMILES IDX 21 1 22 2 23 3 20 5 18 6 16 7 15 8 9 9 8 10 14 11 6 12 5 13
REMARK SMILES IDX 10 14 11 16 12 17 13 18 7 20 4 22 2 23 1 25 3 26 17 27 19 29
REMARK SMILES IDX 24 31 25 32 26 33 27 34 36 35 28 36 35 37 29 38 30 39 31 40
REMARK SMILES IDX 34 41 32 42 33 43
REMARK H PARENT 21 4 10 15 13 19 7 21 4 24 17 28 19 30
REMARK Flexibility Score: inf
ROOT
ATOM      1  N   UNL     1      24.143  38.521   7.169  1.00  0.00    -0.319 N 
ATOM      2  C   UNL     1      23.073  38.074   7.978  1.00  0.00     0.407 C 
ATOM      3  O   UNL     1      22.311  38.918   8.501  1.00  0.00    -0.225 OA
ATOM      4  H   UNL     1      24.758  37.756   6.747  1.00  0.00     0.167 HD
ENDROOT
BRANCH   1   5
ATOM      5  C   UNL     1      24.439  39.909   6.891  1.00  0.00     0.154 C 
BRANCH   5   6
ATOM      6  C   UNL     1      25.918  40.073   6.755  1.00  0.00     0.165 C 
BRANCH   6   7
ATOM      7  C   UNL     1      26.709  38.815   7.048  1.00  0.00     0.176 C 
BRANCH   7   8
ATOM      8  C   UNL     1      28.120  39.188   7.357  1.00  0.00     0.178 C 
ATOM      9  C   UNL     1      30.086  40.004   6.456  1.00  0.00     0.269 C 
ATOM     10  C   UNL     1      30.613  39.727   7.843  1.00  0.00     0.112 C 
ATOM     11  O   UNL     1      28.706  39.986   6.395  1.00  0.00    -0.332 OA
ATOM     12  C   UNL     1      30.174  38.408   8.388  1.00  0.00     0.145 C 
ATOM     13  C   UNL     1      28.974  37.934   7.595  1.00  0.00     0.142 C 
BRANCH   9  14
ATOM     14  O   UNL     1      30.686  39.188   5.496  1.00  0.00    -0.357 OA
ATOM     15  H   UNL     1      31.292  39.723   4.935  1.00  0.00     0.214 HD
ENDBRANCH   9  14
BRANCH   9  16
ATOM     16  C   UNL     1      30.505  41.414   6.127  1.00  0.00     0.364 C 
ATOM     17  O   UNL     1      29.827  42.176   5.426  1.00  0.00    -0.246 OA
BRANCH  16  18
ATOM     18  O   UNL     1      31.714  41.890   6.633  1.00  0.00    -0.477 OA
ATOM     19  H   UNL     1      32.360  42.447   6.087  1.00  0.00     0.296 HD
ENDBRANCH  16  18
ENDBRANCH   9  16
BRANCH  12  20
ATOM     20  O   UNL     1      31.174  37.463   8.453  1.00  0.00    -0.391 OA
ATOM     21  H   UNL     1      32.080  37.886   8.575  1.00  0.00     0.211 HD
ENDBRANCH  12  20
BRANCH  13  22
ATOM     22  N   UNL     1      28.203  36.939   8.292  1.00  0.00    -0.348 N 
ATOM     23  C   UNL     1      27.944  35.661   7.698  1.00  0.00     0.217 C 
ATOM     24  H   UNL     1      27.807  37.105   9.243  1.00  0.00     0.163 HD
ATOM     25  C   UNL     1      27.170  34.598   8.342  1.00  0.00     0.114 C 
ATOM     26  O   UNL     1      28.419  35.435   6.535  1.00  0.00    -0.275 OA
ENDBRANCH  13  22
ENDBRANCH   7   8
BRANCH   7  27
ATOM     27  O   UNL     1      26.660  38.041   5.888  1.00  0.00    -0.388 OA
ATOM     28  H   UNL     1      26.086  37.252   6.042  1.00  0.00     0.211 HD
ENDBRANCH   7  27
ENDBRANCH   6   7
BRANCH   6  29
ATOM     29  O   UNL     1      26.324  41.024   7.705  1.00  0.00    -0.388 OA
ATOM     30  H   UNL     1      25.596  41.297   8.304  1.00  0.00     0.211 HD
ENDBRANCH   6  29
ENDBRANCH   5   6
ENDBRANCH   1   5
BRANCH   2  31
ATOM     31  O   UNL     1      22.884  36.692   8.180  1.00  0.00    -0.443 OA
BRANCH  31  32
ATOM     32  C   UNL     1      23.805  36.081   9.073  1.00  0.00     0.294 C 
BRANCH  32  33
ATOM     33  C   UNL     1      23.040  35.459  10.163  1.00  0.00     0.120 A 
ATOM     34  C   UNL     1      23.529  34.861  11.313  1.00  0.00     0.138 A 
ATOM     35  N   UNL     1      21.695  35.364  10.230  1.00  0.00    -0.132 NA
ATOM     36  N   UNL     1      22.461  34.441  12.005  1.00  0.00    -0.248 N 
ATOM     37  N   UNL     1      21.351  34.741  11.357  1.00  0.00    -0.067 NA
BRANCH  36  38
ATOM     38  C   UNL     1      22.513  33.761  13.269  1.00  0.00     0.182 C 
BRANCH  38  39
ATOM     39  C   UNL     1      22.718  32.260  13.063  1.00  0.00    -0.016 A 
ATOM     40  C   UNL     1      21.729  31.463  12.675  1.00  0.00     0.017 A 
ATOM     41  C   UNL     1      23.973  31.745  13.292  1.00  0.00     0.070 A 
ATOM     42  C   UNL     1      21.959  30.125  12.502  1.00  0.00     0.065 A 
ATOM     43  S   UNL     1      23.708  29.974  12.919  1.00  0.00    -0.152 S 
ENDBRANCH  38  39
ENDBRANCH  36  38
ENDBRANCH  32  33
ENDBRANCH  31  32
ENDBRANCH   2  31
TORSDOF 16
BEGIN_RES LYS A 131
REMARK  4 active torsions:
REMARK  status: ('A' for Active; 'I' for Inactive)
REMARK    1  A    between atoms: CA   and  CB  
REMARK    2  A    between atoms: CB   and  CG  
REMARK    3  A    between atoms: CG   and  CD  
REMARK    4  A    between atoms: CD   and  CE  
ROOT
ATOM      1  CA  LYS A 131      29.867  25.555  16.977  1.00 20.52     0.186 C 
ENDROOT
BRANCH   1   2
ATOM      2  CB  LYS A 131      28.345  25.722  17.026  1.00 20.94     0.034 C 
BRANCH   2   3
ATOM      3  CG  LYS A 131      27.601  24.402  16.893  1.00 22.96     0.005 C 
BRANCH   3   4
ATOM      4  CD  LYS A 131      26.618  24.191  18.011  1.00 24.33     0.041 C 
BRANCH   4   5
ATOM      5  CE  LYS A 131      25.371  25.032  17.758  1.00 26.91     0.338 C 
ATOM      6  NZ  LYS A 131      24.443  24.322  16.846  1.00 27.40     0.618 N 
ENDBRANCH   4   5
ENDBRANCH   3   4
ENDBRANCH   2   3
ENDBRANCH   1   2
END_RES LYS A 131
BEGIN_RES LYS A 135
REMARK  4 active torsions:
REMARK  status: ('A' for Active; 'I' for Inactive)
REMARK    5  A    between atoms: CA   and  CB  
REMARK    6  A    between atoms: CB   and  CG  
REMARK    7  A    between atoms: CG   and  CD  
REMARK    8  A    between atoms: CD   and  CE  
ROOT
ATOM      7  CA  LYS A 135      33.193  34.663   9.290  1.00 25.02     0.186 C 
ENDROOT
BRANCH   7   8
ATOM      8  CB  LYS A 135      32.060  35.360  10.034  1.00 26.63     0.034 C 
BRANCH   8   9
ATOM      9  CG  LYS A 135      30.729  34.668   9.889  1.00 29.45     0.005 C 
BRANCH   9  10
ATOM     10  CD  LYS A 135      29.843  34.952  11.092  1.00 32.00     0.041 C 
BRANCH  10  11
ATOM     11  CE  LYS A 135      30.644  34.860  12.377  1.00 34.25     0.338 C 
ATOM     12  NZ  LYS A 135      29.835  35.304  13.546  1.00 35.99     0.618 N 
ENDBRANCH  10  11
ENDBRANCH   9  10
ENDBRANCH   8   9
ENDBRANCH   7   8
END_RES LYS A 135
