REMARK VINA RESULT:    -5.053      2.121      4.062
REMARK INTER + INTRA:         -14.766
REMARK INTER:                  -7.792
REMARK INTRA:                  -6.974
REMARK UNBOUND:                -5.578
REMARK SMILES CC(=O)N[C@@H]1[C@@H](O)C[C@](O)(C(=O)O)O[C@H]1C(O)[C@H](O)CNC(=O)OCc1cn(C(C)(C)C(=O)O)nn1
REMARK SMILES IDX 21 1 22 2 23 3 20 5 18 6 16 7 15 8 9 9 8 10 14 11 6 12 5 13
REMARK SMILES IDX 10 14 11 16 12 17 13 18 7 20 4 22 2 23 1 25 3 26 17 27 19 29
REMARK SMILES IDX 24 31 25 32 26 33 27 34 36 35 28 36 35 37 29 38 30 39 31 40
REMARK SMILES IDX 32 41 33 42 34 43
REMARK H PARENT 21 4 10 15 13 19 7 21 4 24 17 28 19 30 34 44
REMARK Flexibility Score: inf
ROOT
ATOM      1  N   UNL     1      25.261  34.551  14.245  1.00  0.00    -0.319 N 
ATOM      2  C   UNL     1      24.320  33.539  13.943  1.00  0.00     0.407 C 
ATOM      3  O   UNL     1      24.340  32.946  12.810  1.00  0.00    -0.225 OA
ATOM      4  H   UNL     1      25.239  35.023  15.168  1.00  0.00     0.167 HD
ENDROOT
BRANCH   1   5
ATOM      5  C   UNL     1      26.237  34.887  13.239  1.00  0.00     0.154 C 
BRANCH   5   6
ATOM      6  C   UNL     1      27.556  35.339  13.757  1.00  0.00     0.165 C 
BRANCH   6   7
ATOM      7  C   UNL     1      28.313  34.266  14.498  1.00  0.00     0.176 C 
BRANCH   7   8
ATOM      8  C   UNL     1      29.728  34.791  14.769  1.00  0.00     0.178 C 
ATOM      9  C   UNL     1      31.735  35.038  13.619  1.00  0.00     0.269 C 
ATOM     10  C   UNL     1      32.504  34.435  14.774  1.00  0.00     0.112 C 
ATOM     11  O   UNL     1      30.419  34.645  13.571  1.00  0.00    -0.332 OA
ATOM     12  C   UNL     1      31.677  33.381  15.448  1.00  0.00     0.145 C 
ATOM     13  C   UNL     1      30.360  33.991  15.887  1.00  0.00     0.142 C 
BRANCH   9  14
ATOM     14  O   UNL     1      32.337  34.543  12.451  1.00  0.00    -0.357 OA
ATOM     15  H   UNL     1      33.187  34.994  12.298  1.00  0.00     0.214 HD
ENDBRANCH   9  14
BRANCH   9  16
ATOM     16  C   UNL     1      31.873  36.510  13.612  1.00  0.00     0.364 C 
ATOM     17  O   UNL     1      31.644  37.155  12.569  1.00  0.00    -0.246 OA
BRANCH  16  18
ATOM     18  O   UNL     1      32.254  37.218  14.742  1.00  0.00    -0.477 OA
ATOM     19  H   UNL     1      31.867  37.029  15.655  1.00  0.00     0.296 HD
ENDBRANCH  16  18
ENDBRANCH   9  16
BRANCH  12  20
ATOM     20  O   UNL     1      31.504  32.252  14.684  1.00  0.00    -0.391 OA
ATOM     21  H   UNL     1      31.385  31.422  15.195  1.00  0.00     0.211 HD
ENDBRANCH  12  20
BRANCH  13  22
ATOM     22  N   UNL     1      30.661  34.847  17.034  1.00  0.00    -0.348 N 
ATOM     23  C   UNL     1      30.090  34.597  18.312  1.00  0.00     0.217 C 
ATOM     24  H   UNL     1      31.303  35.659  16.925  1.00  0.00     0.163 HD
ATOM     25  C   UNL     1      30.386  35.461  19.493  1.00  0.00     0.114 C 
ATOM     26  O   UNL     1      29.312  33.594  18.392  1.00  0.00    -0.275 OA
ENDBRANCH  13  22
ENDBRANCH   7   8
BRANCH   7  27
ATOM     27  O   UNL     1      27.717  33.818  15.644  1.00  0.00    -0.388 OA
ATOM     28  H   UNL     1      28.151  34.191  16.435  1.00  0.00     0.211 HD
ENDBRANCH   7  27
ENDBRANCH   6   7
BRANCH   6  29
ATOM     29  O   UNL     1      27.278  36.400  14.657  1.00  0.00    -0.388 OA
ATOM     30  H   UNL     1      27.185  36.014  15.575  1.00  0.00     0.211 HD
ENDBRANCH   6  29
ENDBRANCH   5   6
ENDBRANCH   1   5
BRANCH   2  31
ATOM     31  O   UNL     1      23.335  33.122  14.816  1.00  0.00    -0.443 OA
BRANCH  31  32
ATOM     32  C   UNL     1      23.390  31.831  15.447  1.00  0.00     0.294 C 
BRANCH  32  33
ATOM     33  C   UNL     1      24.651  31.768  16.229  1.00  0.00     0.120 A 
ATOM     34  C   UNL     1      25.536  30.701  16.244  1.00  0.00     0.139 A 
ATOM     35  N   UNL     1      25.196  32.677  17.059  1.00  0.00    -0.132 NA
ATOM     36  N   UNL     1      26.573  30.987  17.064  1.00  0.00    -0.235 N 
ATOM     37  N   UNL     1      26.333  32.194  17.541  1.00  0.00    -0.066 NA
BRANCH  36  38
ATOM     38  C   UNL     1      27.700  30.119  17.337  1.00  0.00     0.155 C 
ATOM     39  C   UNL     1      28.002  30.104  18.821  1.00  0.00     0.049 C 
ATOM     40  C   UNL     1      27.379  28.715  16.866  1.00  0.00     0.049 C 
BRANCH  38  41
ATOM     41  C   UNL     1      28.931  30.610  16.650  1.00  0.00     0.331 C 
ATOM     42  O   UNL     1      28.835  30.898  15.430  1.00  0.00    -0.250 OA
BRANCH  41  43
ATOM     43  O   UNL     1      30.138  30.752  17.307  1.00  0.00    -0.479 OA
ATOM     44  H   UNL     1      30.120  30.734  18.323  1.00  0.00     0.296 HD
ENDBRANCH  41  43
ENDBRANCH  38  41
ENDBRANCH  36  38
ENDBRANCH  32  33
ENDBRANCH  31  32
ENDBRANCH   2  31
TORSDOF 17
BEGIN_RES LYS A 131
REMARK  4 active torsions:
REMARK  status: ('A' for Active; 'I' for Inactive)
REMARK    1  A    between atoms: CA   and  CB  
REMARK    2  A    between atoms: CB   and  CG  
REMARK    3  A    between atoms: CG   and  CD  
REMARK    4  A    between atoms: CD   and  CE  
ROOT
ATOM      1  CA  LYS A 131      29.867  25.555  16.977  1.00 20.52     0.186 C 
ENDROOT
BRANCH   1   2
ATOM      2  CB  LYS A 131      28.345  25.722  17.026  1.00 20.94     0.034 C 
BRANCH   2   3
ATOM      3  CG  LYS A 131      27.602  24.398  16.935  1.00 22.96     0.005 C 
BRANCH   3   4
ATOM      4  CD  LYS A 131      26.648  24.203  18.080  1.00 24.33     0.041 C 
BRANCH   4   5
ATOM      5  CE  LYS A 131      25.538  23.244  17.662  1.00 26.91     0.338 C 
ATOM      6  NZ  LYS A 131      24.471  23.972  16.935  1.00 27.40     0.618 N 
ENDBRANCH   4   5
ENDBRANCH   3   4
ENDBRANCH   2   3
ENDBRANCH   1   2
END_RES LYS A 131
BEGIN_RES LYS A 135
REMARK  4 active torsions:
REMARK  status: ('A' for Active; 'I' for Inactive)
REMARK    5  A    between atoms: CA   and  CB  
REMARK    6  A    between atoms: CB   and  CG  
REMARK    7  A    between atoms: CG   and  CD  
REMARK    8  A    between atoms: CD   and  CE  
ROOT
ATOM      7  CA  LYS A 135      33.193  34.663   9.290  1.00 25.02     0.186 C 
ENDROOT
BRANCH   7   8
ATOM      8  CB  LYS A 135      32.060  35.360  10.034  1.00 26.63     0.034 C 
BRANCH   8   9
ATOM      9  CG  LYS A 135      30.821  35.556   9.198  1.00 29.45     0.005 C 
BRANCH   9  10
ATOM     10  CD  LYS A 135      29.943  34.315   9.241  1.00 32.00     0.041 C 
BRANCH  10  11
ATOM     11  CE  LYS A 135      28.814  34.495  10.237  1.00 34.25     0.338 C 
ATOM     12  NZ  LYS A 135      27.597  33.752   9.809  1.00 35.99     0.618 N 
ENDBRANCH  10  11
ENDBRANCH   9  10
ENDBRANCH   8   9
ENDBRANCH   7   8
END_RES LYS A 135
