REMARK VINA RESULT:    -4.634      3.553      7.440
REMARK INTER + INTRA:         -16.629
REMARK INTER:                  -8.586
REMARK INTRA:                  -8.043
REMARK UNBOUND:                -7.118
REMARK SMILES CC(=O)N[C@@H]1[C@@H](O)C[C@](O)(C(=O)O)O[C@H]1C(O)[C@H](O)CNC(=O)OCc1cn(C[C@H](CC(=O)O)CC(C)C)nn1
REMARK SMILES IDX 24 1 22 2 21 3 23 5 20 6 18 7 16 8 15 9 9 10 8 11 14 12 6 13
REMARK SMILES IDX 5 14 10 15 11 17 12 18 13 19 7 21 4 23 2 24 1 26 3 27 17 28
REMARK SMILES IDX 19 30 25 32 26 33 27 34 40 35 28 36 39 37 29 38 30 39 31 40
REMARK SMILES IDX 32 41 33 42 34 43 35 45 36 46 37 47 38 48
REMARK H PARENT 21 4 10 16 13 20 7 22 4 25 17 29 19 31 34 44
REMARK Flexibility Score: inf
ROOT
ATOM      1  O   UNL     1      27.250  28.862  18.978  1.00  0.00    -0.443 OA
ENDROOT
BRANCH   1   2
ATOM      2  C   UNL     1      28.073  29.996  19.104  1.00  0.00     0.407 C 
ATOM      3  N   UNL     1      29.386  30.013  18.575  1.00  0.00    -0.319 N 
ATOM      4  H   UNL     1      29.703  29.122  18.080  1.00  0.00     0.167 HD
ATOM      5  O   UNL     1      27.605  30.994  19.702  1.00  0.00    -0.225 OA
BRANCH   3   6
ATOM      6  C   UNL     1      30.275  31.148  18.679  1.00  0.00     0.154 C 
BRANCH   6   7
ATOM      7  C   UNL     1      30.398  31.809  17.350  1.00  0.00     0.165 C 
BRANCH   7   8
ATOM      8  C   UNL     1      29.356  32.889  17.107  1.00  0.00     0.176 C 
BRANCH   8   9
ATOM      9  C   UNL     1      29.300  33.288  15.666  1.00  0.00     0.178 C 
ATOM     10  C   UNL     1      30.845  34.749  14.732  1.00  0.00     0.269 C 
ATOM     11  C   UNL     1      29.837  35.409  13.823  1.00  0.00     0.112 C 
ATOM     12  O   UNL     1      30.505  33.443  15.047  1.00  0.00    -0.332 OA
ATOM     13  C   UNL     1      28.464  34.788  13.962  1.00  0.00     0.145 C 
ATOM     14  C   UNL     1      28.330  34.446  15.452  1.00  0.00     0.142 C 
BRANCH  10  15
ATOM     15  O   UNL     1      31.068  35.521  15.876  1.00  0.00    -0.357 OA
ATOM     16  H   UNL     1      31.786  36.174  15.770  1.00  0.00     0.214 HD
ENDBRANCH  10  15
BRANCH  10  17
ATOM     17  C   UNL     1      32.135  34.694  13.993  1.00  0.00     0.364 C 
ATOM     18  O   UNL     1      32.315  35.487  13.019  1.00  0.00    -0.246 OA
BRANCH  17  19
ATOM     19  O   UNL     1      33.158  33.825  14.307  1.00  0.00    -0.477 OA
ATOM     20  H   UNL     1      33.970  34.178  14.837  1.00  0.00     0.296 HD
ENDBRANCH  17  19
ENDBRANCH  10  17
BRANCH  13  21
ATOM     21  O   UNL     1      27.451  35.603  13.522  1.00  0.00    -0.391 OA
ATOM     22  H   UNL     1      26.592  35.210  13.867  1.00  0.00     0.211 HD
ENDBRANCH  13  21
BRANCH  14  23
ATOM     23  N   UNL     1      26.994  33.997  15.757  1.00  0.00    -0.348 N 
ATOM     24  C   UNL     1      26.282  34.533  16.874  1.00  0.00     0.217 C 
ATOM     25  H   UNL     1      26.486  33.272  15.192  1.00  0.00     0.163 HD
ATOM     26  C   UNL     1      24.915  34.095  17.213  1.00  0.00     0.114 C 
ATOM     27  O   UNL     1      26.831  35.403  17.594  1.00  0.00    -0.275 OA
ENDBRANCH  14  23
ENDBRANCH   8   9
BRANCH   8  28
ATOM     28  O   UNL     1      29.523  33.936  17.984  1.00  0.00    -0.388 OA
ATOM     29  H   UNL     1      29.510  34.778  17.482  1.00  0.00     0.211 HD
ENDBRANCH   8  28
ENDBRANCH   7   8
BRANCH   7  30
ATOM     30  O   UNL     1      30.208  30.826  16.349  1.00  0.00    -0.388 OA
ATOM     31  H   UNL     1      30.147  29.927  16.743  1.00  0.00     0.211 HD
ENDBRANCH   7  30
ENDBRANCH   6   7
ENDBRANCH   3   6
ENDBRANCH   1   2
BRANCH   1  32
ATOM     32  C   UNL     1      27.038  28.355  17.684  1.00  0.00     0.294 C 
BRANCH  32  33
ATOM     33  C   UNL     1      26.554  29.386  16.748  1.00  0.00     0.120 A 
ATOM     34  C   UNL     1      25.259  29.777  16.442  1.00  0.00     0.138 A 
ATOM     35  N   UNL     1      27.337  30.165  15.992  1.00  0.00    -0.132 NA
ATOM     36  N   UNL     1      25.303  30.761  15.528  1.00  0.00    -0.252 N 
ATOM     37  N   UNL     1      26.569  30.977  15.273  1.00  0.00    -0.067 NA
BRANCH  36  38
ATOM     38  C   UNL     1      24.111  31.440  14.951  1.00  0.00     0.150 C 
BRANCH  38  39
ATOM     39  C   UNL     1      24.215  31.459  13.466  1.00  0.00     0.022 C 
BRANCH  39  40
ATOM     40  C   UNL     1      23.614  32.764  12.975  1.00  0.00     0.128 C 
BRANCH  40  41
ATOM     41  C   UNL     1      24.677  33.798  12.908  1.00  0.00     0.303 C 
ATOM     42  O   UNL     1      25.604  33.712  12.084  1.00  0.00    -0.252 OA
BRANCH  41  43
ATOM     43  O   UNL     1      24.593  34.866  13.807  1.00  0.00    -0.481 OA
ATOM     44  H   UNL     1      23.761  35.422  13.835  1.00  0.00     0.296 HD
ENDBRANCH  41  43
ENDBRANCH  40  41
ENDBRANCH  39  40
BRANCH  39  45
ATOM     45  C   UNL     1      23.672  30.251  12.822  1.00  0.00     0.009 C 
BRANCH  45  46
ATOM     46  C   UNL     1      22.471  29.617  13.414  1.00  0.00    -0.017 C 
ATOM     47  C   UNL     1      21.467  29.454  12.238  1.00  0.00     0.007 C 
ATOM     48  C   UNL     1      22.641  28.268  14.025  1.00  0.00     0.007 C 
ENDBRANCH  45  46
ENDBRANCH  39  45
ENDBRANCH  38  39
ENDBRANCH  36  38
ENDBRANCH  32  33
ENDBRANCH   1  32
TORSDOF 21
BEGIN_RES LYS A 131
REMARK  4 active torsions:
REMARK  status: ('A' for Active; 'I' for Inactive)
REMARK    1  A    between atoms: CA   and  CB  
REMARK    2  A    between atoms: CB   and  CG  
REMARK    3  A    between atoms: CG   and  CD  
REMARK    4  A    between atoms: CD   and  CE  
ROOT
ATOM      1  CA  LYS A 131      29.867  25.555  16.977  1.00 20.52     0.186 C 
ENDROOT
BRANCH   1   2
ATOM      2  CB  LYS A 131      28.345  25.722  17.026  1.00 20.94     0.034 C 
BRANCH   2   3
ATOM      3  CG  LYS A 131      27.605  24.393  17.026  1.00 22.96     0.005 C 
BRANCH   3   4
ATOM      4  CD  LYS A 131      26.118  24.573  17.163  1.00 24.33     0.041 C 
BRANCH   4   5
ATOM      5  CE  LYS A 131      25.760  24.742  18.636  1.00 26.91     0.338 C 
ATOM      6  NZ  LYS A 131      25.699  23.424  19.310  1.00 27.40     0.618 N 
ENDBRANCH   4   5
ENDBRANCH   3   4
ENDBRANCH   2   3
ENDBRANCH   1   2
END_RES LYS A 131
BEGIN_RES LYS A 135
REMARK  4 active torsions:
REMARK  status: ('A' for Active; 'I' for Inactive)
REMARK    5  A    between atoms: CA   and  CB  
REMARK    6  A    between atoms: CB   and  CG  
REMARK    7  A    between atoms: CG   and  CD  
REMARK    8  A    between atoms: CD   and  CE  
ROOT
ATOM      7  CA  LYS A 135      33.193  34.663   9.290  1.00 25.02     0.186 C 
ENDROOT
BRANCH   7   8
ATOM      8  CB  LYS A 135      32.060  35.360  10.034  1.00 26.63     0.034 C 
BRANCH   8   9
ATOM      9  CG  LYS A 135      30.735  34.651   9.915  1.00 29.45     0.005 C 
BRANCH   9  10
ATOM     10  CD  LYS A 135      30.298  34.571   8.461  1.00 32.00     0.041 C 
BRANCH  10  11
ATOM     11  CE  LYS A 135      28.787  34.480   8.363  1.00 34.25     0.338 C 
ATOM     12  NZ  LYS A 135      28.213  33.799   9.557  1.00 35.99     0.618 N 
ENDBRANCH  10  11
ENDBRANCH   9  10
ENDBRANCH   8   9
ENDBRANCH   7   8
END_RES LYS A 135
