REMARK VINA RESULT:    -4.487      2.587      6.962
REMARK INTER + INTRA:         -14.029
REMARK INTER:                  -8.162
REMARK INTRA:                  -5.867
REMARK UNBOUND:                -5.477
REMARK SMILES CC(=O)N[C@@H]1[C@@H](O)C[C@](O)(C(=O)O)O[C@H]1C(O)[C@H](O)CNC(=O)OCc1cn(CC(O)CO)nn1
REMARK SMILES IDX 21 1 22 2 23 3 20 5 18 6 16 7 15 8 9 9 8 10 14 11 6 12 5 13
REMARK SMILES IDX 10 14 11 16 12 17 13 18 7 20 4 22 2 23 1 25 3 26 17 27 19 29
REMARK SMILES IDX 24 31 25 32 26 33 27 34 35 35 28 36 34 37 29 38 30 39 31 40
REMARK SMILES IDX 32 42 33 43
REMARK H PARENT 21 4 10 15 13 19 7 21 4 24 17 28 19 30 31 41 33 44
REMARK Flexibility Score: inf
ROOT
ATOM      1  N   UNL     1      28.490  30.153  16.585  1.00  0.00    -0.319 N 
ATOM      2  C   UNL     1      27.076  30.088  16.523  1.00  0.00     0.407 C 
ATOM      3  O   UNL     1      26.450  30.552  15.554  1.00  0.00    -0.225 OA
ATOM      4  H   UNL     1      28.933  29.730  17.455  1.00  0.00     0.167 HD
ENDROOT
BRANCH   1   5
ATOM      5  C   UNL     1      29.258  30.750  15.545  1.00  0.00     0.154 C 
BRANCH   5   6
ATOM      6  C   UNL     1      30.346  31.674  16.046  1.00  0.00     0.165 C 
BRANCH   6   7
ATOM      7  C   UNL     1      29.721  33.061  16.137  1.00  0.00     0.176 C 
BRANCH   7   8
ATOM      8  C   UNL     1      29.174  33.484  14.768  1.00  0.00     0.178 C 
ATOM      9  C   UNL     1      30.203  35.343  13.828  1.00  0.00     0.269 C 
ATOM     10  C   UNL     1      28.994  35.617  12.956  1.00  0.00     0.112 C 
ATOM     11  O   UNL     1      30.226  33.988  14.057  1.00  0.00    -0.332 OA
ATOM     12  C   UNL     1      27.780  35.322  13.767  1.00  0.00     0.145 C 
ATOM     13  C   UNL     1      28.013  34.411  14.943  1.00  0.00     0.142 C 
BRANCH   9  14
ATOM     14  O   UNL     1      30.043  36.103  14.985  1.00  0.00    -0.357 OA
ATOM     15  H   UNL     1      30.188  35.580  15.806  1.00  0.00     0.214 HD
ENDBRANCH   9  14
BRANCH   9  16
ATOM     16  C   UNL     1      31.463  35.731  13.145  1.00  0.00     0.364 C 
ATOM     17  O   UNL     1      31.640  36.941  12.852  1.00  0.00    -0.246 OA
BRANCH  16  18
ATOM     18  O   UNL     1      32.407  34.777  12.847  1.00  0.00    -0.477 OA
ATOM     19  H   UNL     1      33.175  34.987  12.217  1.00  0.00     0.296 HD
ENDBRANCH  16  18
ENDBRANCH   9  16
BRANCH  12  20
ATOM     20  O   UNL     1      27.298  36.536  14.273  1.00  0.00    -0.391 OA
ATOM     21  H   UNL     1      27.100  37.141  13.535  1.00  0.00     0.211 HD
ENDBRANCH  12  20
BRANCH  13  22
ATOM     22  N   UNL     1      26.789  33.662  15.128  1.00  0.00    -0.348 N 
ATOM     23  C   UNL     1      25.810  34.143  16.036  1.00  0.00     0.217 C 
ATOM     24  H   UNL     1      26.588  32.771  14.617  1.00  0.00     0.163 HD
ATOM     25  C   UNL     1      24.520  33.405  16.269  1.00  0.00     0.114 C 
ATOM     26  O   UNL     1      25.953  35.201  16.700  1.00  0.00    -0.275 OA
ENDBRANCH  13  22
ENDBRANCH   7   8
BRANCH   7  27
ATOM     27  O   UNL     1      28.757  33.064  17.115  1.00  0.00    -0.388 OA
ATOM     28  H   UNL     1      28.831  33.867  17.702  1.00  0.00     0.211 HD
ENDBRANCH   7  27
ENDBRANCH   6   7
BRANCH   6  29
ATOM     29  O   UNL     1      31.431  31.672  15.170  1.00  0.00    -0.388 OA
ATOM     30  H   UNL     1      31.936  32.491  15.331  1.00  0.00     0.211 HD
ENDBRANCH   6  29
ENDBRANCH   5   6
ENDBRANCH   1   5
BRANCH   2  31
ATOM     31  O   UNL     1      26.335  29.494  17.556  1.00  0.00    -0.443 OA
BRANCH  31  32
ATOM     32  C   UNL     1      26.448  28.113  17.743  1.00  0.00     0.294 C 
BRANCH  32  33
ATOM     33  C   UNL     1      26.998  27.775  19.080  1.00  0.00     0.120 A 
ATOM     34  C   UNL     1      28.294  27.898  19.490  1.00  0.00     0.138 A 
ATOM     35  N   UNL     1      26.314  27.288  20.118  1.00  0.00    -0.132 NA
ATOM     36  N   UNL     1      28.339  27.474  20.781  1.00  0.00    -0.249 N 
ATOM     37  N   UNL     1      27.121  27.104  21.151  1.00  0.00    -0.067 NA
BRANCH  36  38
ATOM     38  C   UNL     1      29.546  27.442  21.604  1.00  0.00     0.180 C 
BRANCH  38  39
ATOM     39  C   UNL     1      30.388  28.623  21.163  1.00  0.00     0.161 C 
BRANCH  39  40
ATOM     40  O   UNL     1      30.328  29.619  22.131  1.00  0.00    -0.389 OA
ATOM     41  H   UNL     1      30.559  29.208  23.007  1.00  0.00     0.211 HD
ENDBRANCH  39  40
BRANCH  39  42
ATOM     42  C   UNL     1      31.844  28.187  20.965  1.00  0.00     0.189 C 
BRANCH  42  43
ATOM     43  O   UNL     1      31.893  27.172  20.007  1.00  0.00    -0.394 OA
ATOM     44  H   UNL     1      32.510  27.449  19.265  1.00  0.00     0.210 HD
ENDBRANCH  42  43
ENDBRANCH  39  42
ENDBRANCH  38  39
ENDBRANCH  36  38
ENDBRANCH  32  33
ENDBRANCH  31  32
ENDBRANCH   2  31
TORSDOF 19
BEGIN_RES LYS A 131
REMARK  4 active torsions:
REMARK  status: ('A' for Active; 'I' for Inactive)
REMARK    1  A    between atoms: CA   and  CB  
REMARK    2  A    between atoms: CB   and  CG  
REMARK    3  A    between atoms: CG   and  CD  
REMARK    4  A    between atoms: CD   and  CE  
ROOT
ATOM      1  CA  LYS A 131      29.867  25.555  16.977  1.00 20.52     0.186 C 
ENDROOT
BRANCH   1   2
ATOM      2  CB  LYS A 131      28.345  25.722  17.026  1.00 20.94     0.034 C 
BRANCH   2   3
ATOM      3  CG  LYS A 131      27.601  24.403  16.888  1.00 22.96     0.005 C 
BRANCH   3   4
ATOM      4  CD  LYS A 131      26.542  24.236  17.942  1.00 24.33     0.041 C 
BRANCH   4   5
ATOM      5  CE  LYS A 131      25.164  24.390  17.308  1.00 26.91     0.338 C 
ATOM      6  NZ  LYS A 131      24.471  23.081  17.249  1.00 27.40     0.618 N 
ENDBRANCH   4   5
ENDBRANCH   3   4
ENDBRANCH   2   3
ENDBRANCH   1   2
END_RES LYS A 131
BEGIN_RES LYS A 135
REMARK  4 active torsions:
REMARK  status: ('A' for Active; 'I' for Inactive)
REMARK    5  A    between atoms: CA   and  CB  
REMARK    6  A    between atoms: CB   and  CG  
REMARK    7  A    between atoms: CG   and  CD  
REMARK    8  A    between atoms: CD   and  CE  
ROOT
ATOM      7  CA  LYS A 135      33.193  34.663   9.290  1.00 25.02     0.186 C 
ENDROOT
BRANCH   7   8
ATOM      8  CB  LYS A 135      32.060  35.360  10.034  1.00 26.63     0.034 C 
BRANCH   8   9
ATOM      9  CG  LYS A 135      30.702  34.768   9.756  1.00 29.45     0.005 C 
BRANCH   9  10
ATOM     10  CD  LYS A 135      30.488  34.597   8.260  1.00 32.00     0.041 C 
BRANCH  10  11
ATOM     11  CE  LYS A 135      29.042  34.870   7.894  1.00 34.25     0.338 C 
ATOM     12  NZ  LYS A 135      28.943  35.584   6.591  1.00 35.99     0.618 N 
ENDBRANCH  10  11
ENDBRANCH   9  10
ENDBRANCH   8   9
ENDBRANCH   7   8
END_RES LYS A 135
