REMARK VINA RESULT:    -4.944      7.736     12.322
REMARK INTER + INTRA:         -14.726
REMARK INTER:                  -8.765
REMARK INTRA:                  -5.961
REMARK UNBOUND:                -5.735
REMARK SMILES CC(=O)N[C@@H]1[C@@H](O)C[C@](O)(C(=O)O)O[C@H]1C(O)[C@H](O)CNC(=O)OCc1cn(-c2ccc(CO)cn2)nn1
REMARK SMILES IDX 21 1 22 2 23 3 20 5 18 6 16 7 15 8 9 9 8 10 14 11 6 12 5 13
REMARK SMILES IDX 10 14 11 16 12 17 13 18 7 20 4 22 2 23 1 25 3 26 17 27 19 29
REMARK SMILES IDX 24 31 25 32 26 33 27 34 38 35 28 36 37 37 29 38 30 39 36 40
REMARK SMILES IDX 31 41 35 42 32 43 33 44 34 45
REMARK H PARENT 21 4 10 15 13 19 7 21 4 24 17 28 19 30 34 46
REMARK Flexibility Score: inf
ROOT
ATOM      1  N   UNL     1      21.159  34.364  13.604  1.00  0.00    -0.319 N 
ATOM      2  C   UNL     1      22.236  33.587  14.149  1.00  0.00     0.407 C 
ATOM      3  O   UNL     1      22.032  32.356  14.258  1.00  0.00    -0.225 OA
ATOM      4  H   UNL     1      21.376  35.380  13.519  1.00  0.00     0.167 HD
ENDROOT
BRANCH   1   5
ATOM      5  C   UNL     1      19.925  33.745  13.202  1.00  0.00     0.154 C 
BRANCH   5   6
ATOM      6  C   UNL     1      19.861  33.680  11.684  1.00  0.00     0.165 C 
BRANCH   6   7
ATOM      7  C   UNL     1      20.565  34.908  11.185  1.00  0.00     0.176 C 
BRANCH   7   8
ATOM      8  C   UNL     1      19.842  35.748  10.173  1.00  0.00     0.178 C 
ATOM      9  C   UNL     1      18.995  35.310   8.015  1.00  0.00     0.269 C 
ATOM     10  C   UNL     1      19.461  36.643   7.483  1.00  0.00     0.112 C 
ATOM     11  O   UNL     1      19.691  34.907   9.101  1.00  0.00    -0.332 OA
ATOM     12  C   UNL     1      20.752  36.928   8.226  1.00  0.00     0.145 C 
ATOM     13  C   UNL     1      20.461  37.009   9.745  1.00  0.00     0.142 C 
BRANCH   9  14
ATOM     14  O   UNL     1      19.223  34.384   6.948  1.00  0.00    -0.357 OA
ATOM     15  H   UNL     1      20.036  34.659   6.451  1.00  0.00     0.214 HD
ENDBRANCH   9  14
BRANCH   9  16
ATOM     16  C   UNL     1      17.543  35.253   8.281  1.00  0.00     0.364 C 
ATOM     17  O   UNL     1      16.824  36.224   7.976  1.00  0.00    -0.246 OA
BRANCH  16  18
ATOM     18  O   UNL     1      16.966  34.140   8.861  1.00  0.00    -0.477 OA
ATOM     19  H   UNL     1      16.401  33.526   8.288  1.00  0.00     0.296 HD
ENDBRANCH  16  18
ENDBRANCH   9  16
BRANCH  12  20
ATOM     20  O   UNL     1      21.741  36.019   7.946  1.00  0.00    -0.391 OA
ATOM     21  H   UNL     1      22.603  36.332   8.344  1.00  0.00     0.211 HD
ENDBRANCH  12  20
BRANCH  13  22
ATOM     22  N   UNL     1      19.665  38.186   9.886  1.00  0.00    -0.348 N 
ATOM     23  C   UNL     1      20.212  39.424  10.257  1.00  0.00     0.217 C 
ATOM     24  H   UNL     1      18.647  38.122   9.712  1.00  0.00     0.163 HD
ATOM     25  C   UNL     1      19.386  40.646  10.402  1.00  0.00     0.114 C 
ATOM     26  O   UNL     1      21.438  39.507  10.474  1.00  0.00    -0.275 OA
ENDBRANCH  13  22
ENDBRANCH   7   8
BRANCH   7  27
ATOM     27  O   UNL     1      21.749  34.489  10.550  1.00  0.00    -0.388 OA
ATOM     28  H   UNL     1      22.209  33.775  11.068  1.00  0.00     0.211 HD
ENDBRANCH   7  27
ENDBRANCH   6   7
BRANCH   6  29
ATOM     29  O   UNL     1      18.468  33.797  11.421  1.00  0.00    -0.388 OA
ATOM     30  H   UNL     1      18.101  32.906  11.303  1.00  0.00     0.211 HD
ENDBRANCH   6  29
ENDBRANCH   5   6
ENDBRANCH   1   5
BRANCH   2  31
ATOM     31  O   UNL     1      23.430  34.128  14.537  1.00  0.00    -0.443 OA
BRANCH  31  32
ATOM     32  C   UNL     1      24.613  34.038  13.803  1.00  0.00     0.294 C 
BRANCH  32  33
ATOM     33  C   UNL     1      24.613  34.856  12.565  1.00  0.00     0.121 A 
ATOM     34  C   UNL     1      25.550  34.720  11.537  1.00  0.00     0.146 A 
ATOM     35  N   UNL     1      23.808  35.829  12.155  1.00  0.00    -0.131 NA
ATOM     36  N   UNL     1      25.270  35.603  10.578  1.00  0.00    -0.202 N 
ATOM     37  N   UNL     1      24.210  36.272  10.963  1.00  0.00    -0.061 NA
BRANCH  36  38
ATOM     38  C   UNL     1      26.004  35.786   9.358  1.00  0.00     0.155 A 
ATOM     39  C   UNL     1      26.725  34.775   8.757  1.00  0.00     0.049 A 
ATOM     40  N   UNL     1      26.016  36.988   8.760  1.00  0.00    -0.237 NA
ATOM     41  C   UNL     1      27.437  34.946   7.599  1.00  0.00     0.011 A 
ATOM     42  C   UNL     1      26.698  37.204   7.625  1.00  0.00     0.119 A 
ATOM     43  C   UNL     1      27.429  36.194   7.008  1.00  0.00    -0.004 A 
BRANCH  43  44
ATOM     44  C   UNL     1      28.168  36.488   5.747  1.00  0.00     0.193 C 
BRANCH  44  45
ATOM     45  O   UNL     1      27.390  37.321   4.953  1.00  0.00    -0.392 OA
ATOM     46  H   UNL     1      26.473  37.384   5.326  1.00  0.00     0.211 HD
ENDBRANCH  44  45
ENDBRANCH  43  44
ENDBRANCH  36  38
ENDBRANCH  32  33
ENDBRANCH  31  32
ENDBRANCH   2  31
TORSDOF 17
BEGIN_RES LYS A 131
REMARK  4 active torsions:
REMARK  status: ('A' for Active; 'I' for Inactive)
REMARK    1  A    between atoms: CA   and  CB  
REMARK    2  A    between atoms: CB   and  CG  
REMARK    3  A    between atoms: CG   and  CD  
REMARK    4  A    between atoms: CD   and  CE  
ROOT
ATOM      1  CA  LYS A 131      29.867  25.555  16.977  1.00 20.52     0.186 C 
ENDROOT
BRANCH   1   2
ATOM      2  CB  LYS A 131      28.345  25.722  17.026  1.00 20.94     0.034 C 
BRANCH   2   3
ATOM      3  CG  LYS A 131      27.600  24.407  16.851  1.00 22.96     0.005 C 
BRANCH   3   4
ATOM      4  CD  LYS A 131      26.747  24.076  18.044  1.00 24.33     0.041 C 
BRANCH   4   5
ATOM      5  CE  LYS A 131      25.460  23.403  17.578  1.00 26.91     0.338 C 
ATOM      6  NZ  LYS A 131      24.608  24.367  16.842  1.00 27.40     0.618 N 
ENDBRANCH   4   5
ENDBRANCH   3   4
ENDBRANCH   2   3
ENDBRANCH   1   2
END_RES LYS A 131
BEGIN_RES LYS A 135
REMARK  4 active torsions:
REMARK  status: ('A' for Active; 'I' for Inactive)
REMARK    5  A    between atoms: CA   and  CB  
REMARK    6  A    between atoms: CB   and  CG  
REMARK    7  A    between atoms: CG   and  CD  
REMARK    8  A    between atoms: CD   and  CE  
ROOT
ATOM      7  CA  LYS A 135      33.193  34.663   9.290  1.00 25.02     0.186 C 
ENDROOT
BRANCH   7   8
ATOM      8  CB  LYS A 135      32.060  35.360  10.034  1.00 26.63     0.034 C 
BRANCH   8   9
ATOM      9  CG  LYS A 135      30.695  34.820   9.695  1.00 29.45     0.005 C 
BRANCH   9  10
ATOM     10  CD  LYS A 135      29.693  35.170  10.785  1.00 32.00     0.041 C 
BRANCH  10  11
ATOM     11  CE  LYS A 135      30.266  34.858  12.155  1.00 34.25     0.338 C 
ATOM     12  NZ  LYS A 135      29.186  34.527  13.125  1.00 35.99     0.618 N 
ENDBRANCH  10  11
ENDBRANCH   9  10
ENDBRANCH   8   9
ENDBRANCH   7   8
END_RES LYS A 135
