REMARK VINA RESULT:    -5.245      4.561      9.267
REMARK INTER + INTRA:         -16.371
REMARK INTER:                 -10.285
REMARK INTRA:                  -6.086
REMARK UNBOUND:                -6.527
REMARK SMILES CC(=O)N[C@@H]1[C@@H](O)C[C@](O)(C(=O)O)O[C@H]1C(O)[C@H](O)CNC(=O)OCc1cn(-c2ccc(S(=O)(=O)c3ccc(N)cc3)cc2)nn1
REMARK SMILES IDX 21 1 22 2 23 3 20 5 18 6 16 7 15 8 9 9 8 10 14 11 6 12 5 13
REMARK SMILES IDX 10 14 11 16 12 17 13 18 7 20 4 22 2 23 1 25 3 26 17 27 19 29
REMARK SMILES IDX 24 31 25 32 26 33 27 34 46 35 28 36 45 37 29 38 30 39 44 40
REMARK SMILES IDX 31 41 43 42 32 43 33 44 34 45 35 46 36 47 37 48 42 49 38 50
REMARK SMILES IDX 41 51 39 52 40 53
REMARK H PARENT 21 4 10 15 13 19 7 21 4 24 17 28 19 30 40 54 40 55
REMARK Flexibility Score: inf
ROOT
ATOM      1  N   UNL     1      31.483  33.360  16.929  1.00  0.00    -0.319 N 
ATOM      2  C   UNL     1      31.577  34.763  16.771  1.00  0.00     0.407 C 
ATOM      3  O   UNL     1      31.019  35.516  17.576  1.00  0.00    -0.225 OA
ATOM      4  H   UNL     1      31.999  32.789  16.189  1.00  0.00     0.167 HD
ENDROOT
BRANCH   1   5
ATOM      5  C   UNL     1      30.764  32.686  17.985  1.00  0.00     0.154 C 
BRANCH   5   6
ATOM      6  C   UNL     1      29.395  32.343  17.508  1.00  0.00     0.165 C 
BRANCH   6   7
ATOM      7  C   UNL     1      29.349  31.045  16.729  1.00  0.00     0.176 C 
BRANCH   7   8
ATOM      8  C   UNL     1      27.991  30.654  16.254  1.00  0.00     0.178 C 
ATOM      9  C   UNL     1      26.016  31.691  15.630  1.00  0.00     0.269 C 
ATOM     10  C   UNL     1      25.324  30.365  15.691  1.00  0.00     0.112 C 
ATOM     11  O   UNL     1      27.384  31.592  15.451  1.00  0.00    -0.332 OA
ATOM     12  C   UNL     1      25.971  29.367  16.583  1.00  0.00     0.145 C 
ATOM     13  C   UNL     1      27.107  30.082  17.335  1.00  0.00     0.142 C 
BRANCH   9  14
ATOM     14  O   UNL     1      25.695  32.492  16.750  1.00  0.00    -0.357 OA
ATOM     15  H   UNL     1      25.695  33.423  16.472  1.00  0.00     0.214 HD
ENDBRANCH   9  14
BRANCH   9  16
ATOM     16  C   UNL     1      25.475  32.425  14.448  1.00  0.00     0.364 C 
ATOM     17  O   UNL     1      24.614  31.845  13.716  1.00  0.00    -0.246 OA
BRANCH  16  18
ATOM     18  O   UNL     1      25.849  33.697  14.096  1.00  0.00    -0.477 OA
ATOM     19  H   UNL     1      25.159  34.362  13.753  1.00  0.00     0.296 HD
ENDBRANCH  16  18
ENDBRANCH   9  16
BRANCH  12  20
ATOM     20  O   UNL     1      25.097  28.765  17.475  1.00  0.00    -0.391 OA
ATOM     21  H   UNL     1      24.414  29.443  17.778  1.00  0.00     0.211 HD
ENDBRANCH  12  20
BRANCH  13  22
ATOM     22  N   UNL     1      27.881  29.076  18.052  1.00  0.00    -0.348 N 
ATOM     23  C   UNL     1      27.623  28.825  19.422  1.00  0.00     0.217 C 
ATOM     24  H   UNL     1      28.633  28.520  17.592  1.00  0.00     0.163 HD
ATOM     25  C   UNL     1      28.407  27.795  20.192  1.00  0.00     0.114 C 
ATOM     26  O   UNL     1      26.744  29.435  20.067  1.00  0.00    -0.275 OA
ENDBRANCH  13  22
ENDBRANCH   7   8
BRANCH   7  27
ATOM     27  O   UNL     1      30.252  31.209  15.671  1.00  0.00    -0.388 OA
ATOM     28  H   UNL     1      29.784  31.674  14.946  1.00  0.00     0.211 HD
ENDBRANCH   7  27
ENDBRANCH   6   7
BRANCH   6  29
ATOM     29  O   UNL     1      28.819  33.407  16.829  1.00  0.00    -0.388 OA
ATOM     30  H   UNL     1      28.585  33.107  15.915  1.00  0.00     0.211 HD
ENDBRANCH   6  29
ENDBRANCH   5   6
ENDBRANCH   1   5
BRANCH   2  31
ATOM     31  O   UNL     1      32.282  35.359  15.730  1.00  0.00    -0.443 OA
BRANCH  31  32
ATOM     32  C   UNL     1      32.267  34.831  14.412  1.00  0.00     0.294 C 
BRANCH  32  33
ATOM     33  C   UNL     1      30.877  34.640  13.908  1.00  0.00     0.121 A 
ATOM     34  C   UNL     1      30.296  35.416  12.942  1.00  0.00     0.144 A 
ATOM     35  N   UNL     1      29.972  33.723  14.279  1.00  0.00    -0.131 NA
ATOM     36  N   UNL     1      29.040  34.952  12.743  1.00  0.00    -0.220 N 
ATOM     37  N   UNL     1      28.891  33.946  13.559  1.00  0.00    -0.062 NA
BRANCH  36  38
ATOM     38  C   UNL     1      28.140  35.521  11.806  1.00  0.00     0.066 A 
ATOM     39  C   UNL     1      27.544  34.729  10.848  1.00  0.00     0.030 A 
ATOM     40  C   UNL     1      27.823  36.861  11.806  1.00  0.00     0.030 A 
ATOM     41  C   UNL     1      26.659  35.242   9.915  1.00  0.00     0.023 A 
ATOM     42  C   UNL     1      26.930  37.390  10.868  1.00  0.00     0.023 A 
ATOM     43  C   UNL     1      26.350  36.580   9.923  1.00  0.00     0.072 A 
BRANCH  43  44
ATOM     44  S   UNL     1      25.245  37.220   8.758  1.00  0.00     0.206 S 
ATOM     45  O   UNL     1      25.720  36.907   7.380  1.00  0.00    -0.219 OA
ATOM     46  O   UNL     1      25.090  38.708   8.866  1.00  0.00    -0.219 OA
BRANCH  44  47
ATOM     47  C   UNL     1      23.667  36.504   9.069  1.00  0.00     0.072 A 
ATOM     48  C   UNL     1      22.721  36.536   8.079  1.00  0.00     0.023 A 
ATOM     49  C   UNL     1      23.366  35.909  10.290  1.00  0.00     0.023 A 
ATOM     50  C   UNL     1      21.462  35.982   8.280  1.00  0.00     0.027 A 
ATOM     51  C   UNL     1      22.121  35.348  10.525  1.00  0.00     0.027 A 
ATOM     52  C   UNL     1      21.199  35.401   9.506  1.00  0.00     0.031 A 
BRANCH  52  53
ATOM     53  N   UNL     1      19.923  34.835   9.724  1.00  0.00    -0.399 N 
ATOM     54  H   UNL     1      19.828  33.834   9.961  1.00  0.00     0.156 HD
ATOM     55  H   UNL     1      19.081  35.432   9.643  1.00  0.00     0.156 HD
ENDBRANCH  52  53
ENDBRANCH  44  47
ENDBRANCH  43  44
ENDBRANCH  36  38
ENDBRANCH  32  33
ENDBRANCH  31  32
ENDBRANCH   2  31
TORSDOF 18
BEGIN_RES LYS A 131
REMARK  4 active torsions:
REMARK  status: ('A' for Active; 'I' for Inactive)
REMARK    1  A    between atoms: CA   and  CB  
REMARK    2  A    between atoms: CB   and  CG  
REMARK    3  A    between atoms: CG   and  CD  
REMARK    4  A    between atoms: CD   and  CE  
ROOT
ATOM      1  CA  LYS A 131      29.867  25.555  16.977  1.00 20.52     0.186 C 
ENDROOT
BRANCH   1   2
ATOM      2  CB  LYS A 131      28.345  25.722  17.026  1.00 20.94     0.034 C 
BRANCH   2   3
ATOM      3  CG  LYS A 131      27.601  24.401  16.900  1.00 22.96     0.005 C 
BRANCH   3   4
ATOM      4  CD  LYS A 131      26.143  24.538  17.241  1.00 24.33     0.041 C 
BRANCH   4   5
ATOM      5  CE  LYS A 131      25.966  25.627  18.294  1.00 26.91     0.338 C 
ATOM      6  NZ  LYS A 131      25.649  25.027  19.612  1.00 27.40     0.618 N 
ENDBRANCH   4   5
ENDBRANCH   3   4
ENDBRANCH   2   3
ENDBRANCH   1   2
END_RES LYS A 131
BEGIN_RES LYS A 135
REMARK  4 active torsions:
REMARK  status: ('A' for Active; 'I' for Inactive)
REMARK    5  A    between atoms: CA   and  CB  
REMARK    6  A    between atoms: CB   and  CG  
REMARK    7  A    between atoms: CG   and  CD  
REMARK    8  A    between atoms: CD   and  CE  
ROOT
ATOM      7  CA  LYS A 135      33.193  34.663   9.290  1.00 25.02     0.186 C 
ENDROOT
BRANCH   7   8
ATOM      8  CB  LYS A 135      32.060  35.360  10.034  1.00 26.63     0.034 C 
BRANCH   8   9
ATOM      9  CG  LYS A 135      30.749  35.339   9.291  1.00 29.45     0.005 C 
BRANCH   9  10
ATOM     10  CD  LYS A 135      30.308  36.752   8.941  1.00 32.00     0.041 C 
BRANCH  10  11
ATOM     11  CE  LYS A 135      29.277  36.728   7.829  1.00 34.25     0.338 C 
ATOM     12  NZ  LYS A 135      29.143  35.362   7.251  1.00 35.99     0.618 N 
ENDBRANCH  10  11
ENDBRANCH   9  10
ENDBRANCH   8   9
ENDBRANCH   7   8
END_RES LYS A 135
