REMARK VINA RESULT:    -7.770      4.717      7.380
REMARK INTER + INTRA:         -13.141
REMARK INTER:                  -7.204
REMARK INTRA:                  -5.937
REMARK UNBOUND:                 3.032
REMARK SMILES CC(=O)N[C@@H]1[C@@H](O)C[C@](O)(C(=O)O)O[C@H]1C(O)[C@H](O)CNC(=O)OCc1cn(C2CC(O)C=C[C@@H](O)C2)nn1
REMARK SMILES IDX 21 1 22 2 23 3 20 5 18 6 16 7 15 8 9 9 8 10 14 11 6 12 5 13
REMARK SMILES IDX 10 14 11 16 12 17 13 18 7 20 4 22 2 23 1 25 3 26 17 27 19 29
REMARK SMILES IDX 24 31 25 32 26 33 27 34 39 35 28 36 38 37 29 38 30 39 31 40
REMARK SMILES IDX 32 42 37 44 35 45 34 46 33 47 36 49
REMARK H PARENT 21 4 10 15 13 19 7 21 4 24 17 28 19 30 32 43 36 50
REMARK Flexibility Score: 90.00
ROOT
ATOM      1  N   UNL     1      28.499  26.995  22.467  1.00  0.00    -0.319 N 
ATOM      2  C   UNL     1      27.788  28.122  22.977  1.00  0.00     0.407 C 
ATOM      3  O   UNL     1      28.358  29.076  23.569  1.00  0.00    -0.225 OA
ATOM      4  H   UNL     1      28.001  26.218  21.982  1.00  0.00     0.167 HD
ENDROOT
BRANCH   1   5
ATOM      5  C   UNL     1      29.948  27.005  22.670  1.00  0.00     0.154 C 
BRANCH   5   6
ATOM      6  C   UNL     1      30.576  26.831  21.300  1.00  0.00     0.165 C 
BRANCH   6   7
ATOM      7  C   UNL     1      31.585  27.911  20.981  1.00  0.00     0.176 C 
BRANCH   7   8
ATOM      8  C   UNL     1      31.000  29.286  21.080  1.00  0.00     0.178 C 
ATOM      9  C   UNL     1      30.005  31.049  20.033  1.00  0.00     0.269 C 
ATOM     10  C   UNL     1      29.916  31.512  21.471  1.00  0.00     0.112 C 
ATOM     11  O   UNL     1      30.387  29.717  19.934  1.00  0.00    -0.332 OA
ATOM     12  C   UNL     1      31.253  31.415  22.178  1.00  0.00     0.145 C 
ATOM     13  C   UNL     1      32.022  30.322  21.493  1.00  0.00     0.142 C 
BRANCH   9  14
ATOM     14  O   UNL     1      30.824  31.885  19.281  1.00  0.00    -0.357 OA
ATOM     15  H   UNL     1      31.534  31.380  18.804  1.00  0.00     0.214 HD
ENDBRANCH   9  14
BRANCH   9  16
ATOM     16  C   UNL     1      28.635  31.141  19.474  1.00  0.00     0.364 C 
ATOM     17  O   UNL     1      28.388  31.702  18.372  1.00  0.00    -0.246 OA
BRANCH  16  18
ATOM     18  O   UNL     1      27.583  30.595  20.176  1.00  0.00    -0.477 OA
ATOM     19  H   UNL     1      26.740  31.099  20.433  1.00  0.00     0.296 HD
ENDBRANCH  16  18
ENDBRANCH   9  16
BRANCH  12  20
ATOM     20  O   UNL     1      31.853  32.651  22.106  1.00  0.00    -0.391 OA
ATOM     21  H   UNL     1      31.812  33.056  23.027  1.00  0.00     0.211 HD
ENDBRANCH  12  20
BRANCH  13  22
ATOM     22  N   UNL     1      33.110  29.791  22.227  1.00  0.00    -0.348 N 
ATOM     23  C   UNL     1      34.401  30.373  22.332  1.00  0.00     0.217 C 
ATOM     24  H   UNL     1      32.965  28.895  22.739  1.00  0.00     0.163 HD
ATOM     25  C   UNL     1      35.486  29.731  23.134  1.00  0.00     0.114 C 
ATOM     26  O   UNL     1      34.600  31.446  21.728  1.00  0.00    -0.275 OA
ENDBRANCH  13  22
ENDBRANCH   7   8
BRANCH   7  27
ATOM     27  O   UNL     1      32.255  27.657  19.809  1.00  0.00    -0.388 OA
ATOM     28  H   UNL     1      32.723  28.475  19.531  1.00  0.00     0.211 HD
ENDBRANCH   7  27
ENDBRANCH   6   7
BRANCH   6  29
ATOM     29  O   UNL     1      29.571  26.952  20.311  1.00  0.00    -0.388 OA
ATOM     30  H   UNL     1      29.405  26.075  19.864  1.00  0.00     0.211 HD
ENDBRANCH   6  29
ENDBRANCH   5   6
ENDBRANCH   1   5
BRANCH   2  31
ATOM     31  O   UNL     1      26.425  28.187  22.826  1.00  0.00    -0.443 OA
BRANCH  31  32
ATOM     32  C   UNL     1      25.667  27.293  22.030  1.00  0.00     0.294 C 
BRANCH  32  33
ATOM     33  C   UNL     1      25.645  27.803  20.640  1.00  0.00     0.120 A 
ATOM     34  C   UNL     1      24.657  28.500  19.982  1.00  0.00     0.138 A 
ATOM     35  N   UNL     1      26.654  27.650  19.760  1.00  0.00    -0.132 NA
ATOM     36  N   UNL     1      25.081  28.753  18.729  1.00  0.00    -0.249 N 
ATOM     37  N   UNL     1      26.301  28.219  18.637  1.00  0.00    -0.067 NA
BRANCH  36  38
ATOM     38  C   UNL     1      24.339  29.472  17.693  1.00  0.00     0.115 C 
BRANCH  38  39
ATOM     39  C   UNL     1      24.012  28.497  16.612  1.00  0.00     0.063 C 
BRANCH  39  40
ATOM     40  C   UNL     1      23.157  29.036  15.520  1.00  0.00     0.139 CG0
ATOM     41  G   UNL     1      23.892  29.869  14.553  1.00  0.00     0.000 G0
BRANCH  40  42
ATOM     42  O   UNL     1      22.394  28.031  14.886  1.00  0.00    -0.389 OA
ATOM     43  H   UNL     1      22.942  27.618  14.186  1.00  0.00     0.211 HD
ENDBRANCH  40  42
ENDBRANCH  39  40
ENDBRANCH  38  39
BRANCH  38  44
ATOM     44  C   UNL     1      25.175  30.624  17.253  1.00  0.00     0.063 C 
BRANCH  44  45
ATOM     45  C   UNL     1      25.934  30.393  15.981  1.00  0.00     0.139 C 
BRANCH  45  46
ATOM     46  C   UNL     1      25.089  30.440  14.768  1.00  0.00     0.002 C 
ATOM     47  C   UNL     1      23.921  29.871  14.568  1.00  0.00     0.002 CG0
ATOM     48  G   UNL     1      23.130  29.034  15.484  1.00  0.00     0.000 G0
ENDBRANCH  45  46
BRANCH  45  49
ATOM     49  O   UNL     1      27.041  31.231  15.859  1.00  0.00    -0.389 OA
ATOM     50  H   UNL     1      27.584  31.003  15.063  1.00  0.00     0.211 HD
ENDBRANCH  45  49
ENDBRANCH  44  45
ENDBRANCH  38  44
ENDBRANCH  36  38
ENDBRANCH  32  33
ENDBRANCH  31  32
ENDBRANCH   2  31
TORSDOF 17
BEGIN_RES LYS A 131
REMARK  4 active torsions:
REMARK  status: ('A' for Active; 'I' for Inactive)
REMARK    1  A    between atoms: CA   and  CB  
REMARK    2  A    between atoms: CB   and  CG  
REMARK    3  A    between atoms: CG   and  CD  
REMARK    4  A    between atoms: CD   and  CE  
ROOT
ATOM      1  CA  LYS A 131      29.867  25.555  16.977  1.00 20.52     0.186 C 
ENDROOT
BRANCH   1   2
ATOM      2  CB  LYS A 131      28.345  25.722  17.026  1.00 20.94     0.034 C 
BRANCH   2   3
ATOM      3  CG  LYS A 131      27.602  24.398  16.935  1.00 22.96     0.005 C 
BRANCH   3   4
ATOM      4  CD  LYS A 131      26.514  24.287  17.966  1.00 24.33     0.041 C 
BRANCH   4   5
ATOM      5  CE  LYS A 131      25.644  23.072  17.659  1.00 26.91     0.338 C 
ATOM      6  NZ  LYS A 131      24.224  23.357  17.976  1.00 27.40     0.618 N 
ENDBRANCH   4   5
ENDBRANCH   3   4
ENDBRANCH   2   3
ENDBRANCH   1   2
END_RES LYS A 131
BEGIN_RES LYS A 135
REMARK  4 active torsions:
REMARK  status: ('A' for Active; 'I' for Inactive)
REMARK    5  A    between atoms: CA   and  CB  
REMARK    6  A    between atoms: CB   and  CG  
REMARK    7  A    between atoms: CG   and  CD  
REMARK    8  A    between atoms: CD   and  CE  
ROOT
ATOM      7  CA  LYS A 135      33.193  34.663   9.290  1.00 25.02     0.186 C 
ENDROOT
BRANCH   7   8
ATOM      8  CB  LYS A 135      32.060  35.360  10.034  1.00 26.63     0.034 C 
BRANCH   8   9
ATOM      9  CG  LYS A 135      30.800  35.500   9.219  1.00 29.45     0.005 C 
BRANCH   9  10
ATOM     10  CD  LYS A 135      30.242  34.133   8.855  1.00 32.00     0.041 C 
BRANCH  10  11
ATOM     11  CE  LYS A 135      28.743  34.210   8.640  1.00 34.25     0.338 C 
ATOM     12  NZ  LYS A 135      28.123  35.220   9.541  1.00 35.99     0.618 N 
ENDBRANCH  10  11
ENDBRANCH   9  10
ENDBRANCH   8   9
ENDBRANCH   7   8
END_RES LYS A 135
