REMARK VINA RESULT:    -4.812      1.775      2.548
REMARK INTER + INTRA:         -14.114
REMARK INTER:                  -7.845
REMARK INTRA:                  -6.269
REMARK UNBOUND:                -5.786
REMARK SMILES CC(=O)N[C@@H]1[C@@H](O)C[C@](O)(C(=O)O)O[C@H]1C(O)[C@H](O)CNC(=O)OCc1cn(C2CCN(C)CC2)nn1
REMARK SMILES IDX 20 1 18 2 16 3 15 4 9 5 8 6 14 7 6 8 5 9 10 10 11 12 12 13
REMARK SMILES IDX 13 14 7 16 4 18 2 19 1 21 3 22 17 23 19 25 21 27 22 28 23 30
REMARK SMILES IDX 24 31 25 32 26 33 27 34 37 35 28 36 36 37 29 38 30 39 35 40
REMARK SMILES IDX 31 41 34 42 32 43 33 44
REMARK H PARENT 10 11 13 15 7 17 4 20 17 24 19 26 21 29
REMARK Flexibility Score: inf
ROOT
ATOM      1  C   UNL     1      26.096  27.220  20.156  1.00  0.00     0.154 C 
ENDROOT
BRANCH   1   2
ATOM      2  C   UNL     1      27.037  27.447  21.292  1.00  0.00     0.165 C 
BRANCH   2   3
ATOM      3  C   UNL     1      28.488  27.416  20.860  1.00  0.00     0.176 C 
BRANCH   3   4
ATOM      4  C   UNL     1      29.039  28.825  20.826  1.00  0.00     0.178 C 
ATOM      5  C   UNL     1      29.838  30.506  19.415  1.00  0.00     0.269 C 
ATOM      6  C   UNL     1      30.987  30.770  20.340  1.00  0.00     0.112 C 
ATOM      7  O   UNL     1      29.213  29.304  19.566  1.00  0.00    -0.332 OA
ATOM      8  C   UNL     1      30.666  30.356  21.751  1.00  0.00     0.145 C 
ATOM      9  C   UNL     1      30.254  28.887  21.696  1.00  0.00     0.142 C 
BRANCH   5  10
ATOM     10  O   UNL     1      30.318  30.665  18.085  1.00  0.00    -0.357 OA
ATOM     11  H   UNL     1      31.072  31.303  18.053  1.00  0.00     0.214 HD
ENDBRANCH   5  10
BRANCH   5  12
ATOM     12  C   UNL     1      28.819  31.565  19.629  1.00  0.00     0.364 C 
ATOM     13  O   UNL     1      29.175  32.765  19.731  1.00  0.00    -0.246 OA
BRANCH  12  14
ATOM     14  O   UNL     1      27.456  31.330  19.728  1.00  0.00    -0.477 OA
ATOM     15  H   UNL     1      27.072  30.421  19.987  1.00  0.00     0.296 HD
ENDBRANCH  12  14
ENDBRANCH   5  12
BRANCH   8  16
ATOM     16  O   UNL     1      31.773  30.495  22.593  1.00  0.00    -0.391 OA
ATOM     17  H   UNL     1      32.583  30.084  22.220  1.00  0.00     0.211 HD
ENDBRANCH   8  16
BRANCH   9  18
ATOM     18  N   UNL     1      29.894  28.552  23.080  1.00  0.00    -0.348 N 
ATOM     19  C   UNL     1      30.738  27.789  23.912  1.00  0.00     0.217 C 
ATOM     20  H   UNL     1      28.989  28.904  23.418  1.00  0.00     0.163 HD
ATOM     21  C   UNL     1      30.354  27.455  25.328  1.00  0.00     0.114 C 
ATOM     22  O   UNL     1      31.834  27.386  23.444  1.00  0.00    -0.275 OA
ENDBRANCH   9  18
ENDBRANCH   3   4
BRANCH   3  23
ATOM     23  O   UNL     1      28.575  26.781  19.643  1.00  0.00    -0.388 OA
ATOM     24  H   UNL     1      27.762  26.947  19.101  1.00  0.00     0.211 HD
ENDBRANCH   3  23
ENDBRANCH   2   3
BRANCH   2  25
ATOM     25  O   UNL     1      26.851  26.405  22.230  1.00  0.00    -0.388 OA
ATOM     26  H   UNL     1      26.877  26.758  23.158  1.00  0.00     0.211 HD
ENDBRANCH   2  25
ENDBRANCH   1   2
BRANCH   1  27
ATOM     27  N   UNL     1      25.890  28.475  19.466  1.00  0.00    -0.319 N 
ATOM     28  C   UNL     1      26.211  28.703  18.101  1.00  0.00     0.407 C 
ATOM     29  H   UNL     1      25.474  29.322  19.959  1.00  0.00     0.167 HD
ATOM     30  O   UNL     1      26.700  27.781  17.431  1.00  0.00    -0.225 OA
BRANCH  28  31
ATOM     31  O   UNL     1      25.996  29.928  17.482  1.00  0.00    -0.443 OA
BRANCH  31  32
ATOM     32  C   UNL     1      26.303  30.106  16.114  1.00  0.00     0.294 C 
BRANCH  32  33
ATOM     33  C   UNL     1      27.521  30.941  15.952  1.00  0.00     0.120 A 
ATOM     34  C   UNL     1      27.667  32.281  16.170  1.00  0.00     0.138 A 
ATOM     35  N   UNL     1      28.729  30.503  15.548  1.00  0.00    -0.132 NA
ATOM     36  N   UNL     1      28.935  32.633  15.901  1.00  0.00    -0.249 N 
ATOM     37  N   UNL     1      29.558  31.514  15.522  1.00  0.00    -0.067 NA
BRANCH  36  38
ATOM     38  C   UNL     1      29.491  33.963  16.008  1.00  0.00     0.111 C 
ATOM     39  C   UNL     1      29.390  34.713  14.699  1.00  0.00     0.043 C 
ATOM     40  C   UNL     1      30.891  33.932  16.545  1.00  0.00     0.043 C 
ATOM     41  C   UNL     1      30.528  34.392  13.759  1.00  0.00     0.086 C 
ATOM     42  C   UNL     1      31.927  33.568  15.527  1.00  0.00     0.086 C 
ATOM     43  N   UNL     1      31.809  34.440  14.398  1.00  0.00    -0.306 NA
ATOM     44  C   UNL     1      32.212  35.768  14.763  1.00  0.00     0.105 C 
ENDBRANCH  36  38
ENDBRANCH  32  33
ENDBRANCH  31  32
ENDBRANCH  28  31
ENDBRANCH   1  27
TORSDOF 15
BEGIN_RES LYS A 131
REMARK  4 active torsions:
REMARK  status: ('A' for Active; 'I' for Inactive)
REMARK    1  A    between atoms: CA   and  CB  
REMARK    2  A    between atoms: CB   and  CG  
REMARK    3  A    between atoms: CG   and  CD  
REMARK    4  A    between atoms: CD   and  CE  
ROOT
ATOM      1  CA  LYS A 131      29.867  25.555  16.977  1.00 20.52     0.186 C 
ENDROOT
BRANCH   1   2
ATOM      2  CB  LYS A 131      28.345  25.722  17.026  1.00 20.94     0.034 C 
BRANCH   2   3
ATOM      3  CG  LYS A 131      27.601  24.403  16.888  1.00 22.96     0.005 C 
BRANCH   3   4
ATOM      4  CD  LYS A 131      26.547  24.233  17.947  1.00 24.33     0.041 C 
BRANCH   4   5
ATOM      5  CE  LYS A 131      25.249  23.760  17.301  1.00 26.91     0.338 C 
ATOM      6  NZ  LYS A 131      24.145  24.702  17.602  1.00 27.40     0.618 N 
ENDBRANCH   4   5
ENDBRANCH   3   4
ENDBRANCH   2   3
ENDBRANCH   1   2
END_RES LYS A 131
BEGIN_RES LYS A 135
REMARK  4 active torsions:
REMARK  status: ('A' for Active; 'I' for Inactive)
REMARK    5  A    between atoms: CA   and  CB  
REMARK    6  A    between atoms: CB   and  CG  
REMARK    7  A    between atoms: CG   and  CD  
REMARK    8  A    between atoms: CD   and  CE  
ROOT
ATOM      7  CA  LYS A 135      33.193  34.663   9.290  1.00 25.02     0.186 C 
ENDROOT
BRANCH   7   8
ATOM      8  CB  LYS A 135      32.060  35.360  10.034  1.00 26.63     0.034 C 
BRANCH   8   9
ATOM      9  CG  LYS A 135      30.803  35.508   9.216  1.00 29.45     0.005 C 
BRANCH   9  10
ATOM     10  CD  LYS A 135      30.155  34.153   8.978  1.00 32.00     0.041 C 
BRANCH  10  11
ATOM     11  CE  LYS A 135      28.700  34.320   8.584  1.00 34.25     0.338 C 
ATOM     12  NZ  LYS A 135      27.797  33.680   9.579  1.00 35.99     0.618 N 
ENDBRANCH  10  11
ENDBRANCH   9  10
ENDBRANCH   8   9
ENDBRANCH   7   8
END_RES LYS A 135
