REMARK VINA RESULT:    -5.019      2.955      7.541
REMARK INTER + INTRA:         -13.968
REMARK INTER:                  -7.690
REMARK INTRA:                  -6.278
REMARK UNBOUND:                -5.134
REMARK SMILES CC(=O)N[C@@H]1[C@@H](O)C[C@](O)(C(=O)O)O[C@H]1C(O)[C@H](O)CNC(=O)OCc1cn(-c2nc(C)nc(N)n2)nn1
REMARK SMILES IDX 21 1 22 2 23 3 20 5 18 6 16 7 15 8 9 9 8 10 14 11 6 12 5 13
REMARK SMILES IDX 10 14 11 16 12 17 13 18 7 20 4 22 2 23 1 25 3 26 17 27 19 29
REMARK SMILES IDX 24 31 25 32 26 33 27 34 38 35 28 36 37 37 29 38 36 39 30 40
REMARK SMILES IDX 34 41 31 42 33 43 32 44 35 45
REMARK H PARENT 21 4 10 15 13 19 7 21 4 24 17 28 19 30 35 46 35 47
REMARK Flexibility Score: inf
ROOT
ATOM      1  N   UNL     1      25.965  33.903  16.603  1.00  0.00    -0.319 N 
ATOM      2  C   UNL     1      24.764  33.169  16.666  1.00  0.00     0.407 C 
ATOM      3  O   UNL     1      23.736  33.447  16.009  1.00  0.00    -0.225 OA
ATOM      4  H   UNL     1      26.822  33.634  17.173  1.00  0.00     0.167 HD
ENDROOT
BRANCH   1   5
ATOM      5  C   UNL     1      26.052  35.063  15.742  1.00  0.00     0.154 C 
BRANCH   5   6
ATOM      6  C   UNL     1      26.817  34.694  14.510  1.00  0.00     0.165 C 
BRANCH   6   7
ATOM      7  C   UNL     1      28.244  35.191  14.610  1.00  0.00     0.176 C 
BRANCH   7   8
ATOM      8  C   UNL     1      29.168  34.005  14.381  1.00  0.00     0.178 C 
ATOM      9  C   UNL     1      29.377  32.593  16.255  1.00  0.00     0.269 C 
ATOM     10  C   UNL     1      30.710  33.178  16.597  1.00  0.00     0.112 C 
ATOM     11  O   UNL     1      28.765  32.991  15.144  1.00  0.00    -0.332 OA
ATOM     12  C   UNL     1      31.436  33.456  15.287  1.00  0.00     0.145 C 
ATOM     13  C   UNL     1      30.567  34.513  14.609  1.00  0.00     0.142 C 
BRANCH   9  14
ATOM     14  O   UNL     1      28.531  32.881  17.353  1.00  0.00    -0.357 OA
ATOM     15  H   UNL     1      28.389  32.085  17.916  1.00  0.00     0.214 HD
ENDBRANCH   9  14
BRANCH   9  16
ATOM     16  C   UNL     1      29.537  31.117  16.233  1.00  0.00     0.364 C 
ATOM     17  O   UNL     1      28.824  30.405  15.481  1.00  0.00    -0.246 OA
BRANCH  16  18
ATOM     18  O   UNL     1      30.464  30.464  17.028  1.00  0.00    -0.477 OA
ATOM     19  H   UNL     1      31.468  30.489  16.839  1.00  0.00     0.296 HD
ENDBRANCH  16  18
ENDBRANCH   9  16
BRANCH  12  20
ATOM     20  O   UNL     1      32.688  33.998  15.499  1.00  0.00    -0.391 OA
ATOM     21  H   UNL     1      32.557  34.867  15.976  1.00  0.00     0.211 HD
ENDBRANCH  12  20
BRANCH  13  22
ATOM     22  N   UNL     1      31.168  34.963  13.373  1.00  0.00    -0.348 N 
ATOM     23  C   UNL     1      31.692  36.275  13.247  1.00  0.00     0.217 C 
ATOM     24  H   UNL     1      31.190  34.266  12.593  1.00  0.00     0.163 HD
ATOM     25  C   UNL     1      32.294  36.672  11.955  1.00  0.00     0.114 C 
ATOM     26  O   UNL     1      31.660  37.098  14.188  1.00  0.00    -0.275 OA
ENDBRANCH  13  22
ENDBRANCH   7   8
BRANCH   7  27
ATOM     27  O   UNL     1      28.451  35.683  15.927  1.00  0.00    -0.388 OA
ATOM     28  H   UNL     1      27.825  36.459  15.993  1.00  0.00     0.211 HD
ENDBRANCH   7  27
ENDBRANCH   6   7
BRANCH   6  29
ATOM     29  O   UNL     1      26.170  35.240  13.391  1.00  0.00    -0.388 OA
ATOM     30  H   UNL     1      26.736  35.197  12.601  1.00  0.00     0.211 HD
ENDBRANCH   6  29
ENDBRANCH   5   6
ENDBRANCH   1   5
BRANCH   2  31
ATOM     31  O   UNL     1      24.705  32.052  17.517  1.00  0.00    -0.443 OA
BRANCH  31  32
ATOM     32  C   UNL     1      24.582  30.781  16.917  1.00  0.00     0.294 C 
BRANCH  32  33
ATOM     33  C   UNL     1      25.716  29.919  17.386  1.00  0.00     0.121 A 
ATOM     34  C   UNL     1      26.578  30.164  18.437  1.00  0.00     0.148 A 
ATOM     35  N   UNL     1      26.127  28.732  16.881  1.00  0.00    -0.131 NA
ATOM     36  N   UNL     1      27.466  29.155  18.547  1.00  0.00    -0.185 N 
ATOM     37  N   UNL     1      27.166  28.305  17.591  1.00  0.00    -0.059 NA
BRANCH  36  38
ATOM     38  C   UNL     1      28.516  29.044  19.514  1.00  0.00     0.257 A 
ATOM     39  N   UNL     1      28.717  27.914  20.216  1.00  0.00    -0.175 NA
ATOM     40  N   UNL     1      29.345  30.079  19.755  1.00  0.00    -0.196 NA
ATOM     41  C   UNL     1      29.689  27.770  21.131  1.00  0.00     0.225 A 
ATOM     42  C   UNL     1      30.347  29.995  20.668  1.00  0.00     0.133 A 
ATOM     43  N   UNL     1      30.497  28.847  21.334  1.00  0.00    -0.198 NA
ATOM     44  C   UNL     1      31.268  31.130  20.942  1.00  0.00     0.090 C 
BRANCH  41  45
ATOM     45  N   UNL     1      29.903  26.587  21.868  1.00  0.00    -0.368 N 
ATOM     46  H   UNL     1      29.956  25.681  21.385  1.00  0.00     0.159 HD
ATOM     47  H   UNL     1      30.004  26.634  22.892  1.00  0.00     0.159 HD
ENDBRANCH  41  45
ENDBRANCH  36  38
ENDBRANCH  32  33
ENDBRANCH  31  32
ENDBRANCH   2  31
TORSDOF 16
BEGIN_RES LYS A 131
REMARK  4 active torsions:
REMARK  status: ('A' for Active; 'I' for Inactive)
REMARK    1  A    between atoms: CA   and  CB  
REMARK    2  A    between atoms: CB   and  CG  
REMARK    3  A    between atoms: CG   and  CD  
REMARK    4  A    between atoms: CD   and  CE  
ROOT
ATOM      1  CA  LYS A 131      29.867  25.555  16.977  1.00 20.52     0.186 C 
ENDROOT
BRANCH   1   2
ATOM      2  CB  LYS A 131      28.345  25.722  17.026  1.00 20.94     0.034 C 
BRANCH   2   3
ATOM      3  CG  LYS A 131      27.600  24.410  16.830  1.00 22.96     0.005 C 
BRANCH   3   4
ATOM      4  CD  LYS A 131      26.823  24.012  18.054  1.00 24.33     0.041 C 
BRANCH   4   5
ATOM      5  CE  LYS A 131      25.718  25.033  18.310  1.00 26.91     0.338 C 
ATOM      6  NZ  LYS A 131      25.870  25.636  19.655  1.00 27.40     0.618 N 
ENDBRANCH   4   5
ENDBRANCH   3   4
ENDBRANCH   2   3
ENDBRANCH   1   2
END_RES LYS A 131
BEGIN_RES LYS A 135
REMARK  4 active torsions:
REMARK  status: ('A' for Active; 'I' for Inactive)
REMARK    5  A    between atoms: CA   and  CB  
REMARK    6  A    between atoms: CB   and  CG  
REMARK    7  A    between atoms: CG   and  CD  
REMARK    8  A    between atoms: CD   and  CE  
ROOT
ATOM      7  CA  LYS A 135      33.193  34.663   9.290  1.00 25.02     0.186 C 
ENDROOT
BRANCH   7   8
ATOM      8  CB  LYS A 135      32.060  35.360  10.034  1.00 26.63     0.034 C 
BRANCH   8   9
ATOM      9  CG  LYS A 135      30.767  35.399   9.262  1.00 29.45     0.005 C 
BRANCH   9  10
ATOM     10  CD  LYS A 135      30.063  34.053   9.325  1.00 32.00     0.041 C 
BRANCH  10  11
ATOM     11  CE  LYS A 135      28.625  34.181   8.859  1.00 34.25     0.338 C 
ATOM     12  NZ  LYS A 135      28.491  35.234   7.815  1.00 35.99     0.618 N 
ENDBRANCH  10  11
ENDBRANCH   9  10
ENDBRANCH   8   9
ENDBRANCH   7   8
END_RES LYS A 135
