REMARK VINA RESULT:    -4.400      0.000      0.000
REMARK INTER + INTRA:         -14.914
REMARK INTER:                  -9.433
REMARK INTRA:                  -5.481
REMARK UNBOUND:                -7.042
REMARK SMILES CC(=O)N[C@@H]1[C@@H](O)C[C@](O)(C(=O)O)O[C@H]1C(O)[C@H](O)CNC(=O)OCc1cn(-c2ncccc2C#N)nn1
REMARK SMILES IDX 21 1 22 2 23 3 20 5 18 6 16 7 15 8 9 9 8 10 14 11 6 12 5 13
REMARK SMILES IDX 10 14 11 16 12 17 13 18 7 20 4 22 2 23 1 25 3 26 17 27 19 29
REMARK SMILES IDX 24 31 25 32 26 33 27 34 38 35 28 36 37 37 29 38 30 39 34 40
REMARK SMILES IDX 31 41 33 42 32 43 35 44 36 45
REMARK H PARENT 21 4 10 15 13 19 7 21 4 24 17 28 19 30
REMARK Flexibility Score: inf
ROOT
ATOM      1  N   UNL     1      23.676  36.413  10.318  1.00  0.00    -0.319 N 
ATOM      2  C   UNL     1      23.560  36.766  11.705  1.00  0.00     0.407 C 
ATOM      3  O   UNL     1      23.116  37.863  12.059  1.00  0.00    -0.225 OA
ATOM      4  H   UNL     1      24.056  35.419  10.174  1.00  0.00     0.167 HD
ENDROOT
BRANCH   1   5
ATOM      5  C   UNL     1      23.303  37.218   9.255  1.00  0.00     0.154 C 
BRANCH   5   6
ATOM      6  C   UNL     1      24.148  37.150   7.958  1.00  0.00     0.165 C 
BRANCH   6   7
ATOM      7  C   UNL     1      25.518  36.860   8.437  1.00  0.00     0.176 C 
BRANCH   7   8
ATOM      8  C   UNL     1      26.535  36.329   7.492  1.00  0.00     0.178 C 
ATOM      9  C   UNL     1      28.551  35.486   8.362  1.00  0.00     0.269 C 
ATOM     10  C   UNL     1      29.310  35.648   7.068  1.00  0.00     0.112 C 
ATOM     11  O   UNL     1      27.191  35.251   8.147  1.00  0.00    -0.332 OA
ATOM     12  C   UNL     1      28.426  36.351   6.018  1.00  0.00     0.145 C 
ATOM     13  C   UNL     1      27.498  37.241   6.881  1.00  0.00     0.142 C 
BRANCH   9  14
ATOM     14  O   UNL     1      28.813  36.548   9.215  1.00  0.00    -0.357 OA
ATOM     15  H   UNL     1      29.307  36.316  10.015  1.00  0.00     0.214 HD
ENDBRANCH   9  14
BRANCH   9  16
ATOM     16  C   UNL     1      29.041  34.228   8.961  1.00  0.00     0.364 C 
ATOM     17  O   UNL     1      30.092  33.714   8.959  1.00  0.00    -0.246 OA
BRANCH  16  18
ATOM     18  O   UNL     1      27.972  33.518   9.696  1.00  0.00    -0.477 OA
ATOM     19  H   UNL     1      27.017  33.781   9.441  1.00  0.00     0.296 HD
ENDBRANCH  16  18
ENDBRANCH   9  16
BRANCH  12  20
ATOM     20  O   UNL     1      29.182  37.099   5.153  1.00  0.00    -0.391 OA
ATOM     21  H   UNL     1      28.650  37.459   4.422  1.00  0.00     0.211 HD
ENDBRANCH  12  20
BRANCH  13  22
ATOM     22  N   UNL     1      26.895  38.224   5.969  1.00  0.00    -0.348 N 
ATOM     23  C   UNL     1      27.307  39.563   6.061  1.00  0.00     0.217 C 
ATOM     24  H   UNL     1      26.221  37.926   5.290  1.00  0.00     0.163 HD
ATOM     25  C   UNL     1      27.008  40.764   5.373  1.00  0.00     0.114 C 
ATOM     26  O   UNL     1      28.227  39.668   7.062  1.00  0.00    -0.275 OA
ENDBRANCH  13  22
ENDBRANCH   7   8
BRANCH   7  27
ATOM     27  O   UNL     1      25.934  37.775   9.361  1.00  0.00    -0.388 OA
ATOM     28  H   UNL     1      26.644  38.377   9.012  1.00  0.00     0.211 HD
ENDBRANCH   7  27
ENDBRANCH   6   7
BRANCH   6  29
ATOM     29  O   UNL     1      23.916  38.334   7.317  1.00  0.00    -0.388 OA
ATOM     30  H   UNL     1      24.320  39.075   7.833  1.00  0.00     0.211 HD
ENDBRANCH   6  29
ENDBRANCH   5   6
ENDBRANCH   1   5
BRANCH   2  31
ATOM     31  O   UNL     1      23.957  35.836  12.668  1.00  0.00    -0.443 OA
BRANCH  31  32
ATOM     32  C   UNL     1      24.638  34.620  12.289  1.00  0.00     0.294 C 
BRANCH  32  33
ATOM     33  C   UNL     1      26.092  34.987  12.460  1.00  0.00     0.121 A 
ATOM     34  C   UNL     1      26.901  34.638  13.500  1.00  0.00     0.146 A 
ATOM     35  N   UNL     1      26.821  35.643  11.558  1.00  0.00    -0.131 NA
ATOM     36  N   UNL     1      28.144  35.108  13.172  1.00  0.00    -0.201 N 
ATOM     37  N   UNL     1      28.050  35.714  11.980  1.00  0.00    -0.060 NA
BRANCH  36  38
ATOM     38  C   UNL     1      29.316  34.973  13.910  1.00  0.00     0.173 A 
ATOM     39  N   UNL     1      29.982  33.745  13.960  1.00  0.00    -0.236 NA
ATOM     40  C   UNL     1      29.877  35.940  14.717  1.00  0.00     0.097 A 
ATOM     41  C   UNL     1      30.998  33.600  14.703  1.00  0.00     0.113 A 
ATOM     42  C   UNL     1      30.936  35.772  15.491  1.00  0.00     0.025 A 
ATOM     43  C   UNL     1      31.634  34.532  15.562  1.00  0.00     0.022 A 
BRANCH  40  44
ATOM     44  C   UNL     1      29.181  37.283  14.786  1.00  0.00     0.103 C 
ATOM     45  N   UNL     1      28.708  38.175  14.816  1.00  0.00    -0.192 NA
ENDBRANCH  40  44
ENDBRANCH  36  38
ENDBRANCH  32  33
ENDBRANCH  31  32
ENDBRANCH   2  31
TORSDOF 16
BEGIN_RES LYS A 131
REMARK  4 active torsions:
REMARK  status: ('A' for Active; 'I' for Inactive)
REMARK    1  A    between atoms: CA   and  CB  
REMARK    2  A    between atoms: CB   and  CG  
REMARK    3  A    between atoms: CG   and  CD  
REMARK    4  A    between atoms: CD   and  CE  
ROOT
ATOM      1  CA  LYS A 131      29.867  25.555  16.977  1.00 20.52     0.186 C 
ENDROOT
BRANCH   1   2
ATOM      2  CB  LYS A 131      28.345  25.722  17.026  1.00 20.94     0.034 C 
BRANCH   2   3
ATOM      3  CG  LYS A 131      27.601  24.402  16.892  1.00 22.96     0.005 C 
BRANCH   3   4
ATOM      4  CD  LYS A 131      26.532  24.246  17.938  1.00 24.33     0.041 C 
BRANCH   4   5
ATOM      5  CE  LYS A 131      25.160  24.274  17.272  1.00 26.91     0.338 C 
ATOM      6  NZ  LYS A 131      24.522  25.599  17.455  1.00 27.40     0.618 N 
ENDBRANCH   4   5
ENDBRANCH   3   4
ENDBRANCH   2   3
ENDBRANCH   1   2
END_RES LYS A 131
BEGIN_RES LYS A 135
REMARK  4 active torsions:
REMARK  status: ('A' for Active; 'I' for Inactive)
REMARK    5  A    between atoms: CA   and  CB  
REMARK    6  A    between atoms: CB   and  CG  
REMARK    7  A    between atoms: CG   and  CD  
REMARK    8  A    between atoms: CD   and  CE  
ROOT
ATOM      7  CA  LYS A 135      33.193  34.663   9.290  1.00 25.02     0.186 C 
ENDROOT
BRANCH   7   8
ATOM      8  CB  LYS A 135      32.060  35.360  10.034  1.00 26.63     0.034 C 
BRANCH   8   9
ATOM      9  CG  LYS A 135      32.230  35.355  11.531  1.00 29.45     0.005 C 
BRANCH   9  10
ATOM     10  CD  LYS A 135      32.269  36.776  12.072  1.00 32.00     0.041 C 
BRANCH  10  11
ATOM     11  CE  LYS A 135      31.706  37.749  11.053  1.00 34.25     0.338 C 
ATOM     12  NZ  LYS A 135      30.563  38.517  11.620  1.00 35.99     0.618 N 
ENDBRANCH  10  11
ENDBRANCH   9  10
ENDBRANCH   8   9
ENDBRANCH   7   8
END_RES LYS A 135
