REMARK VINA RESULT:    -5.076      5.083      8.916
REMARK INTER + INTRA:         -14.372
REMARK INTER:                 -10.249
REMARK INTRA:                  -4.123
REMARK UNBOUND:                -5.290
REMARK SMILES CC(=O)N[C@@H]1[C@@H](O)C[C@](O)(C(=O)O)O[C@H]1C(O)[C@H](O)CNC(=O)OCc1cn(Cc2ccccc2)nn1
REMARK SMILES IDX 21 1 22 2 23 3 20 5 18 6 16 7 15 8 9 9 8 10 14 11 6 12 5 13
REMARK SMILES IDX 10 14 11 16 12 17 13 18 7 20 4 22 2 23 1 25 3 26 17 27 19 29
REMARK SMILES IDX 24 31 25 32 26 33 27 34 37 35 28 36 36 37 29 38 30 39 31 40
REMARK SMILES IDX 35 41 32 42 34 43 33 44
REMARK H PARENT 21 4 10 15 13 19 7 21 4 24 17 28 19 30
REMARK Flexibility Score: inf
ROOT
ATOM      1  N   UNL     1      25.503  34.647  14.267  1.00  0.00    -0.319 N 
ATOM      2  C   UNL     1      24.168  34.340  13.934  1.00  0.00     0.407 C 
ATOM      3  O   UNL     1      23.384  33.821  14.744  1.00  0.00    -0.225 OA
ATOM      4  H   UNL     1      26.071  35.089  13.497  1.00  0.00     0.167 HD
ENDROOT
BRANCH   1   5
ATOM      5  C   UNL     1      26.070  34.386  15.554  1.00  0.00     0.154 C 
BRANCH   5   6
ATOM      6  C   UNL     1      27.542  34.079  15.411  1.00  0.00     0.165 C 
BRANCH   6   7
ATOM      7  C   UNL     1      28.385  35.037  16.202  1.00  0.00     0.176 C 
BRANCH   7   8
ATOM      8  C   UNL     1      29.869  34.787  16.069  1.00  0.00     0.178 C 
ATOM      9  C   UNL     1      31.298  34.610  14.229  1.00  0.00     0.269 C 
ATOM     10  C   UNL     1      32.311  34.035  15.233  1.00  0.00     0.112 C 
ATOM     11  O   UNL     1      30.413  35.348  14.955  1.00  0.00    -0.332 OA
ATOM     12  C   UNL     1      31.541  32.900  15.905  1.00  0.00     0.145 C 
ATOM     13  C   UNL     1      30.163  33.352  16.330  1.00  0.00     0.142 C 
BRANCH   9  14
ATOM     14  O   UNL     1      30.753  33.601  13.463  1.00  0.00    -0.357 OA
ATOM     15  H   UNL     1      31.258  33.537  12.625  1.00  0.00     0.214 HD
ENDBRANCH   9  14
BRANCH   9  16
ATOM     16  C   UNL     1      32.071  35.570  13.362  1.00  0.00     0.364 C 
ATOM     17  O   UNL     1      32.047  36.801  13.568  1.00  0.00    -0.246 OA
BRANCH  16  18
ATOM     18  O   UNL     1      32.828  35.095  12.309  1.00  0.00    -0.477 OA
ATOM     19  H   UNL     1      33.737  34.709  12.503  1.00  0.00     0.296 HD
ENDBRANCH  16  18
ENDBRANCH   9  16
BRANCH  12  20
ATOM     20  O   UNL     1      31.479  31.875  14.960  1.00  0.00    -0.391 OA
ATOM     21  H   UNL     1      31.484  32.266  14.060  1.00  0.00     0.211 HD
ENDBRANCH  12  20
BRANCH  13  22
ATOM     22  N   UNL     1      30.009  33.146  17.782  1.00  0.00    -0.348 N 
ATOM     23  C   UNL     1      29.464  31.960  18.332  1.00  0.00     0.217 C 
ATOM     24  H   UNL     1      30.314  33.913  18.447  1.00  0.00     0.163 HD
ATOM     25  C   UNL     1      29.290  31.708  19.783  1.00  0.00     0.114 C 
ATOM     26  O   UNL     1      29.104  31.055  17.538  1.00  0.00    -0.275 OA
ENDBRANCH  13  22
ENDBRANCH   7   8
BRANCH   7  27
ATOM     27  O   UNL     1      27.960  35.041  17.516  1.00  0.00    -0.388 OA
ATOM     28  H   UNL     1      27.606  34.145  17.731  1.00  0.00     0.211 HD
ENDBRANCH   7  27
ENDBRANCH   6   7
BRANCH   6  29
ATOM     29  O   UNL     1      27.810  34.140  14.043  1.00  0.00    -0.388 OA
ATOM     30  H   UNL     1      27.262  33.516  13.517  1.00  0.00     0.211 HD
ENDBRANCH   6  29
ENDBRANCH   5   6
ENDBRANCH   1   5
BRANCH   2  31
ATOM     31  O   UNL     1      23.677  34.615  12.659  1.00  0.00    -0.443 OA
BRANCH  31  32
ATOM     32  C   UNL     1      24.172  35.723  11.947  1.00  0.00     0.294 C 
BRANCH  32  33
ATOM     33  C   UNL     1      25.307  35.348  11.069  1.00  0.00     0.120 A 
ATOM     34  C   UNL     1      25.274  35.252   9.704  1.00  0.00     0.138 A 
ATOM     35  N   UNL     1      26.546  35.040  11.461  1.00  0.00    -0.132 NA
ATOM     36  N   UNL     1      26.502  34.885   9.300  1.00  0.00    -0.248 N 
ATOM     37  N   UNL     1      27.258  34.763  10.397  1.00  0.00    -0.067 NA
BRANCH  36  38
ATOM     38  C   UNL     1      26.981  34.651   7.962  1.00  0.00     0.181 C 
BRANCH  38  39
ATOM     39  C   UNL     1      27.259  35.932   7.260  1.00  0.00    -0.026 A 
ATOM     40  C   UNL     1      26.690  37.127   7.686  1.00  0.00     0.005 A 
ATOM     41  C   UNL     1      28.085  35.997   6.165  1.00  0.00     0.005 A 
ATOM     42  C   UNL     1      26.951  38.306   7.033  1.00  0.00     0.000 A 
ATOM     43  C   UNL     1      28.353  37.180   5.500  1.00  0.00     0.000 A 
ATOM     44  C   UNL     1      27.783  38.355   5.934  1.00  0.00     0.000 A 
ENDBRANCH  38  39
ENDBRANCH  36  38
ENDBRANCH  32  33
ENDBRANCH  31  32
ENDBRANCH   2  31
TORSDOF 16
BEGIN_RES LYS A 131
REMARK  4 active torsions:
REMARK  status: ('A' for Active; 'I' for Inactive)
REMARK    1  A    between atoms: CA   and  CB  
REMARK    2  A    between atoms: CB   and  CG  
REMARK    3  A    between atoms: CG   and  CD  
REMARK    4  A    between atoms: CD   and  CE  
ROOT
ATOM      1  CA  LYS A 131      29.867  25.555  16.977  1.00 20.52     0.186 C 
ENDROOT
BRANCH   1   2
ATOM      2  CB  LYS A 131      28.345  25.722  17.026  1.00 20.94     0.034 C 
BRANCH   2   3
ATOM      3  CG  LYS A 131      27.600  24.411  16.826  1.00 22.96     0.005 C 
BRANCH   3   4
ATOM      4  CD  LYS A 131      26.155  24.513  17.230  1.00 24.33     0.041 C 
BRANCH   4   5
ATOM      5  CE  LYS A 131      26.051  24.521  18.751  1.00 26.91     0.338 C 
ATOM      6  NZ  LYS A 131      25.262  23.358  19.223  1.00 27.40     0.618 N 
ENDBRANCH   4   5
ENDBRANCH   3   4
ENDBRANCH   2   3
ENDBRANCH   1   2
END_RES LYS A 131
BEGIN_RES LYS A 135
REMARK  4 active torsions:
REMARK  status: ('A' for Active; 'I' for Inactive)
REMARK    5  A    between atoms: CA   and  CB  
REMARK    6  A    between atoms: CB   and  CG  
REMARK    7  A    between atoms: CG   and  CD  
REMARK    8  A    between atoms: CD   and  CE  
ROOT
ATOM      7  CA  LYS A 135      33.193  34.663   9.290  1.00 25.02     0.186 C 
ENDROOT
BRANCH   7   8
ATOM      8  CB  LYS A 135      32.060  35.360  10.034  1.00 26.63     0.034 C 
BRANCH   8   9
ATOM      9  CG  LYS A 135      30.759  35.373   9.274  1.00 29.45     0.005 C 
BRANCH   9  10
ATOM     10  CD  LYS A 135      30.198  36.784   9.194  1.00 32.00     0.041 C 
BRANCH  10  11
ATOM     11  CE  LYS A 135      29.950  37.339  10.583  1.00 34.25     0.338 C 
ATOM     12  NZ  LYS A 135      28.597  37.953  10.682  1.00 35.99     0.618 N 
ENDBRANCH  10  11
ENDBRANCH   9  10
ENDBRANCH   8   9
ENDBRANCH   7   8
END_RES LYS A 135
