REMARK VINA RESULT:    -5.691      7.700     13.010
REMARK INTER + INTRA:         -14.347
REMARK INTER:                  -7.792
REMARK INTRA:                  -6.555
REMARK UNBOUND:                -4.497
REMARK SMILES CC(=O)N[C@@H]1[C@@H](O)C[C@](O)(C(=O)O)O[C@H]1C(O)[C@H](O)CNC(=O)OCc1cn(-c2cccc(Cl)c2)nn1
REMARK SMILES IDX 20 1 18 2 16 3 15 4 9 5 8 6 14 7 6 8 5 9 10 10 11 12 12 13
REMARK SMILES IDX 13 14 7 16 4 18 2 19 1 21 3 22 17 23 19 25 21 27 22 28 23 30
REMARK SMILES IDX 24 31 25 32 26 33 27 34 37 35 28 36 36 37 29 38 30 39 35 40
REMARK SMILES IDX 31 41 33 42 32 43 34 44
REMARK H PARENT 10 11 13 15 7 17 4 20 17 24 19 26 21 29
REMARK Flexibility Score: inf
ROOT
ATOM      1  C   UNL     1      19.907  36.092   8.107  1.00  0.00     0.154 C 
ENDROOT
BRANCH   1   2
ATOM      2  C   UNL     1      21.369  35.874   7.840  1.00  0.00     0.165 C 
BRANCH   2   3
ATOM      3  C   UNL     1      22.229  36.096   9.050  1.00  0.00     0.176 C 
BRANCH   3   4
ATOM      4  C   UNL     1      23.607  36.629   8.648  1.00  0.00     0.178 C 
ATOM      5  C   UNL     1      25.351  35.590   9.835  1.00  0.00     0.269 C 
ATOM      6  C   UNL     1      25.952  36.964  10.099  1.00  0.00     0.112 C 
ATOM      7  O   UNL     1      24.499  35.642   8.787  1.00  0.00    -0.332 OA
ATOM      8  C   UNL     1      24.760  37.801  10.558  1.00  0.00     0.145 C 
ATOM      9  C   UNL     1      23.834  37.905   9.377  1.00  0.00     0.142 C 
BRANCH   5  10
ATOM     10  O   UNL     1      24.771  35.192  11.032  1.00  0.00    -0.357 OA
ATOM     11  H   UNL     1      25.022  35.842  11.733  1.00  0.00     0.214 HD
ENDBRANCH   5  10
BRANCH   5  12
ATOM     12  C   UNL     1      26.437  34.638   9.504  1.00  0.00     0.364 C 
ATOM     13  O   UNL     1      26.545  34.223   8.327  1.00  0.00    -0.246 OA
BRANCH  12  14
ATOM     14  O   UNL     1      27.348  34.181  10.445  1.00  0.00    -0.477 OA
ATOM     15  H   UNL     1      27.026  33.495  11.137  1.00  0.00     0.296 HD
ENDBRANCH  12  14
ENDBRANCH   5  12
BRANCH   8  16
ATOM     16  O   UNL     1      24.069  37.180  11.593  1.00  0.00    -0.391 OA
ATOM     17  H   UNL     1      24.651  37.005  12.385  1.00  0.00     0.211 HD
ENDBRANCH   8  16
BRANCH   9  18
ATOM     18  N   UNL     1      24.388  38.913   8.497  1.00  0.00    -0.348 N 
ATOM     19  C   UNL     1      23.517  39.752   7.756  1.00  0.00     0.217 C 
ATOM     20  H   UNL     1      25.436  39.038   8.391  1.00  0.00     0.163 HD
ATOM     21  C   UNL     1      24.092  40.783   6.854  1.00  0.00     0.114 C 
ATOM     22  O   UNL     1      22.271  39.617   7.868  1.00  0.00    -0.275 OA
ENDBRANCH   9  18
ENDBRANCH   3   4
BRANCH   3  23
ATOM     23  O   UNL     1      22.376  34.834   9.666  1.00  0.00    -0.388 OA
ATOM     24  H   UNL     1      22.946  34.254   9.143  1.00  0.00     0.211 HD
ENDBRANCH   3  23
ENDBRANCH   2   3
BRANCH   2  25
ATOM     25  O   UNL     1      21.778  36.759   6.827  1.00  0.00    -0.388 OA
ATOM     26  H   UNL     1      22.742  36.679   6.713  1.00  0.00     0.211 HD
ENDBRANCH   2  25
ENDBRANCH   1   2
BRANCH   1  27
ATOM     27  N   UNL     1      19.512  35.374   9.314  1.00  0.00    -0.319 N 
ATOM     28  C   UNL     1      18.888  36.054  10.390  1.00  0.00     0.407 C 
ATOM     29  H   UNL     1      19.704  34.353   9.359  1.00  0.00     0.167 HD
ATOM     30  O   UNL     1      18.677  37.289  10.293  1.00  0.00    -0.225 OA
BRANCH  28  31
ATOM     31  O   UNL     1      18.498  35.411  11.553  1.00  0.00    -0.443 OA
BRANCH  31  32
ATOM     32  C   UNL     1      19.185  35.714  12.747  1.00  0.00     0.294 C 
BRANCH  32  33
ATOM     33  C   UNL     1      20.484  34.992  12.763  1.00  0.00     0.121 A 
ATOM     34  C   UNL     1      20.676  33.641  12.994  1.00  0.00     0.144 A 
ATOM     35  N   UNL     1      21.719  35.487  12.561  1.00  0.00    -0.131 NA
ATOM     36  N   UNL     1      21.998  33.356  12.926  1.00  0.00    -0.220 N 
ATOM     37  N   UNL     1      22.601  34.503  12.662  1.00  0.00    -0.062 NA
BRANCH  36  38
ATOM     38  C   UNL     1      22.607  32.083  13.106  1.00  0.00     0.068 A 
ATOM     39  C   UNL     1      22.065  30.985  12.473  1.00  0.00     0.028 A 
ATOM     40  C   UNL     1      23.724  31.881  13.888  1.00  0.00     0.049 A 
ATOM     41  C   UNL     1      22.622  29.724  12.617  1.00  0.00     0.004 A 
ATOM     42  C   UNL     1      24.304  30.642  14.054  1.00  0.00     0.043 A 
ATOM     43  C   UNL     1      23.738  29.562  13.407  1.00  0.00     0.020 A 
ATOM     44  Cl  UNL     1      25.738  30.427  15.069  1.00  0.00    -0.084 Cl
ENDBRANCH  36  38
ENDBRANCH  32  33
ENDBRANCH  31  32
ENDBRANCH  28  31
ENDBRANCH   1  27
TORSDOF 15
BEGIN_RES LYS A 131
REMARK  4 active torsions:
REMARK  status: ('A' for Active; 'I' for Inactive)
REMARK    1  A    between atoms: CA   and  CB  
REMARK    2  A    between atoms: CB   and  CG  
REMARK    3  A    between atoms: CG   and  CD  
REMARK    4  A    between atoms: CD   and  CE  
ROOT
ATOM      1  CA  LYS A 131      29.867  25.555  16.977  1.00 20.52     0.186 C 
ENDROOT
BRANCH   1   2
ATOM      2  CB  LYS A 131      28.345  25.722  17.026  1.00 20.94     0.034 C 
BRANCH   2   3
ATOM      3  CG  LYS A 131      27.601  24.403  16.886  1.00 22.96     0.005 C 
BRANCH   3   4
ATOM      4  CD  LYS A 131      26.164  24.515  17.313  1.00 24.33     0.041 C 
BRANCH   4   5
ATOM      5  CE  LYS A 131      26.098  24.867  18.795  1.00 26.91     0.338 C 
ATOM      6  NZ  LYS A 131      25.382  23.811  19.548  1.00 27.40     0.618 N 
ENDBRANCH   4   5
ENDBRANCH   3   4
ENDBRANCH   2   3
ENDBRANCH   1   2
END_RES LYS A 131
BEGIN_RES LYS A 135
REMARK  4 active torsions:
REMARK  status: ('A' for Active; 'I' for Inactive)
REMARK    5  A    between atoms: CA   and  CB  
REMARK    6  A    between atoms: CB   and  CG  
REMARK    7  A    between atoms: CG   and  CD  
REMARK    8  A    between atoms: CD   and  CE  
ROOT
ATOM      7  CA  LYS A 135      33.193  34.663   9.290  1.00 25.02     0.186 C 
ENDROOT
BRANCH   7   8
ATOM      8  CB  LYS A 135      32.060  35.360  10.034  1.00 26.63     0.034 C 
BRANCH   8   9
ATOM      9  CG  LYS A 135      30.694  34.825   9.690  1.00 29.45     0.005 C 
BRANCH   9  10
ATOM     10  CD  LYS A 135      30.618  34.456   8.216  1.00 32.00     0.041 C 
BRANCH  10  11
ATOM     11  CE  LYS A 135      29.577  35.302   7.509  1.00 34.25     0.338 C 
ATOM     12  NZ  LYS A 135      29.248  36.520   8.299  1.00 35.99     0.618 N 
ENDBRANCH  10  11
ENDBRANCH   9  10
ENDBRANCH   8   9
ENDBRANCH   7   8
END_RES LYS A 135
