REMARK VINA RESULT:    -5.071      5.287      9.809
REMARK INTER + INTRA:         -16.882
REMARK INTER:                 -10.825
REMARK INTRA:                  -6.057
REMARK UNBOUND:                -6.771
REMARK SMILES CC(=O)N[C@@H]1[C@@H](O)C[C@](O)(C(=O)O)O[C@H]1C(O)[C@H](O)CNC(=O)OCc1cn(CC(O)CCc2ccccc2)nn1
REMARK SMILES IDX 24 1 22 2 21 3 23 5 20 6 18 7 16 8 15 9 9 10 8 11 14 12 6 13
REMARK SMILES IDX 5 14 10 15 11 17 12 18 13 19 7 21 4 23 2 24 1 26 3 27 17 28
REMARK SMILES IDX 19 30 25 32 26 33 27 34 41 35 28 36 40 37 29 38 30 39 31 40
REMARK SMILES IDX 32 42 33 43 34 44 35 45 39 46 36 47 38 48 37 49
REMARK H PARENT 21 4 10 16 13 20 7 22 4 25 17 29 19 31 31 41
REMARK Flexibility Score: inf
ROOT
ATOM      1  O   UNL     1      27.262  29.482  18.580  1.00  0.00    -0.443 OA
ENDROOT
BRANCH   1   2
ATOM      2  C   UNL     1      27.982  29.775  17.436  1.00  0.00     0.407 C 
ATOM      3  N   UNL     1      29.033  30.715  17.466  1.00  0.00    -0.319 N 
ATOM      4  H   UNL     1      29.263  31.188  18.358  1.00  0.00     0.167 HD
ATOM      5  O   UNL     1      27.704  29.203  16.357  1.00  0.00    -0.225 OA
BRANCH   3   6
ATOM      6  C   UNL     1      29.817  31.050  16.285  1.00  0.00     0.154 C 
BRANCH   6   7
ATOM      7  C   UNL     1      29.253  32.276  15.592  1.00  0.00     0.165 C 
BRANCH   7   8
ATOM      8  C   UNL     1      30.321  32.825  14.660  1.00  0.00     0.176 C 
BRANCH   8   9
ATOM      9  C   UNL     1      30.613  34.291  14.996  1.00  0.00     0.178 C 
ATOM     10  C   UNL     1      30.211  35.650  13.141  1.00  0.00     0.269 C 
ATOM     11  C   UNL     1      31.543  35.214  12.640  1.00  0.00     0.112 C 
ATOM     12  O   UNL     1      29.825  35.169  14.341  1.00  0.00    -0.332 OA
ATOM     13  C   UNL     1      32.594  35.150  13.690  1.00  0.00     0.145 C 
ATOM     14  C   UNL     1      32.091  34.526  14.964  1.00  0.00     0.142 C 
BRANCH  10  15
ATOM     15  O   UNL     1      29.255  35.243  12.179  1.00  0.00    -0.357 OA
ATOM     16  H   UNL     1      28.427  35.777  12.293  1.00  0.00     0.214 HD
ENDBRANCH  10  15
BRANCH  10  17
ATOM     17  C   UNL     1      30.187  37.157  13.118  1.00  0.00     0.364 C 
ATOM     18  O   UNL     1      30.631  37.859  14.056  1.00  0.00    -0.246 OA
BRANCH  17  19
ATOM     19  O   UNL     1      29.658  37.853  12.027  1.00  0.00    -0.477 OA
ATOM     20  H   UNL     1      28.703  37.650  11.698  1.00  0.00     0.296 HD
ENDBRANCH  17  19
ENDBRANCH  10  17
BRANCH  13  21
ATOM     21  O   UNL     1      33.704  34.447  13.167  1.00  0.00    -0.391 OA
ATOM     22  H   UNL     1      34.151  33.915  13.891  1.00  0.00     0.211 HD
ENDBRANCH  13  21
BRANCH  14  23
ATOM     23  N   UNL     1      32.513  35.294  16.137  1.00  0.00    -0.348 N 
ATOM     24  C   UNL     1      32.287  34.834  17.442  1.00  0.00     0.217 C 
ATOM     25  H   UNL     1      32.998  36.219  15.941  1.00  0.00     0.163 HD
ATOM     26  C   UNL     1      32.729  35.643  18.591  1.00  0.00     0.114 C 
ATOM     27  O   UNL     1      31.715  33.745  17.640  1.00  0.00    -0.275 OA
ENDBRANCH  14  23
ENDBRANCH   8   9
BRANCH   8  28
ATOM     28  O   UNL     1      31.500  32.139  15.002  1.00  0.00    -0.388 OA
ATOM     29  H   UNL     1      31.308  31.193  15.281  1.00  0.00     0.211 HD
ENDBRANCH   8  28
ENDBRANCH   7   8
BRANCH   7  30
ATOM     30  O   UNL     1      28.900  33.236  16.532  1.00  0.00    -0.388 OA
ATOM     31  H   UNL     1      28.737  34.078  16.045  1.00  0.00     0.211 HD
ENDBRANCH   7  30
ENDBRANCH   6   7
ENDBRANCH   3   6
ENDBRANCH   1   2
BRANCH   1  32
ATOM     32  C   UNL     1      26.730  30.609  19.296  1.00  0.00     0.294 C 
BRANCH  32  33
ATOM     33  C   UNL     1      26.296  31.656  18.346  1.00  0.00     0.120 A 
ATOM     34  C   UNL     1      25.391  31.577  17.314  1.00  0.00     0.138 A 
ATOM     35  N   UNL     1      26.750  32.922  18.352  1.00  0.00    -0.132 NA
ATOM     36  N   UNL     1      25.319  32.781  16.726  1.00  0.00    -0.250 N 
ATOM     37  N   UNL     1      26.132  33.569  17.356  1.00  0.00    -0.067 NA
BRANCH  36  38
ATOM     38  C   UNL     1      24.480  33.175  15.573  1.00  0.00     0.177 C 
BRANCH  38  39
ATOM     39  C   UNL     1      25.283  32.983  14.324  1.00  0.00     0.136 C 
BRANCH  39  40
ATOM     40  O   UNL     1      26.159  34.053  14.095  1.00  0.00    -0.391 OA
ATOM     41  H   UNL     1      26.612  33.879  13.220  1.00  0.00     0.211 HD
ENDBRANCH  39  40
BRANCH  39  42
ATOM     42  C   UNL     1      24.618  32.400  13.180  1.00  0.00     0.038 C 
BRANCH  42  43
ATOM     43  C   UNL     1      24.331  30.961  13.161  1.00  0.00     0.038 C 
BRANCH  43  44
ATOM     44  C   UNL     1      22.962  30.600  12.835  1.00  0.00    -0.048 A 
ATOM     45  C   UNL     1      22.687  29.261  12.532  1.00  0.00     0.004 A 
ATOM     46  C   UNL     1      21.917  31.464  12.727  1.00  0.00     0.004 A 
ATOM     47  C   UNL     1      21.428  28.862  12.149  1.00  0.00     0.000 A 
ATOM     48  C   UNL     1      20.643  31.083  12.344  1.00  0.00     0.000 A 
ATOM     49  C   UNL     1      20.390  29.759  12.049  1.00  0.00     0.000 A 
ENDBRANCH  43  44
ENDBRANCH  42  43
ENDBRANCH  39  42
ENDBRANCH  38  39
ENDBRANCH  36  38
ENDBRANCH  32  33
ENDBRANCH   1  32
TORSDOF 20
BEGIN_RES LYS A 131
REMARK  4 active torsions:
REMARK  status: ('A' for Active; 'I' for Inactive)
REMARK    1  A    between atoms: CA   and  CB  
REMARK    2  A    between atoms: CB   and  CG  
REMARK    3  A    between atoms: CG   and  CD  
REMARK    4  A    between atoms: CD   and  CE  
ROOT
ATOM      1  CA  LYS A 131      29.867  25.555  16.977  1.00 20.52     0.186 C 
ENDROOT
BRANCH   1   2
ATOM      2  CB  LYS A 131      28.345  25.722  17.026  1.00 20.94     0.034 C 
BRANCH   2   3
ATOM      3  CG  LYS A 131      27.602  24.400  16.910  1.00 22.96     0.005 C 
BRANCH   3   4
ATOM      4  CD  LYS A 131      26.650  24.183  18.054  1.00 24.33     0.041 C 
BRANCH   4   5
ATOM      5  CE  LYS A 131      25.274  24.726  17.682  1.00 26.91     0.338 C 
ATOM      6  NZ  LYS A 131      24.479  23.689  16.982  1.00 27.40     0.618 N 
ENDBRANCH   4   5
ENDBRANCH   3   4
ENDBRANCH   2   3
ENDBRANCH   1   2
END_RES LYS A 131
BEGIN_RES LYS A 135
REMARK  4 active torsions:
REMARK  status: ('A' for Active; 'I' for Inactive)
REMARK    5  A    between atoms: CA   and  CB  
REMARK    6  A    between atoms: CB   and  CG  
REMARK    7  A    between atoms: CG   and  CD  
REMARK    8  A    between atoms: CD   and  CE  
ROOT
ATOM      7  CA  LYS A 135      33.193  34.663   9.290  1.00 25.02     0.186 C 
ENDROOT
BRANCH   7   8
ATOM      8  CB  LYS A 135      32.060  35.360  10.034  1.00 26.63     0.034 C 
BRANCH   8   9
ATOM      9  CG  LYS A 135      30.829  35.577   9.191  1.00 29.45     0.005 C 
BRANCH   9  10
ATOM     10  CD  LYS A 135      30.172  34.248   8.851  1.00 32.00     0.041 C 
BRANCH  10  11
ATOM     11  CE  LYS A 135      28.689  34.438   8.595  1.00 34.25     0.338 C 
ATOM     12  NZ  LYS A 135      27.873  33.656   9.565  1.00 35.99     0.618 N 
ENDBRANCH  10  11
ENDBRANCH   9  10
ENDBRANCH   8   9
ENDBRANCH   7   8
END_RES LYS A 135
