REMARK VINA RESULT:    -4.976      9.142     14.127
REMARK INTER + INTRA:         -14.129
REMARK INTER:                  -9.728
REMARK INTRA:                  -4.401
REMARK UNBOUND:                -5.226
REMARK SMILES COc1ccc(-n2cc(COC(=O)NC[C@@H](O)C(O)[C@@H]3O[C@@](O)(C(=O)O)C[C@H](O)[C@H]3NC(C)=O)nn2)cc1
REMARK SMILES IDX 14 1 12 2 13 3 15 5 16 6 18 7 20 8 22 9 27 10 21 11 28 12
REMARK SMILES IDX 30 13 23 14 24 16 25 17 26 18 29 20 31 22 32 23 33 25 34 26
REMARK SMILES IDX 19 27 17 29 11 31 10 32 9 33 8 34 35 35 7 36 36 37 6 38 5 39
REMARK SMILES IDX 37 40 4 41 38 42 3 43 2 44 1 45
REMARK H PARENT 14 4 23 15 26 19 29 21 31 24 19 28 17 30
REMARK Flexibility Score: inf
ROOT
ATOM      1  N   UNL     1      23.684  37.678  10.818  1.00  0.00    -0.319 N 
ATOM      2  C   UNL     1      24.587  37.376  11.860  1.00  0.00     0.407 C 
ATOM      3  O   UNL     1      25.817  37.416  11.705  1.00  0.00    -0.225 OA
ATOM      4  H   UNL     1      22.652  37.576  11.084  1.00  0.00     0.167 HD
ENDROOT
BRANCH   1   5
ATOM      5  C   UNL     1      23.958  38.088   9.500  1.00  0.00     0.154 C 
BRANCH   5   6
ATOM      6  C   UNL     1      24.006  37.105   8.420  1.00  0.00     0.165 C 
BRANCH   6   7
ATOM      7  C   UNL     1      25.056  36.111   8.386  1.00  0.00     0.176 C 
BRANCH   7   8
ATOM      8  C   UNL     1      26.498  36.644   8.247  1.00  0.00     0.178 C 
ATOM      9  C   UNL     1      27.705  37.192   6.296  1.00  0.00     0.269 C 
ATOM     10  C   UNL     1      28.451  35.848   6.349  1.00  0.00     0.112 C 
ATOM     11  O   UNL     1      26.534  37.014   6.914  1.00  0.00    -0.332 OA
ATOM     12  C   UNL     1      28.759  35.610   7.777  1.00  0.00     0.145 C 
ATOM     13  C   UNL     1      27.536  35.729   8.704  1.00  0.00     0.142 C 
BRANCH   9  14
ATOM     14  O   UNL     1      27.391  37.323   4.916  1.00  0.00    -0.357 OA
ATOM     15  H   UNL     1      27.068  38.234   4.713  1.00  0.00     0.214 HD
ENDBRANCH   9  14
BRANCH   9  16
ATOM     16  C   UNL     1      28.522  38.328   6.674  1.00  0.00     0.364 C 
ATOM     17  O   UNL     1      27.986  39.380   7.105  1.00  0.00    -0.246 OA
BRANCH  16  18
ATOM     18  O   UNL     1      29.915  38.385   6.607  1.00  0.00    -0.477 OA
ATOM     19  H   UNL     1      30.422  39.267   6.498  1.00  0.00     0.296 HD
ENDBRANCH  16  18
ENDBRANCH   9  16
BRANCH  12  20
ATOM     20  O   UNL     1      29.320  34.348   8.030  1.00  0.00    -0.391 OA
ATOM     21  H   UNL     1      29.800  34.108   7.177  1.00  0.00     0.211 HD
ENDBRANCH  12  20
BRANCH  13  22
ATOM     22  N   UNL     1      28.149  35.993   9.970  1.00  0.00    -0.348 N 
ATOM     23  C   UNL     1      28.065  35.231  11.135  1.00  0.00     0.217 C 
ATOM     24  H   UNL     1      28.733  36.881  10.007  1.00  0.00     0.163 HD
ATOM     25  C   UNL     1      28.762  35.642  12.393  1.00  0.00     0.114 C 
ATOM     26  O   UNL     1      27.386  34.199  11.088  1.00  0.00    -0.275 OA
ENDBRANCH  13  22
ENDBRANCH   7   8
BRANCH   7  27
ATOM     27  O   UNL     1      24.954  35.264   9.484  1.00  0.00    -0.388 OA
ATOM     28  H   UNL     1      24.352  34.496   9.313  1.00  0.00     0.211 HD
ENDBRANCH   7  27
ENDBRANCH   6   7
BRANCH   6  29
ATOM     29  O   UNL     1      23.814  37.761   7.170  1.00  0.00    -0.388 OA
ATOM     30  H   UNL     1      22.931  38.215   7.160  1.00  0.00     0.211 HD
ENDBRANCH   6  29
ENDBRANCH   5   6
ENDBRANCH   1   5
BRANCH   2  31
ATOM     31  O   UNL     1      24.124  37.012  13.141  1.00  0.00    -0.443 OA
BRANCH  31  32
ATOM     32  C   UNL     1      24.960  36.276  13.999  1.00  0.00     0.294 C 
BRANCH  32  33
ATOM     33  C   UNL     1      24.759  34.836  13.775  1.00  0.00     0.121 A 
ATOM     34  C   UNL     1      23.529  34.274  13.413  1.00  0.00     0.144 A 
ATOM     35  N   UNL     1      25.599  33.807  13.848  1.00  0.00    -0.131 NA
ATOM     36  N   UNL     1      23.692  32.944  13.288  1.00  0.00    -0.220 N 
ATOM     37  N   UNL     1      24.970  32.699  13.562  1.00  0.00    -0.062 NA
BRANCH  36  38
ATOM     38  C   UNL     1      22.705  31.985  12.934  1.00  0.00     0.067 A 
ATOM     39  C   UNL     1      22.971  30.640  12.821  1.00  0.00     0.032 A 
ATOM     40  C   UNL     1      21.390  32.385  12.684  1.00  0.00     0.032 A 
ATOM     41  C   UNL     1      21.991  29.717  12.476  1.00  0.00     0.048 A 
ATOM     42  C   UNL     1      20.417  31.466  12.340  1.00  0.00     0.048 A 
ATOM     43  C   UNL     1      20.701  30.125  12.232  1.00  0.00     0.119 A 
BRANCH  43  44
ATOM     44  O   UNL     1      19.744  29.216  11.895  1.00  0.00    -0.497 OA
ATOM     45  C   UNL     1      19.576  28.048  12.669  1.00  0.00     0.278 C 
ENDBRANCH  43  44
ENDBRANCH  36  38
ENDBRANCH  32  33
ENDBRANCH  31  32
ENDBRANCH   2  31
TORSDOF 16
BEGIN_RES LYS A 131
REMARK  4 active torsions:
REMARK  status: ('A' for Active; 'I' for Inactive)
REMARK    1  A    between atoms: CA   and  CB  
REMARK    2  A    between atoms: CB   and  CG  
REMARK    3  A    between atoms: CG   and  CD  
REMARK    4  A    between atoms: CD   and  CE  
ROOT
ATOM      1  CA  LYS A 131      29.867  25.555  16.977  1.00 20.52     0.186 C 
ENDROOT
BRANCH   1   2
ATOM      2  CB  LYS A 131      28.345  25.722  17.026  1.00 20.94     0.034 C 
BRANCH   2   3
ATOM      3  CG  LYS A 131      27.601  24.402  16.891  1.00 22.96     0.005 C 
BRANCH   3   4
ATOM      4  CD  LYS A 131      26.643  24.173  18.027  1.00 24.33     0.041 C 
BRANCH   4   5
ATOM      5  CE  LYS A 131      25.617  23.120  17.622  1.00 26.91     0.338 C 
ATOM      6  NZ  LYS A 131      24.909  22.600  18.816  1.00 27.40     0.618 N 
ENDBRANCH   4   5
ENDBRANCH   3   4
ENDBRANCH   2   3
ENDBRANCH   1   2
END_RES LYS A 131
BEGIN_RES LYS A 135
REMARK  4 active torsions:
REMARK  status: ('A' for Active; 'I' for Inactive)
REMARK    5  A    between atoms: CA   and  CB  
REMARK    6  A    between atoms: CB   and  CG  
REMARK    7  A    between atoms: CG   and  CD  
REMARK    8  A    between atoms: CD   and  CE  
ROOT
ATOM      7  CA  LYS A 135      33.193  34.663   9.290  1.00 25.02     0.186 C 
ENDROOT
BRANCH   7   8
ATOM      8  CB  LYS A 135      32.060  35.360  10.034  1.00 26.63     0.034 C 
BRANCH   8   9
ATOM      9  CG  LYS A 135      32.512  36.090  11.272  1.00 29.45     0.005 C 
BRANCH   9  10
ATOM     10  CD  LYS A 135      31.896  37.480  11.330  1.00 32.00     0.041 C 
BRANCH  10  11
ATOM     11  CE  LYS A 135      31.234  37.825  10.010  1.00 34.25     0.338 C 
ATOM     12  NZ  LYS A 135      30.233  38.914  10.180  1.00 35.99     0.618 N 
ENDBRANCH  10  11
ENDBRANCH   9  10
ENDBRANCH   8   9
ENDBRANCH   7   8
END_RES LYS A 135
