REMARK VINA RESULT:    -4.040      2.884      3.841
REMARK INTER + INTRA:         -13.760
REMARK INTER:                  -8.742
REMARK INTRA:                  -5.018
REMARK UNBOUND:                -6.059
REMARK SMILES CC(=O)N[C@@H]1[C@@H](O)C[C@](O)(C(=O)O)O[C@H]1C(O)[C@H](O)CNC(=O)OCc1cn(CCOC(C)=O)nn1
REMARK SMILES IDX 21 1 22 2 23 3 20 5 18 6 16 7 15 8 9 9 8 10 14 11 6 12 5 13
REMARK SMILES IDX 10 14 11 16 12 17 13 18 7 20 4 22 2 23 1 25 3 26 17 27 19 29
REMARK SMILES IDX 24 31 25 32 26 33 27 34 36 35 28 36 35 37 29 38 30 39 31 40
REMARK SMILES IDX 32 41 34 42 33 43
REMARK H PARENT 21 4 10 15 13 19 7 21 4 24 17 28 19 30
REMARK Flexibility Score: inf
ROOT
ATOM      1  N   UNL     1      31.930  34.443  14.158  1.00  0.00    -0.319 N 
ATOM      2  C   UNL     1      32.059  35.835  13.952  1.00  0.00     0.407 C 
ATOM      3  O   UNL     1      32.436  36.576  14.871  1.00  0.00    -0.225 OA
ATOM      4  H   UNL     1      31.597  33.886  13.323  1.00  0.00     0.167 HD
ENDROOT
BRANCH   1   5
ATOM      5  C   UNL     1      32.218  33.759  15.400  1.00  0.00     0.154 C 
BRANCH   5   6
ATOM      6  C   UNL     1      31.022  33.657  16.268  1.00  0.00     0.165 C 
BRANCH   6   7
ATOM      7  C   UNL     1      30.050  32.546  15.939  1.00  0.00     0.176 C 
BRANCH   7   8
ATOM      8  C   UNL     1      30.147  31.335  16.818  1.00  0.00     0.178 C 
ATOM      9  C   UNL     1      27.893  30.833  16.539  1.00  0.00     0.269 C 
ATOM     10  C   UNL     1      27.556  31.756  17.645  1.00  0.00     0.112 C 
ATOM     11  O   UNL     1      29.186  30.381  16.492  1.00  0.00    -0.332 OA
ATOM     12  C   UNL     1      28.633  32.055  18.623  1.00  0.00     0.145 C 
ATOM     13  C   UNL     1      29.997  31.560  18.289  1.00  0.00     0.142 C 
BRANCH   9  14
ATOM     14  O   UNL     1      27.633  31.412  15.272  1.00  0.00    -0.357 OA
ATOM     15  H   UNL     1      27.087  30.816  14.709  1.00  0.00     0.214 HD
ENDBRANCH   9  14
BRANCH   9  16
ATOM     16  C   UNL     1      27.022  29.625  16.582  1.00  0.00     0.364 C 
ATOM     17  O   UNL     1      27.427  28.539  17.121  1.00  0.00    -0.246 OA
BRANCH  16  18
ATOM     18  O   UNL     1      25.739  29.581  16.058  1.00  0.00    -0.477 OA
ATOM     19  H   UNL     1      25.483  30.311  15.384  1.00  0.00     0.296 HD
ENDBRANCH  16  18
ENDBRANCH   9  16
BRANCH  12  20
ATOM     20  O   UNL     1      28.703  33.443  18.779  1.00  0.00    -0.391 OA
ATOM     21  H   UNL     1      27.830  33.874  18.524  1.00  0.00     0.211 HD
ENDBRANCH  12  20
BRANCH  13  22
ATOM     22  N   UNL     1      30.354  30.321  18.939  1.00  0.00    -0.348 N 
ATOM     23  C   UNL     1      31.026  30.263  20.164  1.00  0.00     0.217 C 
ATOM     24  H   UNL     1      30.089  29.443  18.453  1.00  0.00     0.163 HD
ATOM     25  C   UNL     1      31.403  29.004  20.855  1.00  0.00     0.114 C 
ATOM     26  O   UNL     1      31.323  31.347  20.701  1.00  0.00    -0.275 OA
ENDBRANCH  13  22
ENDBRANCH   7   8
BRANCH   7  27
ATOM     27  O   UNL     1      30.555  32.063  14.672  1.00  0.00    -0.388 OA
ATOM     28  H   UNL     1      31.544  32.219  14.767  1.00  0.00     0.211 HD
ENDBRANCH   7  27
ENDBRANCH   6   7
BRANCH   6  29
ATOM     29  O   UNL     1      30.418  34.808  16.675  1.00  0.00    -0.388 OA
ATOM     30  H   UNL     1      29.828  35.195  16.010  1.00  0.00     0.211 HD
ENDBRANCH   6  29
ENDBRANCH   5   6
ENDBRANCH   1   5
BRANCH   2  31
ATOM     31  O   UNL     1      31.758  36.399  12.691  1.00  0.00    -0.443 OA
BRANCH  31  32
ATOM     32  C   UNL     1      31.428  37.785  12.595  1.00  0.00     0.294 C 
BRANCH  32  33
ATOM     33  C   UNL     1      31.117  38.078  11.182  1.00  0.00     0.120 A 
ATOM     34  C   UNL     1      29.857  38.327  10.663  1.00  0.00     0.138 A 
ATOM     35  N   UNL     1      31.967  38.153  10.149  1.00  0.00    -0.132 NA
ATOM     36  N   UNL     1      29.995  38.540   9.346  1.00  0.00    -0.249 N 
ATOM     37  N   UNL     1      31.273  38.430   9.063  1.00  0.00    -0.067 NA
BRANCH  36  38
ATOM     38  C   UNL     1      28.908  38.836   8.441  1.00  0.00     0.187 C 
BRANCH  38  39
ATOM     39  C   UNL     1      29.493  39.235   7.106  1.00  0.00     0.256 C 
BRANCH  39  40
ATOM     40  O   UNL     1      29.304  38.205   6.180  1.00  0.00    -0.464 OA
BRANCH  40  41
ATOM     41  C   UNL     1      28.152  38.092   5.459  1.00  0.00     0.302 C 
ATOM     42  O   UNL     1      27.532  37.015   5.391  1.00  0.00    -0.253 OA
ATOM     43  C   UNL     1      27.595  39.279   4.721  1.00  0.00     0.139 C 
ENDBRANCH  40  41
ENDBRANCH  39  40
ENDBRANCH  38  39
ENDBRANCH  36  38
ENDBRANCH  32  33
ENDBRANCH  31  32
ENDBRANCH   2  31
TORSDOF 18
BEGIN_RES LYS A 131
REMARK  4 active torsions:
REMARK  status: ('A' for Active; 'I' for Inactive)
REMARK    1  A    between atoms: CA   and  CB  
REMARK    2  A    between atoms: CB   and  CG  
REMARK    3  A    between atoms: CG   and  CD  
REMARK    4  A    between atoms: CD   and  CE  
ROOT
ATOM      1  CA  LYS A 131      29.867  25.555  16.977  1.00 20.52     0.186 C 
ENDROOT
BRANCH   1   2
ATOM      2  CB  LYS A 131      28.345  25.722  17.026  1.00 20.94     0.034 C 
BRANCH   2   3
ATOM      3  CG  LYS A 131      27.599  24.434  16.714  1.00 22.96     0.005 C 
BRANCH   3   4
ATOM      4  CD  LYS A 131      26.993  23.818  17.945  1.00 24.33     0.041 C 
BRANCH   4   5
ATOM      5  CE  LYS A 131      25.612  24.419  18.187  1.00 26.91     0.338 C 
ATOM      6  NZ  LYS A 131      24.809  24.392  16.942  1.00 27.40     0.618 N 
ENDBRANCH   4   5
ENDBRANCH   3   4
ENDBRANCH   2   3
ENDBRANCH   1   2
END_RES LYS A 131
BEGIN_RES LYS A 135
REMARK  4 active torsions:
REMARK  status: ('A' for Active; 'I' for Inactive)
REMARK    5  A    between atoms: CA   and  CB  
REMARK    6  A    between atoms: CB   and  CG  
REMARK    7  A    between atoms: CG   and  CD  
REMARK    8  A    between atoms: CD   and  CE  
ROOT
ATOM      7  CA  LYS A 135      33.193  34.663   9.290  1.00 25.02     0.186 C 
ENDROOT
BRANCH   7   8
ATOM      8  CB  LYS A 135      32.060  35.360  10.034  1.00 26.63     0.034 C 
BRANCH   8   9
ATOM      9  CG  LYS A 135      30.708  34.742   9.788  1.00 29.45     0.005 C 
BRANCH   9  10
ATOM     10  CD  LYS A 135      30.521  34.432   8.311  1.00 32.00     0.041 C 
BRANCH  10  11
ATOM     11  CE  LYS A 135      29.301  35.150   7.765  1.00 34.25     0.338 C 
ATOM     12  NZ  LYS A 135      28.049  34.613   8.367  1.00 35.99     0.618 N 
ENDBRANCH  10  11
ENDBRANCH   9  10
ENDBRANCH   8   9
ENDBRANCH   7   8
END_RES LYS A 135
