REMARK VINA RESULT:    -5.445      1.393      2.057
REMARK INTER + INTRA:         -14.717
REMARK INTER:                  -8.024
REMARK INTRA:                  -6.693
REMARK UNBOUND:                -5.134
REMARK SMILES CC(=O)N[C@@H]1[C@@H](O)C[C@](O)(C(=O)O)O[C@H]1C(O)[C@H](O)CNC(=O)OCc1cn(-c2nc(C)nc(N)n2)nn1
REMARK SMILES IDX 21 1 22 2 23 3 20 5 18 6 16 7 15 8 9 9 8 10 14 11 6 12 5 13
REMARK SMILES IDX 10 14 11 16 12 17 13 18 7 20 4 22 2 23 1 25 3 26 17 27 19 29
REMARK SMILES IDX 24 31 25 32 26 33 27 34 38 35 28 36 37 37 29 38 36 39 30 40
REMARK SMILES IDX 34 41 31 42 33 43 32 44 35 45
REMARK H PARENT 21 4 10 15 13 19 7 21 4 24 17 28 19 30 35 46 35 47
REMARK Flexibility Score: inf
ROOT
ATOM      1  N   UNL     1      26.527  28.559  19.444  1.00  0.00    -0.319 N 
ATOM      2  C   UNL     1      25.725  28.639  18.289  1.00  0.00     0.407 C 
ATOM      3  O   UNL     1      25.250  27.646  17.695  1.00  0.00    -0.225 OA
ATOM      4  H   UNL     1      26.910  29.426  19.927  1.00  0.00     0.167 HD
ENDROOT
BRANCH   1   5
ATOM      5  C   UNL     1      26.851  27.264  20.004  1.00  0.00     0.154 C 
BRANCH   5   6
ATOM      6  C   UNL     1      27.423  27.459  21.373  1.00  0.00     0.165 C 
BRANCH   6   7
ATOM      7  C   UNL     1      28.937  27.505  21.306  1.00  0.00     0.176 C 
BRANCH   7   8
ATOM      8  C   UNL     1      29.380  28.891  21.750  1.00  0.00     0.178 C 
ATOM      9  C   UNL     1      29.600  30.426  19.976  1.00  0.00     0.269 C 
ATOM     10  C   UNL     1      31.089  30.279  19.981  1.00  0.00     0.112 C 
ATOM     11  O   UNL     1      28.888  29.793  20.903  1.00  0.00    -0.332 OA
ATOM     12  C   UNL     1      31.528  30.137  21.433  1.00  0.00     0.145 C 
ATOM     13  C   UNL     1      30.879  28.828  21.881  1.00  0.00     0.142 C 
BRANCH   9  14
ATOM     14  O   UNL     1      29.169  29.979  18.704  1.00  0.00    -0.357 OA
ATOM     15  H   UNL     1      29.840  29.396  18.281  1.00  0.00     0.214 HD
ENDBRANCH   9  14
BRANCH   9  16
ATOM     16  C   UNL     1      29.302  31.880  20.027  1.00  0.00     0.364 C 
ATOM     17  O   UNL     1      28.264  32.303  20.597  1.00  0.00    -0.246 OA
BRANCH  16  18
ATOM     18  O   UNL     1      30.139  32.824  19.456  1.00  0.00    -0.477 OA
ATOM     19  H   UNL     1      30.080  33.091  18.471  1.00  0.00     0.296 HD
ENDBRANCH  16  18
ENDBRANCH   9  16
BRANCH  12  20
ATOM     20  O   UNL     1      32.898  29.998  21.543  1.00  0.00    -0.391 OA
ATOM     21  H   UNL     1      33.261  30.879  21.845  1.00  0.00     0.211 HD
ENDBRANCH  12  20
BRANCH  13  22
ATOM     22  N   UNL     1      31.273  28.491  23.231  1.00  0.00    -0.348 N 
ATOM     23  C   UNL     1      32.305  27.552  23.480  1.00  0.00     0.217 C 
ATOM     24  H   UNL     1      30.752  28.978  23.996  1.00  0.00     0.163 HD
ATOM     25  C   UNL     1      32.660  27.251  24.884  1.00  0.00     0.114 C 
ATOM     26  O   UNL     1      32.921  26.976  22.556  1.00  0.00    -0.275 OA
ENDBRANCH  13  22
ENDBRANCH   7   8
BRANCH   7  27
ATOM     27  O   UNL     1      29.327  27.312  19.954  1.00  0.00    -0.388 OA
ATOM     28  H   UNL     1      30.229  27.740  19.902  1.00  0.00     0.211 HD
ENDBRANCH   7  27
ENDBRANCH   6   7
BRANCH   6  29
ATOM     29  O   UNL     1      26.986  26.416  22.202  1.00  0.00    -0.388 OA
ATOM     30  H   UNL     1      27.571  25.641  22.132  1.00  0.00     0.211 HD
ENDBRANCH   6  29
ENDBRANCH   5   6
ENDBRANCH   1   5
BRANCH   2  31
ATOM     31  O   UNL     1      25.432  29.909  17.763  1.00  0.00    -0.443 OA
BRANCH  31  32
ATOM     32  C   UNL     1      25.589  30.091  16.372  1.00  0.00     0.294 C 
BRANCH  32  33
ATOM     33  C   UNL     1      27.021  30.440  16.093  1.00  0.00     0.121 A 
ATOM     34  C   UNL     1      27.574  31.704  16.002  1.00  0.00     0.148 A 
ATOM     35  N   UNL     1      28.058  29.600  15.874  1.00  0.00    -0.131 NA
ATOM     36  N   UNL     1      28.893  31.608  15.740  1.00  0.00    -0.185 N 
ATOM     37  N   UNL     1      29.155  30.322  15.668  1.00  0.00    -0.059 NA
BRANCH  36  38
ATOM     38  C   UNL     1      29.810  32.694  15.575  1.00  0.00     0.257 A 
ATOM     39  N   UNL     1      30.547  33.163  16.600  1.00  0.00    -0.175 NA
ATOM     40  N   UNL     1      29.968  33.290  14.377  1.00  0.00    -0.196 NA
ATOM     41  C   UNL     1      31.417  34.178  16.488  1.00  0.00     0.225 A 
ATOM     42  C   UNL     1      30.832  34.322  14.199  1.00  0.00     0.133 A 
ATOM     43  N   UNL     1      31.536  34.743  15.255  1.00  0.00    -0.198 NA
ATOM     44  C   UNL     1      31.015  34.987  12.882  1.00  0.00     0.090 C 
BRANCH  41  45
ATOM     45  N   UNL     1      32.190  34.671  17.559  1.00  0.00    -0.368 N 
ATOM     46  H   UNL     1      33.073  35.165  17.373  1.00  0.00     0.159 HD
ATOM     47  H   UNL     1      31.868  34.535  18.527  1.00  0.00     0.159 HD
ENDBRANCH  41  45
ENDBRANCH  36  38
ENDBRANCH  32  33
ENDBRANCH  31  32
ENDBRANCH   2  31
TORSDOF 16
BEGIN_RES LYS A 131
REMARK  4 active torsions:
REMARK  status: ('A' for Active; 'I' for Inactive)
REMARK    1  A    between atoms: CA   and  CB  
REMARK    2  A    between atoms: CB   and  CG  
REMARK    3  A    between atoms: CG   and  CD  
REMARK    4  A    between atoms: CD   and  CE  
ROOT
ATOM      1  CA  LYS A 131      29.867  25.555  16.977  1.00 20.52     0.186 C 
ENDROOT
BRANCH   1   2
ATOM      2  CB  LYS A 131      28.345  25.722  17.026  1.00 20.94     0.034 C 
BRANCH   2   3
ATOM      3  CG  LYS A 131      27.601  24.402  16.892  1.00 22.96     0.005 C 
BRANCH   3   4
ATOM      4  CD  LYS A 131      26.660  24.163  18.041  1.00 24.33     0.041 C 
BRANCH   4   5
ATOM      5  CE  LYS A 131      25.223  24.160  17.529  1.00 26.91     0.338 C 
ATOM      6  NZ  LYS A 131      24.736  22.771  17.359  1.00 27.40     0.618 N 
ENDBRANCH   4   5
ENDBRANCH   3   4
ENDBRANCH   2   3
ENDBRANCH   1   2
END_RES LYS A 131
BEGIN_RES LYS A 135
REMARK  4 active torsions:
REMARK  status: ('A' for Active; 'I' for Inactive)
REMARK    5  A    between atoms: CA   and  CB  
REMARK    6  A    between atoms: CB   and  CG  
REMARK    7  A    between atoms: CG   and  CD  
REMARK    8  A    between atoms: CD   and  CE  
ROOT
ATOM      7  CA  LYS A 135      33.193  34.663   9.290  1.00 25.02     0.186 C 
ENDROOT
BRANCH   7   8
ATOM      8  CB  LYS A 135      32.060  35.360  10.034  1.00 26.63     0.034 C 
BRANCH   8   9
ATOM      9  CG  LYS A 135      30.799  35.496   9.221  1.00 29.45     0.005 C 
BRANCH   9  10
ATOM     10  CD  LYS A 135      30.101  34.151   9.085  1.00 32.00     0.041 C 
BRANCH  10  11
ATOM     11  CE  LYS A 135      28.648  34.343   8.691  1.00 34.25     0.338 C 
ATOM     12  NZ  LYS A 135      27.740  33.617   9.621  1.00 35.99     0.618 N 
ENDBRANCH  10  11
ENDBRANCH   9  10
ENDBRANCH   8   9
ENDBRANCH   7   8
END_RES LYS A 135
