REMARK VINA RESULT:    -4.829      6.083     10.569
REMARK INTER + INTRA:         -14.847
REMARK INTER:                  -9.229
REMARK INTRA:                  -5.618
REMARK UNBOUND:                -6.490
REMARK SMILES CC(=O)N[C@@H]1[C@@H](O)C[C@](O)(C(=O)O)O[C@H]1C(O)[C@H](O)CNC(=O)OCc1cn(-c2ccc3[nH]ncc3c2)nn1
REMARK SMILES IDX 20 1 18 2 16 3 15 4 9 5 8 6 14 7 6 8 5 9 10 10 11 12 12 13
REMARK SMILES IDX 13 14 7 16 4 18 2 19 1 21 3 22 17 23 19 25 21 27 22 28 23 30
REMARK SMILES IDX 24 31 25 32 26 33 27 34 39 35 28 36 38 37 29 38 30 39 37 40
REMARK SMILES IDX 31 41 36 42 32 43 35 44 33 45 34 46
REMARK H PARENT 10 11 13 15 7 17 4 20 17 24 19 26 21 29 33 47
REMARK Flexibility Score: inf
ROOT
ATOM      1  C   UNL     1      16.473  33.509   8.209  1.00  0.00     0.154 C 
ENDROOT
BRANCH   1   2
ATOM      2  C   UNL     1      17.929  33.514   8.040  1.00  0.00     0.165 C 
BRANCH   2   3
ATOM      3  C   UNL     1      18.554  34.766   8.694  1.00  0.00     0.176 C 
BRANCH   3   4
ATOM      4  C   UNL     1      19.177  35.683   7.735  1.00  0.00     0.178 C 
ATOM      5  C   UNL     1      21.362  36.052   8.483  1.00  0.00     0.269 C 
ATOM      6  C   UNL     1      20.772  37.089   9.396  1.00  0.00     0.112 C 
ATOM      7  O   UNL     1      20.519  35.587   7.516  1.00  0.00    -0.332 OA
ATOM      8  C   UNL     1      19.720  37.926   8.757  1.00  0.00     0.145 C 
ATOM      9  C   UNL     1      18.733  37.135   7.960  1.00  0.00     0.142 C 
BRANCH   5  10
ATOM     10  O   UNL     1      21.839  34.986   9.246  1.00  0.00    -0.357 OA
ATOM     11  H   UNL     1      21.405  34.131   9.005  1.00  0.00     0.214 HD
ENDBRANCH   5  10
BRANCH   5  12
ATOM     12  C   UNL     1      22.519  36.681   7.806  1.00  0.00     0.364 C 
ATOM     13  O   UNL     1      23.518  37.017   8.464  1.00  0.00    -0.246 OA
BRANCH  12  14
ATOM     14  O   UNL     1      22.485  36.894   6.444  1.00  0.00    -0.477 OA
ATOM     15  H   UNL     1      21.627  37.147   5.935  1.00  0.00     0.296 HD
ENDBRANCH  12  14
ENDBRANCH   5  12
BRANCH   8  16
ATOM     16  O   UNL     1      19.083  38.667   9.771  1.00  0.00    -0.391 OA
ATOM     17  H   UNL     1      19.434  38.305  10.619  1.00  0.00     0.211 HD
ENDBRANCH   8  16
BRANCH   9  18
ATOM     18  N   UNL     1      18.352  37.778   6.730  1.00  0.00    -0.348 N 
ATOM     19  C   UNL     1      17.274  38.701   6.656  1.00  0.00     0.217 C 
ATOM     20  H   UNL     1      18.886  37.567   5.834  1.00  0.00     0.163 HD
ATOM     21  C   UNL     1      16.922  39.334   5.370  1.00  0.00     0.114 C 
ATOM     22  O   UNL     1      16.632  38.962   7.705  1.00  0.00    -0.275 OA
ENDBRANCH   9  18
ENDBRANCH   3   4
BRANCH   3  23
ATOM     23  O   UNL     1      17.365  35.435   9.160  1.00  0.00    -0.388 OA
ATOM     24  H   UNL     1      17.510  35.787  10.068  1.00  0.00     0.211 HD
ENDBRANCH   3  23
ENDBRANCH   2   3
BRANCH   2  25
ATOM     25  O   UNL     1      18.141  33.734   6.625  1.00  0.00    -0.388 OA
ATOM     26  H   UNL     1      17.471  33.200   6.115  1.00  0.00     0.211 HD
ENDBRANCH   2  25
ENDBRANCH   1   2
BRANCH   1  27
ATOM     27  N   UNL     1      15.929  32.497   9.071  1.00  0.00    -0.319 N 
ATOM     28  C   UNL     1      15.442  32.796  10.371  1.00  0.00     0.407 C 
ATOM     29  H   UNL     1      15.831  31.524   8.741  1.00  0.00     0.167 HD
ATOM     30  O   UNL     1      15.496  33.990  10.765  1.00  0.00    -0.225 OA
BRANCH  28  31
ATOM     31  O   UNL     1      14.916  31.855  11.225  1.00  0.00    -0.443 OA
BRANCH  31  32
ATOM     32  C   UNL     1      15.535  31.414  12.418  1.00  0.00     0.294 C 
BRANCH  32  33
ATOM     33  C   UNL     1      16.878  30.850  12.052  1.00  0.00     0.121 A 
ATOM     34  C   UNL     1      18.105  31.132  12.611  1.00  0.00     0.144 A 
ATOM     35  N   UNL     1      17.139  29.933  11.078  1.00  0.00    -0.131 NA
ATOM     36  N   UNL     1      19.029  30.378  11.949  1.00  0.00    -0.220 N 
ATOM     37  N   UNL     1      18.414  29.661  11.026  1.00  0.00    -0.062 NA
BRANCH  36  38
ATOM     38  C   UNL     1      20.420  30.383  12.228  1.00  0.00     0.067 A 
ATOM     39  C   UNL     1      21.118  29.190  12.222  1.00  0.00     0.030 A 
ATOM     40  C   UNL     1      21.133  31.529  12.510  1.00  0.00     0.040 A 
ATOM     41  C   UNL     1      22.470  29.133  12.486  1.00  0.00     0.030 A 
ATOM     42  C   UNL     1      22.472  31.496  12.774  1.00  0.00     0.022 A 
ATOM     43  C   UNL     1      23.173  30.292  12.767  1.00  0.00     0.065 A 
ATOM     44  C   UNL     1      23.408  32.457  13.078  1.00  0.00     0.143 A 
ATOM     45  N   UNL     1      24.459  30.549  13.056  1.00  0.00    -0.278 N 
ATOM     46  N   UNL     1      24.613  31.840  13.244  1.00  0.00    -0.183 NA
ATOM     47  H   UNL     1      25.206  29.833  13.118  1.00  0.00     0.190 HD
ENDBRANCH  36  38
ENDBRANCH  32  33
ENDBRANCH  31  32
ENDBRANCH  28  31
ENDBRANCH   1  27
TORSDOF 15
BEGIN_RES LYS A 131
REMARK  4 active torsions:
REMARK  status: ('A' for Active; 'I' for Inactive)
REMARK    1  A    between atoms: CA   and  CB  
REMARK    2  A    between atoms: CB   and  CG  
REMARK    3  A    between atoms: CG   and  CD  
REMARK    4  A    between atoms: CD   and  CE  
ROOT
ATOM      1  CA  LYS A 131      29.867  25.555  16.977  1.00 20.52     0.186 C 
ENDROOT
BRANCH   1   2
ATOM      2  CB  LYS A 131      28.345  25.722  17.026  1.00 20.94     0.034 C 
BRANCH   2   3
ATOM      3  CG  LYS A 131      27.601  24.403  16.881  1.00 22.96     0.005 C 
BRANCH   3   4
ATOM      4  CD  LYS A 131      26.146  24.531  17.240  1.00 24.33     0.041 C 
BRANCH   4   5
ATOM      5  CE  LYS A 131      25.947  24.145  18.702  1.00 26.91     0.338 C 
ATOM      6  NZ  LYS A 131      24.507  24.174  19.054  1.00 27.40     0.618 N 
ENDBRANCH   4   5
ENDBRANCH   3   4
ENDBRANCH   2   3
ENDBRANCH   1   2
END_RES LYS A 131
BEGIN_RES LYS A 135
REMARK  4 active torsions:
REMARK  status: ('A' for Active; 'I' for Inactive)
REMARK    5  A    between atoms: CA   and  CB  
REMARK    6  A    between atoms: CB   and  CG  
REMARK    7  A    between atoms: CG   and  CD  
REMARK    8  A    between atoms: CD   and  CE  
ROOT
ATOM      7  CA  LYS A 135      33.193  34.663   9.290  1.00 25.02     0.186 C 
ENDROOT
BRANCH   7   8
ATOM      8  CB  LYS A 135      32.060  35.360  10.034  1.00 26.63     0.034 C 
BRANCH   8   9
ATOM      9  CG  LYS A 135      30.756  34.607   9.988  1.00 29.45     0.005 C 
BRANCH   9  10
ATOM     10  CD  LYS A 135      30.359  34.308   8.550  1.00 32.00     0.041 C 
BRANCH  10  11
ATOM     11  CE  LYS A 135      28.876  34.550   8.346  1.00 34.25     0.338 C 
ATOM     12  NZ  LYS A 135      28.068  33.828   9.368  1.00 35.99     0.618 N 
ENDBRANCH  10  11
ENDBRANCH   9  10
ENDBRANCH   8   9
ENDBRANCH   7   8
END_RES LYS A 135
