REMARK VINA RESULT:    -5.023      4.622      8.859
REMARK INTER + INTRA:         -15.247
REMARK INTER:                  -9.958
REMARK INTRA:                  -5.289
REMARK UNBOUND:                -5.671
REMARK SMILES CCOC(=O)c1cccc(-n2cc(COC(=O)NC[C@@H](O)C(O)[C@@H]3O[C@@](O)(C(=O)O)C[C@H](O)[C@H]3NC(C)=O)nn2)c1
REMARK SMILES IDX 18 1 16 2 17 3 19 5 20 6 22 7 24 8 26 9 31 10 25 11 32 12
REMARK SMILES IDX 34 13 27 14 28 16 29 17 30 18 33 20 35 22 36 23 37 25 38 26
REMARK SMILES IDX 23 27 21 29 15 31 14 32 13 33 12 34 39 35 11 36 40 37 10 38
REMARK SMILES IDX 41 39 9 40 6 41 8 42 7 43 4 44 5 45 3 46 2 47 1 48
REMARK H PARENT 18 4 27 15 30 19 33 21 35 24 23 28 21 30
REMARK Flexibility Score: inf
ROOT
ATOM      1  N   UNL     1      23.656  32.354  14.252  1.00  0.00    -0.319 N 
ATOM      2  C   UNL     1      23.328  30.972  14.195  1.00  0.00     0.407 C 
ATOM      3  O   UNL     1      22.188  30.644  13.783  1.00  0.00    -0.225 OA
ATOM      4  H   UNL     1      24.605  32.602  14.596  1.00  0.00     0.167 HD
ENDROOT
BRANCH   1   5
ATOM      5  C   UNL     1      22.708  33.374  13.852  1.00  0.00     0.154 C 
BRANCH   5   6
ATOM      6  C   UNL     1      22.862  33.783  12.425  1.00  0.00     0.165 C 
BRANCH   6   7
ATOM      7  C   UNL     1      23.321  35.194  12.250  1.00  0.00     0.176 C 
BRANCH   7   8
ATOM      8  C   UNL     1      24.257  35.309  11.019  1.00  0.00     0.178 C 
ATOM      9  C   UNL     1      26.350  35.922  10.416  1.00  0.00     0.269 C 
ATOM     10  C   UNL     1      25.878  37.061   9.542  1.00  0.00     0.112 C 
ATOM     11  O   UNL     1      25.479  35.757  11.447  1.00  0.00    -0.332 OA
ATOM     12  C   UNL     1      24.490  36.848   9.016  1.00  0.00     0.145 C 
ATOM     13  C   UNL     1      23.589  36.113   9.966  1.00  0.00     0.142 C 
BRANCH   9  14
ATOM     14  O   UNL     1      27.569  36.385  10.988  1.00  0.00    -0.357 OA
ATOM     15  H   UNL     1      27.432  37.153  11.570  1.00  0.00     0.214 HD
ENDBRANCH   9  14
BRANCH   9  16
ATOM     16  C   UNL     1      26.659  34.732   9.611  1.00  0.00     0.364 C 
ATOM     17  O   UNL     1      26.271  34.584   8.404  1.00  0.00    -0.246 OA
BRANCH  16  18
ATOM     18  O   UNL     1      27.421  33.707  10.206  1.00  0.00    -0.477 OA
ATOM     19  H   UNL     1      27.027  32.759  10.183  1.00  0.00     0.296 HD
ENDBRANCH  16  18
ENDBRANCH   9  16
BRANCH  12  20
ATOM     20  O   UNL     1      23.956  38.083   8.653  1.00  0.00    -0.391 OA
ATOM     21  H   UNL     1      24.302  38.826   9.207  1.00  0.00     0.211 HD
ENDBRANCH  12  20
BRANCH  13  22
ATOM     22  N   UNL     1      22.628  35.286   9.259  1.00  0.00    -0.348 N 
ATOM     23  C   UNL     1      21.413  35.814   8.750  1.00  0.00     0.217 C 
ATOM     24  H   UNL     1      22.860  34.257   9.128  1.00  0.00     0.163 HD
ATOM     25  C   UNL     1      20.478  34.904   8.038  1.00  0.00     0.114 C 
ATOM     26  O   UNL     1      21.117  37.049   8.894  1.00  0.00    -0.275 OA
ENDBRANCH  13  22
ENDBRANCH   7   8
BRANCH   7  27
ATOM     27  O   UNL     1      22.320  36.121  12.100  1.00  0.00    -0.388 OA
ATOM     28  H   UNL     1      22.473  36.979  12.533  1.00  0.00     0.211 HD
ENDBRANCH   7  27
ENDBRANCH   6   7
BRANCH   6  29
ATOM     29  O   UNL     1      21.717  33.480  11.693  1.00  0.00    -0.388 OA
ATOM     30  H   UNL     1      21.393  34.331  11.291  1.00  0.00     0.211 HD
ENDBRANCH   6  29
ENDBRANCH   5   6
ENDBRANCH   1   5
BRANCH   2  31
ATOM     31  O   UNL     1      24.196  29.960  14.566  1.00  0.00    -0.443 OA
BRANCH  31  32
ATOM     32  C   UNL     1      24.619  29.788  15.906  1.00  0.00     0.294 C 
BRANCH  32  33
ATOM     33  C   UNL     1      26.064  30.056  16.033  1.00  0.00     0.121 A 
ATOM     34  C   UNL     1      26.791  31.134  15.557  1.00  0.00     0.144 A 
ATOM     35  N   UNL     1      26.978  29.279  16.653  1.00  0.00    -0.131 NA
ATOM     36  N   UNL     1      28.088  30.980  15.896  1.00  0.00    -0.220 N 
ATOM     37  N   UNL     1      28.159  29.828  16.568  1.00  0.00    -0.062 NA
BRANCH  36  38
ATOM     38  C   UNL     1      29.185  31.826  15.623  1.00  0.00     0.067 A 
ATOM     39  C   UNL     1      29.095  32.851  14.700  1.00  0.00     0.044 A 
ATOM     40  C   UNL     1      30.390  31.663  16.269  1.00  0.00     0.028 A 
ATOM     41  C   UNL     1      30.143  33.701  14.404  1.00  0.00     0.062 A 
ATOM     42  C   UNL     1      31.464  32.504  15.994  1.00  0.00     0.003 A 
ATOM     43  C   UNL     1      31.332  33.509  15.069  1.00  0.00     0.016 A 
BRANCH  41  44
ATOM     44  C   UNL     1      30.019  34.774  13.425  1.00  0.00     0.338 C 
ATOM     45  O   UNL     1      29.263  34.620  12.434  1.00  0.00    -0.246 OA
BRANCH  44  46
ATOM     46  O   UNL     1      30.704  35.972  13.541  1.00  0.00    -0.462 OA
BRANCH  46  47
ATOM     47  C   UNL     1      31.954  36.200  12.920  1.00  0.00     0.230 C 
ATOM     48  C   UNL     1      31.872  37.471  12.126  1.00  0.00     0.049 C 
ENDBRANCH  46  47
ENDBRANCH  44  46
ENDBRANCH  41  44
ENDBRANCH  36  38
ENDBRANCH  32  33
ENDBRANCH  31  32
ENDBRANCH   2  31
TORSDOF 18
BEGIN_RES LYS A 131
REMARK  4 active torsions:
REMARK  status: ('A' for Active; 'I' for Inactive)
REMARK    1  A    between atoms: CA   and  CB  
REMARK    2  A    between atoms: CB   and  CG  
REMARK    3  A    between atoms: CG   and  CD  
REMARK    4  A    between atoms: CD   and  CE  
ROOT
ATOM      1  CA  LYS A 131      29.867  25.555  16.977  1.00 20.52     0.186 C 
ENDROOT
BRANCH   1   2
ATOM      2  CB  LYS A 131      28.345  25.722  17.026  1.00 20.94     0.034 C 
BRANCH   2   3
ATOM      3  CG  LYS A 131      27.599  24.472  16.585  1.00 22.96     0.005 C 
BRANCH   3   4
ATOM      4  CD  LYS A 131      27.157  23.634  17.752  1.00 24.33     0.041 C 
BRANCH   4   5
ATOM      5  CE  LYS A 131      25.686  23.269  17.589  1.00 26.91     0.338 C 
ATOM      6  NZ  LYS A 131      24.945  24.376  16.940  1.00 27.40     0.618 N 
ENDBRANCH   4   5
ENDBRANCH   3   4
ENDBRANCH   2   3
ENDBRANCH   1   2
END_RES LYS A 131
BEGIN_RES LYS A 135
REMARK  4 active torsions:
REMARK  status: ('A' for Active; 'I' for Inactive)
REMARK    5  A    between atoms: CA   and  CB  
REMARK    6  A    between atoms: CB   and  CG  
REMARK    7  A    between atoms: CG   and  CD  
REMARK    8  A    between atoms: CD   and  CE  
ROOT
ATOM      7  CA  LYS A 135      33.193  34.663   9.290  1.00 25.02     0.186 C 
ENDROOT
BRANCH   7   8
ATOM      8  CB  LYS A 135      32.060  35.360  10.034  1.00 26.63     0.034 C 
BRANCH   8   9
ATOM      9  CG  LYS A 135      30.730  35.267   9.331  1.00 29.45     0.005 C 
BRANCH   9  10
ATOM     10  CD  LYS A 135      30.231  36.650   8.941  1.00 32.00     0.041 C 
BRANCH  10  11
ATOM     11  CE  LYS A 135      29.288  36.561   7.757  1.00 34.25     0.338 C 
ATOM     12  NZ  LYS A 135      29.275  35.187   7.182  1.00 35.99     0.618 N 
ENDBRANCH  10  11
ENDBRANCH   9  10
ENDBRANCH   8   9
ENDBRANCH   7   8
END_RES LYS A 135
