REMARK VINA RESULT:    -5.496      8.267     13.006
REMARK INTER + INTRA:         -14.059
REMARK INTER:                  -7.878
REMARK INTRA:                  -6.181
REMARK UNBOUND:                -4.548
REMARK SMILES CC(=O)N[C@@H]1[C@@H](O)C[C@](O)(C(=O)O)O[C@H]1C(O)[C@H](O)CNC(=O)OCc1cn(-c2ccc3c(c2)OCO3)nn1
REMARK SMILES IDX 20 1 18 2 16 3 15 4 9 5 8 6 14 7 6 8 5 9 10 10 11 12 12 13
REMARK SMILES IDX 13 14 7 16 4 18 2 19 1 21 3 22 17 23 19 25 21 27 22 28 23 30
REMARK SMILES IDX 24 31 25 32 26 33 27 34 39 35 28 36 38 37 29 38 30 39 34 40
REMARK SMILES IDX 31 41 33 42 32 43 35 44 37 45 36 46
REMARK H PARENT 10 11 13 15 7 17 4 20 17 24 19 26 21 29
REMARK Flexibility Score: inf
ROOT
ATOM      1  C   UNL     1      21.395  36.083  13.755  1.00  0.00     0.154 C 
ENDROOT
BRANCH   1   2
ATOM      2  C   UNL     1      21.750  36.249  12.315  1.00  0.00     0.165 C 
BRANCH   2   3
ATOM      3  C   UNL     1      21.073  35.172  11.452  1.00  0.00     0.176 C 
BRANCH   3   4
ATOM      4  C   UNL     1      21.166  35.617  10.037  1.00  0.00     0.178 C 
ATOM      5  C   UNL     1      21.322  37.401   8.628  1.00  0.00     0.269 C 
ATOM      6  C   UNL     1      21.461  36.262   7.641  1.00  0.00     0.112 C 
ATOM      7  O   UNL     1      21.295  36.998   9.940  1.00  0.00    -0.332 OA
ATOM      8  C   UNL     1      20.356  35.233   7.795  1.00  0.00     0.145 C 
ATOM      9  C   UNL     1      19.926  35.249   9.222  1.00  0.00     0.142 C 
BRANCH   5  10
ATOM     10  O   UNL     1      20.174  38.104   8.253  1.00  0.00    -0.357 OA
ATOM     11  H   UNL     1      20.493  38.986   7.923  1.00  0.00     0.214 HD
ENDBRANCH   5  10
BRANCH   5  12
ATOM     12  C   UNL     1      22.512  38.265   8.451  1.00  0.00     0.364 C 
ATOM     13  O   UNL     1      23.230  38.530   9.443  1.00  0.00    -0.246 OA
BRANCH  12  14
ATOM     14  O   UNL     1      22.874  38.800   7.226  1.00  0.00    -0.477 OA
ATOM     15  H   UNL     1      23.675  39.408   7.095  1.00  0.00     0.296 HD
ENDBRANCH  12  14
ENDBRANCH   5  12
BRANCH   8  16
ATOM     16  O   UNL     1      19.321  35.653   6.931  1.00  0.00    -0.391 OA
ATOM     17  H   UNL     1      19.194  36.618   6.983  1.00  0.00     0.211 HD
ENDBRANCH   8  16
BRANCH   9  18
ATOM     18  N   UNL     1      19.273  34.078   9.685  1.00  0.00    -0.348 N 
ATOM     19  C   UNL     1      17.906  33.738   9.499  1.00  0.00     0.217 C 
ATOM     20  H   UNL     1      19.843  33.386  10.218  1.00  0.00     0.163 HD
ATOM     21  C   UNL     1      17.315  32.473  10.029  1.00  0.00     0.114 C 
ATOM     22  O   UNL     1      17.197  34.548   8.862  1.00  0.00    -0.275 OA
ENDBRANCH   9  18
ENDBRANCH   3   4
BRANCH   3  23
ATOM     23  O   UNL     1      21.723  33.990  11.680  1.00  0.00    -0.388 OA
ATOM     24  H   UNL     1      22.119  33.529  10.932  1.00  0.00     0.211 HD
ENDBRANCH   3  23
ENDBRANCH   2   3
BRANCH   2  25
ATOM     25  O   UNL     1      23.101  36.167  12.108  1.00  0.00    -0.388 OA
ATOM     26  H   UNL     1      23.461  36.664  11.342  1.00  0.00     0.211 HD
ENDBRANCH   2  25
ENDBRANCH   1   2
BRANCH   1  27
ATOM     27  N   UNL     1      22.368  35.331  14.466  1.00  0.00    -0.319 N 
ATOM     28  C   UNL     1      22.170  34.007  14.891  1.00  0.00     0.407 C 
ATOM     29  H   UNL     1      23.312  35.762  14.708  1.00  0.00     0.167 HD
ATOM     30  O   UNL     1      21.134  33.344  14.714  1.00  0.00    -0.225 OA
BRANCH  28  31
ATOM     31  O   UNL     1      23.210  33.355  15.576  1.00  0.00    -0.443 OA
BRANCH  31  32
ATOM     32  C   UNL     1      24.054  32.491  14.876  1.00  0.00     0.294 C 
BRANCH  32  33
ATOM     33  C   UNL     1      24.850  33.275  13.898  1.00  0.00     0.121 A 
ATOM     34  C   UNL     1      26.107  33.831  14.114  1.00  0.00     0.144 A 
ATOM     35  N   UNL     1      24.537  33.605  12.633  1.00  0.00    -0.131 NA
ATOM     36  N   UNL     1      26.514  34.468  13.002  1.00  0.00    -0.220 N 
ATOM     37  N   UNL     1      25.535  34.307  12.130  1.00  0.00    -0.062 NA
BRANCH  36  38
ATOM     38  C   UNL     1      27.747  35.159  12.837  1.00  0.00     0.070 A 
ATOM     39  C   UNL     1      27.779  36.402  12.238  1.00  0.00     0.032 A 
ATOM     40  C   UNL     1      28.953  34.636  13.255  1.00  0.00     0.079 A 
ATOM     41  C   UNL     1      28.976  37.096  12.066  1.00  0.00     0.053 A 
ATOM     42  C   UNL     1      30.162  35.311  13.093  1.00  0.00     0.167 A 
ATOM     43  C   UNL     1      30.168  36.551  12.493  1.00  0.00     0.165 A 
ATOM     44  O   UNL     1      31.481  35.007  13.423  1.00  0.00    -0.454 OA
ATOM     45  O   UNL     1      31.508  36.978  12.470  1.00  0.00    -0.454 OA
ATOM     46  C   UNL     1      32.346  35.834  12.667  1.00  0.00     0.468 C 
ENDBRANCH  36  38
ENDBRANCH  32  33
ENDBRANCH  31  32
ENDBRANCH  28  31
ENDBRANCH   1  27
TORSDOF 15
BEGIN_RES LYS A 131
REMARK  4 active torsions:
REMARK  status: ('A' for Active; 'I' for Inactive)
REMARK    1  A    between atoms: CA   and  CB  
REMARK    2  A    between atoms: CB   and  CG  
REMARK    3  A    between atoms: CG   and  CD  
REMARK    4  A    between atoms: CD   and  CE  
ROOT
ATOM      1  CA  LYS A 131      29.867  25.555  16.977  1.00 20.52     0.186 C 
ENDROOT
BRANCH   1   2
ATOM      2  CB  LYS A 131      28.345  25.722  17.026  1.00 20.94     0.034 C 
BRANCH   2   3
ATOM      3  CG  LYS A 131      27.602  24.399  16.918  1.00 22.96     0.005 C 
BRANCH   3   4
ATOM      4  CD  LYS A 131      26.158  24.527  17.317  1.00 24.33     0.041 C 
BRANCH   4   5
ATOM      5  CE  LYS A 131      25.945  23.874  18.678  1.00 26.91     0.338 C 
ATOM      6  NZ  LYS A 131      25.549  24.887  19.684  1.00 27.40     0.618 N 
ENDBRANCH   4   5
ENDBRANCH   3   4
ENDBRANCH   2   3
ENDBRANCH   1   2
END_RES LYS A 131
BEGIN_RES LYS A 135
REMARK  4 active torsions:
REMARK  status: ('A' for Active; 'I' for Inactive)
REMARK    5  A    between atoms: CA   and  CB  
REMARK    6  A    between atoms: CB   and  CG  
REMARK    7  A    between atoms: CG   and  CD  
REMARK    8  A    between atoms: CD   and  CE  
ROOT
ATOM      7  CA  LYS A 135      33.193  34.663   9.290  1.00 25.02     0.186 C 
ENDROOT
BRANCH   7   8
ATOM      8  CB  LYS A 135      32.060  35.360  10.034  1.00 26.63     0.034 C 
BRANCH   8   9
ATOM      9  CG  LYS A 135      30.801  35.503   9.218  1.00 29.45     0.005 C 
BRANCH   9  10
ATOM     10  CD  LYS A 135      29.903  34.289   9.400  1.00 32.00     0.041 C 
BRANCH  10  11
ATOM     11  CE  LYS A 135      28.522  34.558   8.834  1.00 34.25     0.338 C 
ATOM     12  NZ  LYS A 135      27.503  33.673   9.463  1.00 35.99     0.618 N 
ENDBRANCH  10  11
ENDBRANCH   9  10
ENDBRANCH   8   9
ENDBRANCH   7   8
END_RES LYS A 135
