REMARK VINA RESULT:    -5.076      2.101      5.357
REMARK INTER + INTRA:         -13.797
REMARK INTER:                  -8.281
REMARK INTRA:                  -5.516
REMARK UNBOUND:                -5.012
REMARK SMILES CC(=O)N[C@@H]1[C@@H](O)C[C@](O)(C(=O)O)O[C@H]1C(O)[C@H](O)CNC(=O)OCc1cn(-c2ccc(C)cc2)nn1
REMARK SMILES IDX 20 1 18 2 16 3 15 4 9 5 8 6 14 7 6 8 5 9 10 10 11 12 12 13
REMARK SMILES IDX 13 14 7 16 4 18 2 19 1 21 3 22 17 23 19 25 21 27 22 28 23 30
REMARK SMILES IDX 24 31 25 32 26 33 27 34 37 35 28 36 36 37 29 38 30 39 35 40
REMARK SMILES IDX 31 41 34 42 32 43 33 44
REMARK H PARENT 10 11 13 15 7 17 4 20 17 24 19 26 21 29
REMARK Flexibility Score: inf
ROOT
ATOM      1  C   UNL     1      26.594  30.381  16.055  1.00  0.00     0.154 C 
ENDROOT
BRANCH   1   2
ATOM      2  C   UNL     1      27.981  30.867  16.135  1.00  0.00     0.165 C 
BRANCH   2   3
ATOM      3  C   UNL     1      28.291  32.279  15.756  1.00  0.00     0.176 C 
BRANCH   3   4
ATOM      4  C   UNL     1      29.205  33.038  16.665  1.00  0.00     0.178 C 
ATOM      5  C   UNL     1      30.216  34.535  15.172  1.00  0.00     0.269 C 
ATOM      6  C   UNL     1      31.618  34.050  15.496  1.00  0.00     0.112 C 
ATOM      7  O   UNL     1      29.319  34.348  16.176  1.00  0.00    -0.332 OA
ATOM      8  C   UNL     1      31.539  32.623  16.014  1.00  0.00     0.145 C 
ATOM      9  C   UNL     1      30.499  32.465  17.075  1.00  0.00     0.142 C 
BRANCH   5  10
ATOM     10  O   UNL     1      29.872  33.979  13.964  1.00  0.00    -0.357 OA
ATOM     11  H   UNL     1      30.619  33.535  13.486  1.00  0.00     0.214 HD
ENDBRANCH   5  10
BRANCH   5  12
ATOM     12  C   UNL     1      30.350  36.013  14.980  1.00  0.00     0.364 C 
ATOM     13  O   UNL     1      29.566  36.836  15.541  1.00  0.00    -0.246 OA
BRANCH  12  14
ATOM     14  O   UNL     1      31.348  36.517  14.171  1.00  0.00    -0.477 OA
ATOM     15  H   UNL     1      31.653  37.485  14.300  1.00  0.00     0.296 HD
ENDBRANCH  12  14
ENDBRANCH   5  12
BRANCH   8  16
ATOM     16  O   UNL     1      31.132  31.878  14.906  1.00  0.00    -0.391 OA
ATOM     17  H   UNL     1      31.011  30.920  15.133  1.00  0.00     0.211 HD
ENDBRANCH   8  16
BRANCH   9  18
ATOM     18  N   UNL     1      30.851  33.089  18.336  1.00  0.00    -0.348 N 
ATOM     19  C   UNL     1      30.904  32.395  19.556  1.00  0.00     0.217 C 
ATOM     20  H   UNL     1      31.069  34.106  18.285  1.00  0.00     0.163 HD
ATOM     21  C   UNL     1      31.258  33.002  20.853  1.00  0.00     0.114 C 
ATOM     22  O   UNL     1      30.626  31.182  19.508  1.00  0.00    -0.275 OA
ENDBRANCH   9  18
ENDBRANCH   3   4
BRANCH   3  23
ATOM     23  O   UNL     1      27.028  32.988  16.020  1.00  0.00    -0.388 OA
ATOM     24  H   UNL     1      26.301  32.355  15.779  1.00  0.00     0.211 HD
ENDBRANCH   3  23
ENDBRANCH   2   3
BRANCH   2  25
ATOM     25  O   UNL     1      28.893  29.943  15.649  1.00  0.00    -0.388 OA
ATOM     26  H   UNL     1      29.388  30.297  14.847  1.00  0.00     0.211 HD
ENDBRANCH   2  25
ENDBRANCH   1   2
BRANCH   1  27
ATOM     27  N   UNL     1      25.888  30.730  14.820  1.00  0.00    -0.319 N 
ATOM     28  C   UNL     1      24.574  30.279  14.560  1.00  0.00     0.407 C 
ATOM     29  H   UNL     1      26.330  31.324  14.071  1.00  0.00     0.167 HD
ATOM     30  O   UNL     1      23.993  29.568  15.387  1.00  0.00    -0.225 OA
BRANCH  28  31
ATOM     31  O   UNL     1      23.882  30.600  13.391  1.00  0.00    -0.443 OA
BRANCH  31  32
ATOM     32  C   UNL     1      23.198  31.829  13.309  1.00  0.00     0.294 C 
BRANCH  32  33
ATOM     33  C   UNL     1      24.077  32.990  13.480  1.00  0.00     0.121 A 
ATOM     34  C   UNL     1      24.706  33.634  12.434  1.00  0.00     0.144 A 
ATOM     35  N   UNL     1      24.461  33.664  14.582  1.00  0.00    -0.131 NA
ATOM     36  N   UNL     1      25.443  34.661  12.907  1.00  0.00    -0.220 N 
ATOM     37  N   UNL     1      25.270  34.648  14.211  1.00  0.00    -0.062 NA
BRANCH  36  38
ATOM     38  C   UNL     1      26.254  35.592  12.192  1.00  0.00     0.066 A 
ATOM     39  C   UNL     1      25.750  36.294  11.116  1.00  0.00     0.029 A 
ATOM     40  C   UNL     1      27.569  35.832  12.535  1.00  0.00     0.029 A 
ATOM     41  C   UNL     1      26.524  37.199  10.415  1.00  0.00     0.005 A 
ATOM     42  C   UNL     1      28.347  36.734  11.838  1.00  0.00     0.005 A 
ATOM     43  C   UNL     1      27.837  37.433  10.766  1.00  0.00    -0.051 A 
ATOM     44  C   UNL     1      28.708  38.395  10.041  1.00  0.00     0.044 C 
ENDBRANCH  36  38
ENDBRANCH  32  33
ENDBRANCH  31  32
ENDBRANCH  28  31
ENDBRANCH   1  27
TORSDOF 15
BEGIN_RES LYS A 131
REMARK  4 active torsions:
REMARK  status: ('A' for Active; 'I' for Inactive)
REMARK    1  A    between atoms: CA   and  CB  
REMARK    2  A    between atoms: CB   and  CG  
REMARK    3  A    between atoms: CG   and  CD  
REMARK    4  A    between atoms: CD   and  CE  
ROOT
ATOM      1  CA  LYS A 131      29.867  25.555  16.977  1.00 20.52     0.186 C 
ENDROOT
BRANCH   1   2
ATOM      2  CB  LYS A 131      28.345  25.722  17.026  1.00 20.94     0.034 C 
BRANCH   2   3
ATOM      3  CG  LYS A 131      27.602  24.399  16.923  1.00 22.96     0.005 C 
BRANCH   3   4
ATOM      4  CD  LYS A 131      26.153  24.532  17.300  1.00 24.33     0.041 C 
BRANCH   4   5
ATOM      5  CE  LYS A 131      25.958  25.796  18.132  1.00 26.91     0.338 C 
ATOM      6  NZ  LYS A 131      25.776  25.452  19.562  1.00 27.40     0.618 N 
ENDBRANCH   4   5
ENDBRANCH   3   4
ENDBRANCH   2   3
ENDBRANCH   1   2
END_RES LYS A 131
BEGIN_RES LYS A 135
REMARK  4 active torsions:
REMARK  status: ('A' for Active; 'I' for Inactive)
REMARK    5  A    between atoms: CA   and  CB  
REMARK    6  A    between atoms: CB   and  CG  
REMARK    7  A    between atoms: CG   and  CD  
REMARK    8  A    between atoms: CD   and  CE  
ROOT
ATOM      7  CA  LYS A 135      33.193  34.663   9.290  1.00 25.02     0.186 C 
ENDROOT
BRANCH   7   8
ATOM      8  CB  LYS A 135      32.060  35.360  10.034  1.00 26.63     0.034 C 
BRANCH   8   9
ATOM      9  CG  LYS A 135      30.790  35.470   9.231  1.00 29.45     0.005 C 
BRANCH   9  10
ATOM     10  CD  LYS A 135      29.891  34.269   9.482  1.00 32.00     0.041 C 
BRANCH  10  11
ATOM     11  CE  LYS A 135      28.576  34.424   8.742  1.00 34.25     0.338 C 
ATOM     12  NZ  LYS A 135      27.490  33.654   9.410  1.00 35.99     0.618 N 
ENDBRANCH  10  11
ENDBRANCH   9  10
ENDBRANCH   8   9
ENDBRANCH   7   8
END_RES LYS A 135
