REMARK VINA RESULT:    -4.201      7.906     12.509
REMARK INTER + INTRA:         -14.943
REMARK INTER:                  -9.236
REMARK INTRA:                  -5.707
REMARK UNBOUND:                -7.426
REMARK SMILES CC(=O)N[C@@H]1[C@@H](O)C[C@](O)(C(=O)O)O[C@H]1C(O)[C@H](O)CNC(=O)OCc1cn(Cc2ccccc2Br)nn1
REMARK SMILES IDX 21 1 22 2 23 3 20 5 18 6 16 7 15 8 9 9 8 10 14 11 6 12 5 13
REMARK SMILES IDX 10 14 11 16 12 17 13 18 7 20 4 22 2 23 1 25 3 26 17 27 19 29
REMARK SMILES IDX 24 31 25 32 26 33 27 34 38 35 28 36 37 37 29 38 30 39 31 40
REMARK SMILES IDX 35 41 32 42 34 43 36 44 33 45
REMARK H PARENT 21 4 10 15 13 19 7 21 4 24 17 28 19 30
REMARK Flexibility Score: inf
ROOT
ATOM      1  N   UNL     1      23.495  38.911   7.135  1.00  0.00    -0.319 N 
ATOM      2  C   UNL     1      22.554  38.155   7.842  1.00  0.00     0.407 C 
ATOM      3  O   UNL     1      21.703  38.748   8.560  1.00  0.00    -0.225 OA
ATOM      4  H   UNL     1      24.191  38.376   6.543  1.00  0.00     0.167 HD
ENDROOT
BRANCH   1   5
ATOM      5  C   UNL     1      23.585  40.354   7.157  1.00  0.00     0.154 C 
BRANCH   5   6
ATOM      6  C   UNL     1      25.014  40.775   6.888  1.00  0.00     0.165 C 
BRANCH   6   7
ATOM      7  C   UNL     1      25.904  40.497   8.080  1.00  0.00     0.176 C 
BRANCH   7   8
ATOM      8  C   UNL     1      26.938  39.429   7.783  1.00  0.00     0.178 C 
ATOM      9  C   UNL     1      27.759  38.202   5.977  1.00  0.00     0.269 C 
ATOM     10  C   UNL     1      27.537  36.912   6.670  1.00  0.00     0.112 C 
ATOM     11  O   UNL     1      26.873  39.157   6.450  1.00  0.00    -0.332 OA
ATOM     12  C   UNL     1      26.749  36.932   7.922  1.00  0.00     0.145 C 
ATOM     13  C   UNL     1      26.759  38.232   8.673  1.00  0.00     0.142 C 
BRANCH   9  14
ATOM     14  O   UNL     1      27.424  38.042   4.607  1.00  0.00    -0.357 OA
ATOM     15  H   UNL     1      28.080  37.455   4.146  1.00  0.00     0.214 HD
ENDBRANCH   9  14
BRANCH   9  16
ATOM     16  C   UNL     1      29.160  38.622   6.041  1.00  0.00     0.364 C 
ATOM     17  O   UNL     1      29.623  39.592   5.381  1.00  0.00    -0.246 OA
BRANCH  16  18
ATOM     18  O   UNL     1      30.039  37.930   6.862  1.00  0.00    -0.477 OA
ATOM     19  H   UNL     1      31.006  37.756   6.613  1.00  0.00     0.296 HD
ENDBRANCH  16  18
ENDBRANCH   9  16
BRANCH  12  20
ATOM     20  O   UNL     1      25.430  36.507   7.677  1.00  0.00    -0.391 OA
ATOM     21  H   UNL     1      25.055  37.207   7.053  1.00  0.00     0.211 HD
ENDBRANCH  12  20
BRANCH  13  22
ATOM     22  N   UNL     1      27.709  38.208   9.763  1.00  0.00    -0.348 N 
ATOM     23  C   UNL     1      27.313  38.203  11.124  1.00  0.00     0.217 C 
ATOM     24  H   UNL     1      28.727  38.193   9.554  1.00  0.00     0.163 HD
ATOM     25  C   UNL     1      28.280  38.178  12.259  1.00  0.00     0.114 C 
ATOM     26  O   UNL     1      26.057  38.221  11.354  1.00  0.00    -0.275 OA
ENDBRANCH  13  22
ENDBRANCH   7   8
BRANCH   7  27
ATOM     27  O   UNL     1      25.124  40.178   9.187  1.00  0.00    -0.388 OA
ATOM     28  H   UNL     1      24.899  41.030   9.674  1.00  0.00     0.211 HD
ENDBRANCH   7  27
ENDBRANCH   6   7
BRANCH   6  29
ATOM     29  O   UNL     1      24.951  42.167   6.639  1.00  0.00    -0.388 OA
ATOM     30  H   UNL     1      25.680  42.470   6.075  1.00  0.00     0.211 HD
ENDBRANCH   6  29
ENDBRANCH   5   6
ENDBRANCH   1   5
BRANCH   2  31
ATOM     31  O   UNL     1      22.478  36.770   7.815  1.00  0.00    -0.443 OA
BRANCH  31  32
ATOM     32  C   UNL     1      21.605  36.087   8.698  1.00  0.00     0.294 C 
BRANCH  32  33
ATOM     33  C   UNL     1      22.332  35.534   9.860  1.00  0.00     0.120 A 
ATOM     34  C   UNL     1      21.789  34.786  10.915  1.00  0.00     0.138 A 
ATOM     35  N   UNL     1      23.632  35.618  10.165  1.00  0.00    -0.132 NA
ATOM     36  N   UNL     1      22.723  34.453  11.789  1.00  0.00    -0.248 N 
ATOM     37  N   UNL     1      23.867  34.986  11.295  1.00  0.00    -0.067 NA
BRANCH  36  38
ATOM     38  C   UNL     1      22.729  33.720  13.033  1.00  0.00     0.182 C 
BRANCH  38  39
ATOM     39  C   UNL     1      22.934  32.282  12.921  1.00  0.00    -0.012 A 
ATOM     40  C   UNL     1      24.205  31.722  13.074  1.00  0.00     0.007 A 
ATOM     41  C   UNL     1      21.904  31.415  12.696  1.00  0.00     0.023 A 
ATOM     42  C   UNL     1      24.373  30.367  12.999  1.00  0.00     0.000 A 
ATOM     43  C   UNL     1      22.078  30.046  12.620  1.00  0.00     0.016 A 
ATOM     44  Br  UNL     1      20.105  32.058  12.416  1.00  0.00    -0.050 Br
ATOM     45  C   UNL     1      23.330  29.504  12.773  1.00  0.00     0.001 A 
ENDBRANCH  38  39
ENDBRANCH  36  38
ENDBRANCH  32  33
ENDBRANCH  31  32
ENDBRANCH   2  31
TORSDOF 16
BEGIN_RES LYS A 131
REMARK  4 active torsions:
REMARK  status: ('A' for Active; 'I' for Inactive)
REMARK    1  A    between atoms: CA   and  CB  
REMARK    2  A    between atoms: CB   and  CG  
REMARK    3  A    between atoms: CG   and  CD  
REMARK    4  A    between atoms: CD   and  CE  
ROOT
ATOM      1  CA  LYS A 131      29.867  25.555  16.977  1.00 20.52     0.186 C 
ENDROOT
BRANCH   1   2
ATOM      2  CB  LYS A 131      28.345  25.722  17.026  1.00 20.94     0.034 C 
BRANCH   2   3
ATOM      3  CG  LYS A 131      27.599  24.475  16.577  1.00 22.96     0.005 C 
BRANCH   3   4
ATOM      4  CD  LYS A 131      27.001  23.725  17.734  1.00 24.33     0.041 C 
BRANCH   4   5
ATOM      5  CE  LYS A 131      25.608  24.270  18.029  1.00 26.91     0.338 C 
ATOM      6  NZ  LYS A 131      25.497  24.668  19.453  1.00 27.40     0.618 N 
ENDBRANCH   4   5
ENDBRANCH   3   4
ENDBRANCH   2   3
ENDBRANCH   1   2
END_RES LYS A 131
BEGIN_RES LYS A 135
REMARK  4 active torsions:
REMARK  status: ('A' for Active; 'I' for Inactive)
REMARK    5  A    between atoms: CA   and  CB  
REMARK    6  A    between atoms: CB   and  CG  
REMARK    7  A    between atoms: CG   and  CD  
REMARK    8  A    between atoms: CD   and  CE  
ROOT
ATOM      7  CA  LYS A 135      33.193  34.663   9.290  1.00 25.02     0.186 C 
ENDROOT
BRANCH   7   8
ATOM      8  CB  LYS A 135      32.060  35.360  10.034  1.00 26.63     0.034 C 
BRANCH   8   9
ATOM      9  CG  LYS A 135      30.776  34.572  10.051  1.00 29.45     0.005 C 
BRANCH   9  10
ATOM     10  CD  LYS A 135      29.976  34.821   8.782  1.00 32.00     0.041 C 
BRANCH  10  11
ATOM     11  CE  LYS A 135      28.655  34.078   8.831  1.00 34.25     0.338 C 
ATOM     12  NZ  LYS A 135      28.023  34.193  10.175  1.00 35.99     0.618 N 
ENDBRANCH  10  11
ENDBRANCH   9  10
ENDBRANCH   8   9
ENDBRANCH   7   8
END_RES LYS A 135
