REMARK VINA RESULT:    -4.500      2.805      7.102
REMARK INTER + INTRA:         -14.586
REMARK INTER:                  -6.390
REMARK INTRA:                  -8.195
REMARK UNBOUND:                -5.744
REMARK SMILES CC(=O)N[C@@H]1[C@@H](O)C[C@](O)(C(=O)O)O[C@H]1C(O)[C@H](O)CNC(=O)OCc1cn([C@@H](CC(=O)O)C(=O)O)nn1
REMARK SMILES IDX 21 1 22 2 23 3 20 5 18 6 16 7 15 8 9 9 8 10 14 11 6 12 5 13
REMARK SMILES IDX 10 14 11 16 12 17 13 18 7 20 4 22 2 23 1 25 3 26 17 27 19 29
REMARK SMILES IDX 24 31 25 32 26 33 27 34 38 35 28 36 37 37 29 38 30 39 31 40
REMARK SMILES IDX 32 41 33 42 34 44 35 45 36 46
REMARK H PARENT 21 4 10 15 13 19 7 21 4 24 17 28 19 30 33 43 36 47
REMARK Flexibility Score: inf
ROOT
ATOM      1  N   UNL     1      31.235  35.715  14.641  1.00  0.00    -0.319 N 
ATOM      2  C   UNL     1      32.447  35.561  15.378  1.00  0.00     0.407 C 
ATOM      3  O   UNL     1      33.148  34.565  15.166  1.00  0.00    -0.225 OA
ATOM      4  H   UNL     1      30.690  36.587  14.876  1.00  0.00     0.167 HD
ENDROOT
BRANCH   1   5
ATOM      5  C   UNL     1      30.757  34.794  13.659  1.00  0.00     0.154 C 
BRANCH   5   6
ATOM      6  C   UNL     1      29.363  34.311  14.003  1.00  0.00     0.165 C 
BRANCH   6   7
ATOM      7  C   UNL     1      29.407  32.973  14.719  1.00  0.00     0.176 C 
BRANCH   7   8
ATOM      8  C   UNL     1      28.970  33.024  16.138  1.00  0.00     0.178 C 
ATOM      9  C   UNL     1      28.182  30.839  16.128  1.00  0.00     0.269 C 
ATOM     10  C   UNL     1      26.892  31.294  15.587  1.00  0.00     0.112 C 
ATOM     11  O   UNL     1      28.989  31.762  16.740  1.00  0.00    -0.332 OA
ATOM     12  C   UNL     1      26.523  32.718  15.729  1.00  0.00     0.145 C 
ATOM     13  C   UNL     1      27.592  33.605  16.301  1.00  0.00     0.142 C 
BRANCH   9  14
ATOM     14  O   UNL     1      28.981  30.250  15.115  1.00  0.00    -0.357 OA
ATOM     15  H   UNL     1      28.899  30.866  14.339  1.00  0.00     0.214 HD
ENDBRANCH   9  14
BRANCH   9  16
ATOM     16  C   UNL     1      27.987  29.740  17.114  1.00  0.00     0.364 C 
ATOM     17  O   UNL     1      27.214  28.769  16.945  1.00  0.00    -0.246 OA
BRANCH  16  18
ATOM     18  O   UNL     1      28.712  29.800  18.294  1.00  0.00    -0.477 OA
ATOM     19  H   UNL     1      28.289  29.593  19.208  1.00  0.00     0.296 HD
ENDBRANCH  16  18
ENDBRANCH   9  16
BRANCH  12  20
ATOM     20  O   UNL     1      26.092  33.235  14.511  1.00  0.00    -0.391 OA
ATOM     21  H   UNL     1      26.763  33.746  14.028  1.00  0.00     0.211 HD
ENDBRANCH  12  20
BRANCH  13  22
ATOM     22  N   UNL     1      27.346  33.831  17.746  1.00  0.00    -0.348 N 
ATOM     23  C   UNL     1      26.550  34.913  18.186  1.00  0.00     0.217 C 
ATOM     24  H   UNL     1      27.751  33.202  18.471  1.00  0.00     0.163 HD
ATOM     25  C   UNL     1      26.277  35.180  19.628  1.00  0.00     0.114 C 
ATOM     26  O   UNL     1      26.058  35.675  17.327  1.00  0.00    -0.275 OA
ENDBRANCH  13  22
ENDBRANCH   7   8
BRANCH   7  27
ATOM     27  O   UNL     1      30.788  32.631  14.660  1.00  0.00    -0.388 OA
ATOM     28  H   UNL     1      31.198  32.993  13.839  1.00  0.00     0.211 HD
ENDBRANCH   7  27
ENDBRANCH   6   7
BRANCH   6  29
ATOM     29  O   UNL     1      28.610  34.293  12.836  1.00  0.00    -0.388 OA
ATOM     30  H   UNL     1      28.760  35.083  12.260  1.00  0.00     0.211 HD
ENDBRANCH   6  29
ENDBRANCH   5   6
ENDBRANCH   1   5
BRANCH   2  31
ATOM     31  O   UNL     1      32.865  36.486  16.320  1.00  0.00    -0.443 OA
BRANCH  31  32
ATOM     32  C   UNL     1      33.096  36.087  17.648  1.00  0.00     0.294 C 
BRANCH  32  33
ATOM     33  C   UNL     1      31.912  35.441  18.265  1.00  0.00     0.120 A 
ATOM     34  C   UNL     1      31.914  34.133  18.685  1.00  0.00     0.139 A 
ATOM     35  N   UNL     1      30.701  35.927  18.527  1.00  0.00    -0.132 NA
ATOM     36  N   UNL     1      30.686  33.861  19.198  1.00  0.00    -0.237 N 
ATOM     37  N   UNL     1      29.994  34.958  19.084  1.00  0.00    -0.066 NA
BRANCH  36  38
ATOM     38  C   UNL     1      30.334  32.553  19.742  1.00  0.00     0.229 C 
BRANCH  38  39
ATOM     39  C   UNL     1      31.371  32.131  20.746  1.00  0.00     0.161 C 
BRANCH  39  40
ATOM     40  C   UNL     1      31.356  30.681  20.996  1.00  0.00     0.306 C 
ATOM     41  O   UNL     1      31.173  29.900  20.029  1.00  0.00    -0.252 OA
BRANCH  40  42
ATOM     42  O   UNL     1      31.543  30.213  22.287  1.00  0.00    -0.481 OA
ATOM     43  H   UNL     1      32.350  29.600  22.484  1.00  0.00     0.296 HD
ENDBRANCH  40  42
ENDBRANCH  39  40
ENDBRANCH  38  39
BRANCH  38  44
ATOM     44  C   UNL     1      29.045  32.685  20.475  1.00  0.00     0.329 C 
ATOM     45  O   UNL     1      27.995  32.067  20.164  1.00  0.00    -0.250 OA
BRANCH  44  46
ATOM     46  O   UNL     1      28.997  33.541  21.562  1.00  0.00    -0.480 OA
ATOM     47  H   UNL     1      28.229  34.183  21.719  1.00  0.00     0.296 HD
ENDBRANCH  44  46
ENDBRANCH  38  44
ENDBRANCH  36  38
ENDBRANCH  32  33
ENDBRANCH  31  32
ENDBRANCH   2  31
TORSDOF 20
BEGIN_RES LYS A 131
REMARK  4 active torsions:
REMARK  status: ('A' for Active; 'I' for Inactive)
REMARK    1  A    between atoms: CA   and  CB  
REMARK    2  A    between atoms: CB   and  CG  
REMARK    3  A    between atoms: CG   and  CD  
REMARK    4  A    between atoms: CD   and  CE  
ROOT
ATOM      1  CA  LYS A 131      29.867  25.555  16.977  1.00 20.52     0.186 C 
ENDROOT
BRANCH   1   2
ATOM      2  CB  LYS A 131      28.345  25.722  17.026  1.00 20.94     0.034 C 
BRANCH   2   3
ATOM      3  CG  LYS A 131      27.602  24.400  16.913  1.00 22.96     0.005 C 
BRANCH   3   4
ATOM      4  CD  LYS A 131      26.144  24.539  17.254  1.00 24.33     0.041 C 
BRANCH   4   5
ATOM      5  CE  LYS A 131      25.609  23.202  17.758  1.00 26.91     0.338 C 
ATOM      6  NZ  LYS A 131      25.525  23.202  19.238  1.00 27.40     0.618 N 
ENDBRANCH   4   5
ENDBRANCH   3   4
ENDBRANCH   2   3
ENDBRANCH   1   2
END_RES LYS A 131
BEGIN_RES LYS A 135
REMARK  4 active torsions:
REMARK  status: ('A' for Active; 'I' for Inactive)
REMARK    5  A    between atoms: CA   and  CB  
REMARK    6  A    between atoms: CB   and  CG  
REMARK    7  A    between atoms: CG   and  CD  
REMARK    8  A    between atoms: CD   and  CE  
ROOT
ATOM      7  CA  LYS A 135      33.193  34.663   9.290  1.00 25.02     0.186 C 
ENDROOT
BRANCH   7   8
ATOM      8  CB  LYS A 135      32.060  35.360  10.034  1.00 26.63     0.034 C 
BRANCH   8   9
ATOM      9  CG  LYS A 135      30.734  34.655   9.910  1.00 29.45     0.005 C 
BRANCH   9  10
ATOM     10  CD  LYS A 135      30.332  34.521   8.449  1.00 32.00     0.041 C 
BRANCH  10  11
ATOM     11  CE  LYS A 135      28.822  34.539   8.309  1.00 34.25     0.338 C 
ATOM     12  NZ  LYS A 135      28.169  33.815   9.435  1.00 35.99     0.618 N 
ENDBRANCH  10  11
ENDBRANCH   9  10
ENDBRANCH   8   9
ENDBRANCH   7   8
END_RES LYS A 135
