REMARK VINA RESULT:    -4.754      7.575     13.214
REMARK INTER + INTRA:         -14.539
REMARK INTER:                  -8.943
REMARK INTRA:                  -5.596
REMARK UNBOUND:                -5.477
REMARK SMILES CC(=O)N[C@@H]1[C@@H](O)C[C@](O)(C(=O)O)O[C@H]1C(O)[C@H](O)CNC(=O)OCc1cn(CC(O)CO)nn1
REMARK SMILES IDX 21 1 22 2 23 3 20 5 18 6 16 7 15 8 9 9 8 10 14 11 6 12 5 13
REMARK SMILES IDX 10 14 11 16 12 17 13 18 7 20 4 22 2 23 1 25 3 26 17 27 19 29
REMARK SMILES IDX 24 31 25 32 26 33 27 34 35 35 28 36 34 37 29 38 30 39 31 40
REMARK SMILES IDX 32 42 33 43
REMARK H PARENT 21 4 10 15 13 19 7 21 4 24 17 28 19 30 31 41 33 44
REMARK Flexibility Score: inf
ROOT
ATOM      1  N   UNL     1      26.457  37.440  10.572  1.00  0.00    -0.319 N 
ATOM      2  C   UNL     1      26.757  38.755  11.007  1.00  0.00     0.407 C 
ATOM      3  O   UNL     1      25.856  39.570  11.271  1.00  0.00    -0.225 OA
ATOM      4  H   UNL     1      27.298  36.819  10.369  1.00  0.00     0.167 HD
ENDROOT
BRANCH   1   5
ATOM      5  C   UNL     1      25.116  36.991  10.417  1.00  0.00     0.154 C 
BRANCH   5   6
ATOM      6  C   UNL     1      24.840  36.352   9.074  1.00  0.00     0.165 C 
BRANCH   6   7
ATOM      7  C   UNL     1      25.458  37.270   8.026  1.00  0.00     0.176 C 
BRANCH   7   8
ATOM      8  C   UNL     1      26.409  36.476   7.124  1.00  0.00     0.178 C 
ATOM      9  C   UNL     1      28.153  35.410   8.228  1.00  0.00     0.269 C 
ATOM     10  C   UNL     1      28.977  35.359   6.956  1.00  0.00     0.112 C 
ATOM     11  O   UNL     1      26.834  35.396   7.845  1.00  0.00    -0.332 OA
ATOM     12  C   UNL     1      28.753  36.638   6.227  1.00  0.00     0.145 C 
ATOM     13  C   UNL     1      27.491  37.369   6.606  1.00  0.00     0.142 C 
BRANCH   9  14
ATOM     14  O   UNL     1      28.528  36.570   8.902  1.00  0.00    -0.357 OA
ATOM     15  H   UNL     1      27.815  36.919   9.484  1.00  0.00     0.214 HD
ENDBRANCH   9  14
BRANCH   9  16
ATOM     16  C   UNL     1      28.411  34.227   9.088  1.00  0.00     0.364 C 
ATOM     17  O   UNL     1      27.452  33.729   9.730  1.00  0.00    -0.246 OA
BRANCH  16  18
ATOM     18  O   UNL     1      29.678  33.698   9.169  1.00  0.00    -0.477 OA
ATOM     19  H   UNL     1      29.836  32.795   9.605  1.00  0.00     0.296 HD
ENDBRANCH  16  18
ENDBRANCH   9  16
BRANCH  12  20
ATOM     20  O   UNL     1      29.827  37.490   6.516  1.00  0.00    -0.391 OA
ATOM     21  H   UNL     1      30.628  37.168   6.065  1.00  0.00     0.211 HD
ENDBRANCH  12  20
BRANCH  13  22
ATOM     22  N   UNL     1      27.050  38.065   5.416  1.00  0.00    -0.348 N 
ATOM     23  C   UNL     1      27.506  39.387   5.176  1.00  0.00     0.217 C 
ATOM     24  H   UNL     1      26.402  37.635   4.717  1.00  0.00     0.163 HD
ATOM     25  C   UNL     1      27.079  40.159   3.957  1.00  0.00     0.114 C 
ATOM     26  O   UNL     1      28.285  39.995   5.953  1.00  0.00    -0.275 OA
ENDBRANCH  13  22
ENDBRANCH   7   8
BRANCH   7  27
ATOM     27  O   UNL     1      24.459  37.895   7.321  1.00  0.00    -0.388 OA
ATOM     28  H   UNL     1      23.609  37.935   7.844  1.00  0.00     0.211 HD
ENDBRANCH   7  27
ENDBRANCH   6   7
BRANCH   6  29
ATOM     29  O   UNL     1      23.467  36.216   8.870  1.00  0.00    -0.388 OA
ATOM     30  H   UNL     1      23.159  35.487   9.442  1.00  0.00     0.211 HD
ENDBRANCH   6  29
ENDBRANCH   5   6
ENDBRANCH   1   5
BRANCH   2  31
ATOM     31  O   UNL     1      28.087  39.180  11.157  1.00  0.00    -0.443 OA
BRANCH  31  32
ATOM     32  C   UNL     1      28.533  40.245  10.367  1.00  0.00     0.294 C 
BRANCH  32  33
ATOM     33  C   UNL     1      29.828  39.942   9.706  1.00  0.00     0.120 A 
ATOM     34  C   UNL     1      30.821  40.827   9.403  1.00  0.00     0.138 A 
ATOM     35  N   UNL     1      30.244  38.743   9.290  1.00  0.00    -0.132 NA
ATOM     36  N   UNL     1      31.814  40.113   8.807  1.00  0.00    -0.249 N 
ATOM     37  N   UNL     1      31.446  38.841   8.745  1.00  0.00    -0.067 NA
BRANCH  36  38
ATOM     38  C   UNL     1      33.071  40.681   8.323  1.00  0.00     0.180 C 
BRANCH  38  39
ATOM     39  C   UNL     1      33.160  40.317   6.854  1.00  0.00     0.161 C 
BRANCH  39  40
ATOM     40  O   UNL     1      33.388  38.952   6.731  1.00  0.00    -0.389 OA
ATOM     41  H   UNL     1      34.128  38.708   7.350  1.00  0.00     0.211 HD
ENDBRANCH  39  40
BRANCH  39  42
ATOM     42  C   UNL     1      31.856  40.687   6.140  1.00  0.00     0.189 C 
BRANCH  42  43
ATOM     43  O   UNL     1      31.306  39.541   5.562  1.00  0.00    -0.394 OA
ATOM     44  H   UNL     1      30.410  39.360   5.976  1.00  0.00     0.210 HD
ENDBRANCH  42  43
ENDBRANCH  39  42
ENDBRANCH  38  39
ENDBRANCH  36  38
ENDBRANCH  32  33
ENDBRANCH  31  32
ENDBRANCH   2  31
TORSDOF 19
BEGIN_RES LYS A 131
REMARK  4 active torsions:
REMARK  status: ('A' for Active; 'I' for Inactive)
REMARK    1  A    between atoms: CA   and  CB  
REMARK    2  A    between atoms: CB   and  CG  
REMARK    3  A    between atoms: CG   and  CD  
REMARK    4  A    between atoms: CD   and  CE  
ROOT
ATOM      1  CA  LYS A 131      29.867  25.555  16.977  1.00 20.52     0.186 C 
ENDROOT
BRANCH   1   2
ATOM      2  CB  LYS A 131      28.345  25.722  17.026  1.00 20.94     0.034 C 
BRANCH   2   3
ATOM      3  CG  LYS A 131      27.600  24.408  16.846  1.00 22.96     0.005 C 
BRANCH   3   4
ATOM      4  CD  LYS A 131      26.733  24.081  18.030  1.00 24.33     0.041 C 
BRANCH   4   5
ATOM      5  CE  LYS A 131      25.772  25.236  18.291  1.00 26.91     0.338 C 
ATOM      6  NZ  LYS A 131      25.861  25.676  19.703  1.00 27.40     0.618 N 
ENDBRANCH   4   5
ENDBRANCH   3   4
ENDBRANCH   2   3
ENDBRANCH   1   2
END_RES LYS A 131
BEGIN_RES LYS A 135
REMARK  4 active torsions:
REMARK  status: ('A' for Active; 'I' for Inactive)
REMARK    5  A    between atoms: CA   and  CB  
REMARK    6  A    between atoms: CB   and  CG  
REMARK    7  A    between atoms: CG   and  CD  
REMARK    8  A    between atoms: CD   and  CE  
ROOT
ATOM      7  CA  LYS A 135      33.193  34.663   9.290  1.00 25.02     0.186 C 
ENDROOT
BRANCH   7   8
ATOM      8  CB  LYS A 135      32.060  35.360  10.034  1.00 26.63     0.034 C 
BRANCH   8   9
ATOM      9  CG  LYS A 135      32.525  36.172  11.215  1.00 29.45     0.005 C 
BRANCH   9  10
ATOM     10  CD  LYS A 135      31.933  35.629  12.506  1.00 32.00     0.041 C 
BRANCH  10  11
ATOM     11  CE  LYS A 135      30.592  34.970  12.242  1.00 34.25     0.338 C 
ATOM     12  NZ  LYS A 135      29.482  35.958  12.334  1.00 35.99     0.618 N 
ENDBRANCH  10  11
ENDBRANCH   9  10
ENDBRANCH   8   9
ENDBRANCH   7   8
END_RES LYS A 135
