REMARK VINA RESULT:    -5.631      4.290      8.422
REMARK INTER + INTRA:         -15.411
REMARK INTER:                  -8.447
REMARK INTRA:                  -6.965
REMARK UNBOUND:                -5.337
REMARK SMILES CC(=O)N[C@@H]1[C@@H](O)C[C@](O)(C(=O)O)O[C@H]1C(O)[C@H](O)CNC(=O)OCc1cn(CC2=CC[C@H]3C[C@@H]2C3(C)C)nn1
REMARK SMILES IDX 21 1 22 2 23 3 20 5 18 6 16 7 15 8 9 9 8 10 14 11 6 12 5 13
REMARK SMILES IDX 10 14 11 16 12 17 13 18 7 20 4 22 2 23 1 25 3 26 17 27 19 29
REMARK SMILES IDX 24 31 25 32 26 33 27 34 40 35 28 36 39 37 29 38 30 39 31 40
REMARK SMILES IDX 35 41 32 42 34 43 36 44 33 45 37 46 38 47
REMARK H PARENT 21 4 10 15 13 19 7 21 4 24 17 28 19 30
REMARK Flexibility Score: inf
ROOT
ATOM      1  N   UNL     1      27.310  36.960  12.623  1.00  0.00    -0.319 N 
ATOM      2  C   UNL     1      26.247  37.466  11.798  1.00  0.00     0.407 C 
ATOM      3  O   UNL     1      25.421  38.266  12.306  1.00  0.00    -0.225 OA
ATOM      4  H   UNL     1      27.997  36.297  12.207  1.00  0.00     0.167 HD
ENDROOT
BRANCH   1   5
ATOM      5  C   UNL     1      27.404  37.376  14.007  1.00  0.00     0.154 C 
BRANCH   5   6
ATOM      6  C   UNL     1      27.615  36.150  14.850  1.00  0.00     0.165 C 
BRANCH   6   7
ATOM      7  C   UNL     1      28.735  35.279  14.328  1.00  0.00     0.176 C 
BRANCH   7   8
ATOM      8  C   UNL     1      29.573  34.866  15.516  1.00  0.00     0.178 C 
ATOM      9  C   UNL     1      31.616  34.205  14.647  1.00  0.00     0.269 C 
ATOM     10  C   UNL     1      31.496  32.790  15.168  1.00  0.00     0.112 C 
ATOM     11  O   UNL     1      30.905  35.123  15.381  1.00  0.00    -0.332 OA
ATOM     12  C   UNL     1      30.563  32.809  16.354  1.00  0.00     0.145 C 
ATOM     13  C   UNL     1      29.264  33.434  15.889  1.00  0.00     0.142 C 
BRANCH   9  14
ATOM     14  O   UNL     1      31.288  34.228  13.288  1.00  0.00    -0.357 OA
ATOM     15  H   UNL     1      30.322  33.993  13.239  1.00  0.00     0.214 HD
ENDBRANCH   9  14
BRANCH   9  16
ATOM     16  C   UNL     1      33.058  34.576  14.743  1.00  0.00     0.364 C 
ATOM     17  O   UNL     1      33.442  35.329  15.701  1.00  0.00    -0.246 OA
BRANCH  16  18
ATOM     18  O   UNL     1      34.005  34.142  13.841  1.00  0.00    -0.477 OA
ATOM     19  H   UNL     1      34.999  34.287  13.996  1.00  0.00     0.296 HD
ENDBRANCH  16  18
ENDBRANCH   9  16
BRANCH  12  20
ATOM     20  O   UNL     1      30.292  31.542  16.832  1.00  0.00    -0.391 OA
ATOM     21  H   UNL     1      29.579  31.156  16.263  1.00  0.00     0.211 HD
ENDBRANCH  12  20
BRANCH  13  22
ATOM     22  N   UNL     1      28.231  33.322  16.886  1.00  0.00    -0.348 N 
ATOM     23  C   UNL     1      26.976  32.727  16.598  1.00  0.00     0.217 C 
ATOM     24  H   UNL     1      28.429  33.693  17.840  1.00  0.00     0.163 HD
ATOM     25  C   UNL     1      25.966  32.653  17.689  1.00  0.00     0.114 C 
ATOM     26  O   UNL     1      26.731  32.278  15.451  1.00  0.00    -0.275 OA
ENDBRANCH  13  22
ENDBRANCH   7   8
BRANCH   7  27
ATOM     27  O   UNL     1      28.229  34.120  13.743  1.00  0.00    -0.388 OA
ATOM     28  H   UNL     1      27.267  34.140  13.613  1.00  0.00     0.211 HD
ENDBRANCH   7  27
ENDBRANCH   6   7
BRANCH   6  29
ATOM     29  O   UNL     1      26.415  35.410  14.787  1.00  0.00    -0.388 OA
ATOM     30  H   UNL     1      26.468  34.728  14.060  1.00  0.00     0.211 HD
ENDBRANCH   6  29
ENDBRANCH   5   6
ENDBRANCH   1   5
BRANCH   2  31
ATOM     31  O   UNL     1      26.096  37.118  10.483  1.00  0.00    -0.443 OA
BRANCH  31  32
ATOM     32  C   UNL     1      25.242  36.083  10.030  1.00  0.00     0.294 C 
BRANCH  32  33
ATOM     33  C   UNL     1      24.941  35.149  11.135  1.00  0.00     0.120 A 
ATOM     34  C   UNL     1      23.732  34.884  11.733  1.00  0.00     0.138 A 
ATOM     35  N   UNL     1      25.839  34.375  11.762  1.00  0.00    -0.132 NA
ATOM     36  N   UNL     1      23.916  33.951  12.714  1.00  0.00    -0.248 N 
ATOM     37  N   UNL     1      25.210  33.666  12.703  1.00  0.00    -0.067 NA
BRANCH  36  38
ATOM     38  C   UNL     1      22.874  33.423  13.560  1.00  0.00     0.177 C 
BRANCH  38  39
ATOM     39  C   UNL     1      22.772  31.927  13.421  1.00  0.00    -0.049 C 
ATOM     40  C   UNL     1      21.862  31.368  12.629  1.00  0.00    -0.025 C 
ATOM     41  C   UNL     1      23.679  31.027  14.161  1.00  0.00     0.023 C 
ATOM     42  C   UNL     1      21.967  29.911  12.342  1.00  0.00     0.031 C 
ATOM     43  C   UNL     1      24.302  30.096  13.110  1.00  0.00     0.013 C 
ATOM     44  C   UNL     1      22.900  29.820  14.643  1.00  0.00    -0.026 C 
ATOM     45  C   UNL     1      23.019  29.287  13.207  1.00  0.00    -0.000 C 
ATOM     46  C   UNL     1      23.669  28.932  15.581  1.00  0.00     0.012 C 
ATOM     47  C   UNL     1      21.506  30.081  15.101  1.00  0.00     0.012 C 
ENDBRANCH  38  39
ENDBRANCH  36  38
ENDBRANCH  32  33
ENDBRANCH  31  32
ENDBRANCH   2  31
TORSDOF 16
BEGIN_RES LYS A 131
REMARK  4 active torsions:
REMARK  status: ('A' for Active; 'I' for Inactive)
REMARK    1  A    between atoms: CA   and  CB  
REMARK    2  A    between atoms: CB   and  CG  
REMARK    3  A    between atoms: CG   and  CD  
REMARK    4  A    between atoms: CD   and  CE  
ROOT
ATOM      1  CA  LYS A 131      29.867  25.555  16.977  1.00 20.52     0.186 C 
ENDROOT
BRANCH   1   2
ATOM      2  CB  LYS A 131      28.345  25.722  17.026  1.00 20.94     0.034 C 
BRANCH   2   3
ATOM      3  CG  LYS A 131      27.602  24.399  16.925  1.00 22.96     0.005 C 
BRANCH   3   4
ATOM      4  CD  LYS A 131      26.153  24.533  17.304  1.00 24.33     0.041 C 
BRANCH   4   5
ATOM      5  CE  LYS A 131      26.046  25.024  18.743  1.00 26.91     0.338 C 
ATOM      6  NZ  LYS A 131      24.626  25.207  19.125  1.00 27.40     0.618 N 
ENDBRANCH   4   5
ENDBRANCH   3   4
ENDBRANCH   2   3
ENDBRANCH   1   2
END_RES LYS A 131
BEGIN_RES LYS A 135
REMARK  4 active torsions:
REMARK  status: ('A' for Active; 'I' for Inactive)
REMARK    5  A    between atoms: CA   and  CB  
REMARK    6  A    between atoms: CB   and  CG  
REMARK    7  A    between atoms: CG   and  CD  
REMARK    8  A    between atoms: CD   and  CE  
ROOT
ATOM      7  CA  LYS A 135      33.193  34.663   9.290  1.00 25.02     0.186 C 
ENDROOT
BRANCH   7   8
ATOM      8  CB  LYS A 135      32.060  35.360  10.034  1.00 26.63     0.034 C 
BRANCH   8   9
ATOM      9  CG  LYS A 135      30.712  34.722   9.814  1.00 29.45     0.005 C 
BRANCH   9  10
ATOM     10  CD  LYS A 135      30.456  34.509   8.330  1.00 32.00     0.041 C 
BRANCH  10  11
ATOM     11  CE  LYS A 135      29.006  34.799   7.993  1.00 34.25     0.338 C 
ATOM     12  NZ  LYS A 135      28.895  35.579   6.729  1.00 35.99     0.618 N 
ENDBRANCH  10  11
ENDBRANCH   9  10
ENDBRANCH   8   9
ENDBRANCH   7   8
END_RES LYS A 135
