REMARK VINA RESULT:    -3.214      3.902      6.490
REMARK INTER + INTRA:         -13.417
REMARK INTER:                  -7.813
REMARK INTRA:                  -5.604
REMARK UNBOUND:                -7.572
REMARK SMILES CC(=O)N[C@@H]1[C@@H](O)C[C@](O)(C(=O)O)O[C@H]1C(O)[C@H](O)CNC(=O)OCc1cn(CCO)nn1
REMARK SMILES IDX 21 1 22 2 23 3 20 5 18 6 16 7 15 8 9 9 8 10 14 11 6 12 5 13
REMARK SMILES IDX 10 14 11 16 12 17 13 18 7 20 4 22 2 23 1 25 3 26 17 27 19 29
REMARK SMILES IDX 24 31 25 32 26 33 27 34 33 35 28 36 32 37 29 38 30 39 31 40
REMARK H PARENT 21 4 10 15 13 19 7 21 4 24 17 28 19 30 31 41
REMARK Flexibility Score: inf
ROOT
ATOM      1  N   UNL     1      25.338  36.663  11.641  1.00  0.00    -0.319 N 
ATOM      2  C   UNL     1      26.000  35.446  11.836  1.00  0.00     0.407 C 
ATOM      3  O   UNL     1      25.988  34.590  10.955  1.00  0.00    -0.225 OA
ATOM      4  H   UNL     1      25.405  37.344  12.470  1.00  0.00     0.167 HD
ENDROOT
BRANCH   1   5
ATOM      5  C   UNL     1      24.601  37.125  10.528  1.00  0.00     0.154 C 
BRANCH   5   6
ATOM      6  C   UNL     1      25.355  37.782   9.416  1.00  0.00     0.165 C 
BRANCH   6   7
ATOM      7  C   UNL     1      25.438  36.920   8.193  1.00  0.00     0.176 C 
BRANCH   7   8
ATOM      8  C   UNL     1      26.757  36.617   7.621  1.00  0.00     0.178 C 
ATOM      9  C   UNL     1      28.873  35.786   7.997  1.00  0.00     0.269 C 
ATOM     10  C   UNL     1      28.842  35.613   6.494  1.00  0.00     0.112 C 
ATOM     11  O   UNL     1      27.630  36.101   8.545  1.00  0.00    -0.332 OA
ATOM     12  C   UNL     1      28.366  36.895   5.824  1.00  0.00     0.145 C 
ATOM     13  C   UNL     1      27.439  37.654   6.795  1.00  0.00     0.142 C 
BRANCH   9  14
ATOM     14  O   UNL     1      29.736  36.820   8.353  1.00  0.00    -0.357 OA
ATOM     15  H   UNL     1      30.544  36.853   7.793  1.00  0.00     0.214 HD
ENDBRANCH   9  14
BRANCH   9  16
ATOM     16  C   UNL     1      29.316  34.543   8.669  1.00  0.00     0.364 C 
ATOM     17  O   UNL     1      30.500  34.123   8.615  1.00  0.00    -0.246 OA
BRANCH  16  18
ATOM     18  O   UNL     1      28.397  33.803   9.390  1.00  0.00    -0.477 OA
ATOM     19  H   UNL     1      27.672  33.266   8.891  1.00  0.00     0.296 HD
ENDBRANCH  16  18
ENDBRANCH   9  16
BRANCH  12  20
ATOM     20  O   UNL     1      29.468  37.671   5.492  1.00  0.00    -0.391 OA
ATOM     21  H   UNL     1      29.406  38.504   6.030  1.00  0.00     0.211 HD
ENDBRANCH  12  20
BRANCH  13  22
ATOM     22  N   UNL     1      26.545  38.487   6.017  1.00  0.00    -0.348 N 
ATOM     23  C   UNL     1      26.869  39.857   5.845  1.00  0.00     0.217 C 
ATOM     24  H   UNL     1      25.670  38.106   5.581  1.00  0.00     0.163 HD
ATOM     25  C   UNL     1      26.011  40.789   5.065  1.00  0.00     0.114 C 
ATOM     26  O   UNL     1      27.914  40.312   6.365  1.00  0.00    -0.275 OA
ENDBRANCH  13  22
ENDBRANCH   7   8
BRANCH   7  27
ATOM     27  O   UNL     1      24.796  35.695   8.610  1.00  0.00    -0.388 OA
ATOM     28  H   UNL     1      23.936  35.635   8.161  1.00  0.00     0.211 HD
ENDBRANCH   7  27
ENDBRANCH   6   7
BRANCH   6  29
ATOM     29  O   UNL     1      26.553  38.262   9.829  1.00  0.00    -0.388 OA
ATOM     30  H   UNL     1      27.282  37.614   9.891  1.00  0.00     0.211 HD
ENDBRANCH   6  29
ENDBRANCH   5   6
ENDBRANCH   1   5
BRANCH   2  31
ATOM     31  O   UNL     1      26.685  35.169  13.017  1.00  0.00    -0.443 OA
BRANCH  31  32
ATOM     32  C   UNL     1      28.089  35.282  13.106  1.00  0.00     0.294 C 
BRANCH  32  33
ATOM     33  C   UNL     1      28.513  36.609  12.598  1.00  0.00     0.120 A 
ATOM     34  C   UNL     1      28.525  37.800  13.281  1.00  0.00     0.138 A 
ATOM     35  N   UNL     1      28.958  36.868  11.377  1.00  0.00    -0.132 NA
ATOM     36  N   UNL     1      28.985  38.720  12.415  1.00  0.00    -0.250 N 
ATOM     37  N   UNL     1      29.252  38.158  11.248  1.00  0.00    -0.067 NA
BRANCH  36  38
ATOM     38  C   UNL     1      29.156  40.123  12.733  1.00  0.00     0.174 C 
BRANCH  38  39
ATOM     39  C   UNL     1      30.538  40.317  13.350  1.00  0.00     0.179 C 
BRANCH  39  40
ATOM     40  O   UNL     1      31.483  39.634  12.557  1.00  0.00    -0.394 OA
ATOM     41  H   UNL     1      31.032  38.880  12.068  1.00  0.00     0.210 HD
ENDBRANCH  39  40
ENDBRANCH  38  39
ENDBRANCH  36  38
ENDBRANCH  32  33
ENDBRANCH  31  32
ENDBRANCH   2  31
TORSDOF 17
BEGIN_RES LYS A 131
REMARK  4 active torsions:
REMARK  status: ('A' for Active; 'I' for Inactive)
REMARK    1  A    between atoms: CA   and  CB  
REMARK    2  A    between atoms: CB   and  CG  
REMARK    3  A    between atoms: CG   and  CD  
REMARK    4  A    between atoms: CD   and  CE  
ROOT
ATOM      1  CA  LYS A 131      29.867  25.555  16.977  1.00 20.52     0.186 C 
ENDROOT
BRANCH   1   2
ATOM      2  CB  LYS A 131      28.345  25.722  17.026  1.00 20.94     0.034 C 
BRANCH   2   3
ATOM      3  CG  LYS A 131      27.599  24.476  16.573  1.00 22.96     0.005 C 
BRANCH   3   4
ATOM      4  CD  LYS A 131      27.015  23.714  17.730  1.00 24.33     0.041 C 
BRANCH   4   5
ATOM      5  CE  LYS A 131      25.504  23.601  17.554  1.00 26.91     0.338 C 
ATOM      6  NZ  LYS A 131      24.827  24.803  18.097  1.00 27.40     0.618 N 
ENDBRANCH   4   5
ENDBRANCH   3   4
ENDBRANCH   2   3
ENDBRANCH   1   2
END_RES LYS A 131
BEGIN_RES LYS A 135
REMARK  4 active torsions:
REMARK  status: ('A' for Active; 'I' for Inactive)
REMARK    5  A    between atoms: CA   and  CB  
REMARK    6  A    between atoms: CB   and  CG  
REMARK    7  A    between atoms: CG   and  CD  
REMARK    8  A    between atoms: CD   and  CE  
ROOT
ATOM      7  CA  LYS A 135      33.193  34.663   9.290  1.00 25.02     0.186 C 
ENDROOT
BRANCH   7   8
ATOM      8  CB  LYS A 135      32.060  35.360  10.034  1.00 26.63     0.034 C 
BRANCH   8   9
ATOM      9  CG  LYS A 135      32.499  36.026  11.312  1.00 29.45     0.005 C 
BRANCH   9  10
ATOM     10  CD  LYS A 135      31.887  35.330  12.518  1.00 32.00     0.041 C 
BRANCH  10  11
ATOM     11  CE  LYS A 135      32.656  35.674  13.779  1.00 34.25     0.338 C 
ATOM     12  NZ  LYS A 135      33.838  34.784  13.947  1.00 35.99     0.618 N 
ENDBRANCH  10  11
ENDBRANCH   9  10
ENDBRANCH   8   9
ENDBRANCH   7   8
END_RES LYS A 135
