REMARK VINA RESULT:    -4.640      2.993      6.317
REMARK INTER + INTRA:         -16.693
REMARK INTER:                 -10.552
REMARK INTRA:                  -6.141
REMARK UNBOUND:                -7.171
REMARK SMILES CCOCCc1c(-c2ccccc2)nc(N)nc1-n1cc(COC(=O)NC[C@@H](O)C(O)[C@@H]2O[C@@](O)(C(=O)O)C[C@H](O)[C@H]2NC(C)=O)nn1
REMARK SMILES IDX 23 1 24 2 26 3 25 5 27 6 28 7 30 8 32 9 34 10 39 11 33 12
REMARK SMILES IDX 40 13 42 14 35 15 36 17 37 18 38 19 41 21 43 23 44 24 45 26
REMARK SMILES IDX 46 27 31 28 29 30 22 32 21 33 20 34 47 35 19 36 48 37 18 38
REMARK SMILES IDX 17 39 6 40 15 41 7 42 14 43 5 44 4 45 3 46 2 47 1 48 16 49
REMARK SMILES IDX 8 52 9 53 13 54 10 55 12 56 11 57
REMARK H PARENT 26 4 35 16 38 20 41 22 43 25 31 29 29 31 16 50 16 51
REMARK Flexibility Score: inf
ROOT
ATOM      1  O   UNL     1      23.204  35.018  11.296  1.00  0.00    -0.443 OA
ENDROOT
BRANCH   1   2
ATOM      2  C   UNL     1      23.542  36.065  10.467  1.00  0.00     0.407 C 
ATOM      3  N   UNL     1      24.196  35.847   9.198  1.00  0.00    -0.319 N 
ATOM      4  H   UNL     1      24.385  34.849   8.978  1.00  0.00     0.167 HD
ATOM      5  O   UNL     1      23.266  37.232  10.843  1.00  0.00    -0.225 OA
BRANCH   3   6
ATOM      6  C   UNL     1      24.527  36.982   8.369  1.00  0.00     0.154 C 
BRANCH   6   7
ATOM      7  C   UNL     1      26.027  36.941   8.107  1.00  0.00     0.165 C 
BRANCH   7   8
ATOM      8  C   UNL     1      26.620  38.129   8.825  1.00  0.00     0.176 C 
BRANCH   8   9
ATOM      9  C   UNL     1      28.114  38.120   8.937  1.00  0.00     0.178 C 
ATOM     10  C   UNL     1      28.385  40.413   8.538  1.00  0.00     0.269 C 
ATOM     11  C   UNL     1      28.693  40.044   7.096  1.00  0.00     0.112 C 
ATOM     12  O   UNL     1      28.511  39.355   9.392  1.00  0.00    -0.332 OA
ATOM     13  C   UNL     1      29.598  38.830   7.101  1.00  0.00     0.145 C 
ATOM     14  C   UNL     1      28.865  37.639   7.750  1.00  0.00     0.142 C 
BRANCH  10  15
ATOM     15  O   UNL     1      27.095  40.956   8.523  1.00  0.00    -0.357 OA
ATOM     16  H   UNL     1      26.429  40.322   8.175  1.00  0.00     0.214 HD
ENDBRANCH  10  15
BRANCH  10  17
ATOM     17  C   UNL     1      29.301  41.473   9.007  1.00  0.00     0.364 C 
ATOM     18  O   UNL     1      30.074  42.018   8.196  1.00  0.00    -0.246 OA
BRANCH  17  19
ATOM     19  O   UNL     1      29.302  41.856  10.323  1.00  0.00    -0.477 OA
ATOM     20  H   UNL     1      29.089  41.247  11.102  1.00  0.00     0.296 HD
ENDBRANCH  17  19
ENDBRANCH  10  17
BRANCH  13  21
ATOM     21  O   UNL     1      30.024  38.522   5.830  1.00  0.00    -0.391 OA
ATOM     22  H   UNL     1      29.369  38.796   5.153  1.00  0.00     0.211 HD
ENDBRANCH  13  21
BRANCH  14  23
ATOM     23  N   UNL     1      29.939  36.702   8.107  1.00  0.00    -0.348 N 
ATOM     24  C   UNL     1      29.715  35.309   8.000  1.00  0.00     0.217 C 
ATOM     25  H   UNL     1      30.867  37.044   8.438  1.00  0.00     0.163 HD
ATOM     26  C   UNL     1      30.761  34.298   8.347  1.00  0.00     0.114 C 
ATOM     27  O   UNL     1      28.580  34.931   7.596  1.00  0.00    -0.275 OA
ENDBRANCH  14  23
ENDBRANCH   8   9
BRANCH   8  28
ATOM     28  O   UNL     1      26.166  37.943  10.173  1.00  0.00    -0.388 OA
ATOM     29  H   UNL     1      25.191  38.009  10.205  1.00  0.00     0.211 HD
ENDBRANCH   8  28
ENDBRANCH   7   8
BRANCH   7  30
ATOM     30  O   UNL     1      26.181  36.974   6.731  1.00  0.00    -0.388 OA
ATOM     31  H   UNL     1      25.772  37.771   6.332  1.00  0.00     0.211 HD
ENDBRANCH   7  30
ENDBRANCH   6   7
ENDBRANCH   3   6
ENDBRANCH   1   2
BRANCH   1  32
ATOM     32  C   UNL     1      24.107  34.256  12.066  1.00  0.00     0.294 C 
BRANCH  32  33
ATOM     33  C   UNL     1      25.469  34.874  12.002  1.00  0.00     0.121 A 
ATOM     34  C   UNL     1      26.058  35.720  12.908  1.00  0.00     0.146 A 
ATOM     35  N   UNL     1      26.382  34.711  11.020  1.00  0.00    -0.131 NA
ATOM     36  N   UNL     1      27.310  36.061  12.474  1.00  0.00    -0.202 N 
ATOM     37  N   UNL     1      27.454  35.418  11.323  1.00  0.00    -0.060 NA
BRANCH  36  38
ATOM     38  C   UNL     1      28.223  36.929  13.122  1.00  0.00     0.164 A 
ATOM     39  N   UNL     1      28.288  38.231  12.811  1.00  0.00    -0.193 NA
ATOM     40  C   UNL     1      29.107  36.440  14.092  1.00  0.00     0.026 A 
ATOM     41  C   UNL     1      29.179  39.060  13.410  1.00  0.00     0.222 A 
ATOM     42  C   UNL     1      30.007  37.272  14.695  1.00  0.00     0.081 A 
ATOM     43  N   UNL     1      30.031  38.607  14.336  1.00  0.00    -0.213 NA
BRANCH  40  44
ATOM     44  C   UNL     1      29.064  35.001  14.419  1.00  0.00     0.070 C 
BRANCH  44  45
ATOM     45  C   UNL     1      29.937  34.128  13.561  1.00  0.00     0.165 C 
BRANCH  45  46
ATOM     46  O   UNL     1      30.836  33.399  14.289  1.00  0.00    -0.381 OA
BRANCH  46  47
ATOM     47  C   UNL     1      30.279  32.681  15.322  1.00  0.00     0.156 C 
ATOM     48  C   UNL     1      31.162  32.688  16.552  1.00  0.00     0.035 C 
ENDBRANCH  46  47
ENDBRANCH  45  46
ENDBRANCH  44  45
ENDBRANCH  40  44
BRANCH  41  49
ATOM     49  N   UNL     1      29.212  40.427  13.051  1.00  0.00    -0.368 N 
ATOM     50  H   UNL     1      28.343  40.990  13.067  1.00  0.00     0.159 HD
ATOM     51  H   UNL     1      30.090  40.898  12.764  1.00  0.00     0.159 HD
ENDBRANCH  41  49
BRANCH  42  52
ATOM     52  C   UNL     1      31.022  36.805  15.620  1.00  0.00     0.001 A 
ATOM     53  C   UNL     1      30.915  36.582  16.944  1.00  0.00     0.010 A 
ATOM     54  C   UNL     1      32.280  36.531  15.038  1.00  0.00     0.010 A 
ATOM     55  C   UNL     1      32.007  36.100  17.690  1.00  0.00     0.001 A 
ATOM     56  C   UNL     1      33.348  36.064  15.751  1.00  0.00     0.001 A 
ATOM     57  C   UNL     1      33.226  35.837  17.112  1.00  0.00     0.000 A 
ENDBRANCH  42  52
ENDBRANCH  36  38
ENDBRANCH  32  33
ENDBRANCH   1  32
TORSDOF 21
BEGIN_RES LYS A 131
REMARK  4 active torsions:
REMARK  status: ('A' for Active; 'I' for Inactive)
REMARK    1  A    between atoms: CA   and  CB  
REMARK    2  A    between atoms: CB   and  CG  
REMARK    3  A    between atoms: CG   and  CD  
REMARK    4  A    between atoms: CD   and  CE  
ROOT
ATOM      1  CA  LYS A 131      29.867  25.555  16.977  1.00 20.52     0.186 C 
ENDROOT
BRANCH   1   2
ATOM      2  CB  LYS A 131      28.345  25.722  17.026  1.00 20.94     0.034 C 
BRANCH   2   3
ATOM      3  CG  LYS A 131      27.603  24.396  16.969  1.00 22.96     0.005 C 
BRANCH   3   4
ATOM      4  CD  LYS A 131      26.638  24.237  18.111  1.00 24.33     0.041 C 
BRANCH   4   5
ATOM      5  CE  LYS A 131      25.260  23.875  17.566  1.00 26.91     0.338 C 
ATOM      6  NZ  LYS A 131      25.090  22.403  17.522  1.00 27.40     0.618 N 
ENDBRANCH   4   5
ENDBRANCH   3   4
ENDBRANCH   2   3
ENDBRANCH   1   2
END_RES LYS A 131
BEGIN_RES LYS A 135
REMARK  4 active torsions:
REMARK  status: ('A' for Active; 'I' for Inactive)
REMARK    5  A    between atoms: CA   and  CB  
REMARK    6  A    between atoms: CB   and  CG  
REMARK    7  A    between atoms: CG   and  CD  
REMARK    8  A    between atoms: CD   and  CE  
ROOT
ATOM      7  CA  LYS A 135      33.193  34.663   9.290  1.00 25.02     0.186 C 
ENDROOT
BRANCH   7   8
ATOM      8  CB  LYS A 135      32.060  35.360  10.034  1.00 26.63     0.034 C 
BRANCH   8   9
ATOM      9  CG  LYS A 135      32.503  36.045  11.301  1.00 29.45     0.005 C 
BRANCH   9  10
ATOM     10  CD  LYS A 135      31.736  37.342  11.506  1.00 32.00     0.041 C 
BRANCH  10  11
ATOM     11  CE  LYS A 135      31.895  38.251  10.302  1.00 34.25     0.338 C 
ATOM     12  NZ  LYS A 135      31.856  39.684  10.704  1.00 35.99     0.618 N 
ENDBRANCH  10  11
ENDBRANCH   9  10
ENDBRANCH   8   9
ENDBRANCH   7   8
END_RES LYS A 135
