REMARK VINA RESULT:    -7.745      4.705      9.857
REMARK INTER + INTRA:         -13.088
REMARK INTER:                  -8.921
REMARK INTRA:                  -4.167
REMARK UNBOUND:                 3.032
REMARK SMILES CC(=O)N[C@@H]1[C@@H](O)C[C@](O)(C(=O)O)O[C@H]1C(O)[C@H](O)CNC(=O)OCc1cn(C2CC(O)C=C[C@@H](O)C2)nn1
REMARK SMILES IDX 21 1 22 2 23 3 20 5 18 6 16 7 15 8 9 9 8 10 14 11 6 12 5 13
REMARK SMILES IDX 10 14 11 16 12 17 13 18 7 20 4 22 2 23 1 25 3 26 17 27 19 29
REMARK SMILES IDX 24 31 25 32 26 33 27 34 39 35 28 36 38 37 29 38 30 39 31 40
REMARK SMILES IDX 32 42 37 44 35 45 34 46 33 47 36 49
REMARK H PARENT 21 4 10 15 13 19 7 21 4 24 17 28 19 30 32 43 36 50
REMARK Flexibility Score: 90.00
ROOT
ATOM      1  N   UNL     1      26.578  40.068   8.035  1.00  0.00    -0.319 N 
ATOM      2  C   UNL     1      26.743  40.088   6.617  1.00  0.00     0.407 C 
ATOM      3  O   UNL     1      25.917  40.635   5.842  1.00  0.00    -0.225 OA
ATOM      4  H   UNL     1      27.279  39.606   8.653  1.00  0.00     0.167 HD
ENDROOT
BRANCH   1   5
ATOM      5  C   UNL     1      25.377  40.728   8.549  1.00  0.00     0.154 C 
BRANCH   5   6
ATOM      6  C   UNL     1      24.420  39.623   8.959  1.00  0.00     0.165 C 
BRANCH   6   7
ATOM      7  C   UNL     1      23.332  39.387   7.936  1.00  0.00     0.176 C 
BRANCH   7   8
ATOM      8  C   UNL     1      22.117  38.751   8.533  1.00  0.00     0.178 C 
ATOM      9  C   UNL     1      20.533  37.115   8.422  1.00  0.00     0.269 C 
ATOM     10  C   UNL     1      20.189  37.724   9.765  1.00  0.00     0.112 C 
ATOM     11  O   UNL     1      21.749  37.575   7.934  1.00  0.00    -0.332 OA
ATOM     12  C   UNL     1      20.054  39.231   9.682  1.00  0.00     0.145 C 
ATOM     13  C   UNL     1      20.920  39.677   8.539  1.00  0.00     0.142 C 
BRANCH   9  14
ATOM     14  O   UNL     1      19.501  37.292   7.507  1.00  0.00    -0.357 OA
ATOM     15  H   UNL     1      19.578  36.671   6.735  1.00  0.00     0.214 HD
ENDBRANCH   9  14
BRANCH   9  16
ATOM     16  C   UNL     1      20.689  35.657   8.647  1.00  0.00     0.364 C 
ATOM     17  O   UNL     1      20.876  35.164   9.792  1.00  0.00    -0.246 OA
BRANCH  16  18
ATOM     18  O   UNL     1      20.630  34.801   7.570  1.00  0.00    -0.477 OA
ATOM     19  H   UNL     1      21.326  34.092   7.360  1.00  0.00     0.296 HD
ENDBRANCH  16  18
ENDBRANCH   9  16
BRANCH  12  20
ATOM     20  O   UNL     1      18.720  39.521   9.519  1.00  0.00    -0.391 OA
ATOM     21  H   UNL     1      18.440  39.148   8.626  1.00  0.00     0.211 HD
ENDBRANCH  12  20
BRANCH  13  22
ATOM     22  N   UNL     1      21.262  41.051   8.535  1.00  0.00    -0.348 N 
ATOM     23  C   UNL     1      20.788  42.019   7.610  1.00  0.00     0.217 C 
ATOM     24  H   UNL     1      21.919  41.395   9.268  1.00  0.00     0.163 HD
ATOM     25  C   UNL     1      21.210  43.450   7.690  1.00  0.00     0.114 C 
ATOM     26  O   UNL     1      20.001  41.632   6.724  1.00  0.00    -0.275 OA
ENDBRANCH  13  22
ENDBRANCH   7   8
BRANCH   7  27
ATOM     27  O   UNL     1      23.813  38.763   6.811  1.00  0.00    -0.388 OA
ATOM     28  H   UNL     1      24.414  38.036   7.088  1.00  0.00     0.211 HD
ENDBRANCH   7  27
ENDBRANCH   6   7
BRANCH   6  29
ATOM     29  O   UNL     1      23.747  40.009  10.141  1.00  0.00    -0.388 OA
ATOM     30  H   UNL     1      24.120  39.531  10.935  1.00  0.00     0.211 HD
ENDBRANCH   6  29
ENDBRANCH   5   6
ENDBRANCH   1   5
BRANCH   2  31
ATOM     31  O   UNL     1      27.845  39.490   6.057  1.00  0.00    -0.443 OA
BRANCH  31  32
ATOM     32  C   UNL     1      27.796  38.334   5.238  1.00  0.00     0.294 C 
BRANCH  32  33
ATOM     33  C   UNL     1      27.676  37.144   6.111  1.00  0.00     0.120 A 
ATOM     34  C   UNL     1      26.750  36.871   7.093  1.00  0.00     0.138 A 
ATOM     35  N   UNL     1      28.509  36.085   6.069  1.00  0.00    -0.132 NA
ATOM     36  N   UNL     1      27.036  35.666   7.621  1.00  0.00    -0.249 N 
ATOM     37  N   UNL     1      28.114  35.223   6.969  1.00  0.00    -0.067 NA
BRANCH  36  38
ATOM     38  C   UNL     1      26.302  34.994   8.694  1.00  0.00     0.115 C 
BRANCH  38  39
ATOM     39  C   UNL     1      25.470  36.021   9.385  1.00  0.00     0.063 C 
BRANCH  39  40
ATOM     40  C   UNL     1      24.415  35.473  10.280  1.00  0.00     0.139 CG0
ATOM     41  G   UNL     1      24.944  34.867  11.513  1.00  0.00     0.000 G0
BRANCH  40  42
ATOM     42  O   UNL     1      23.390  36.410  10.542  1.00  0.00    -0.389 OA
ATOM     43  H   UNL     1      23.676  36.984  11.284  1.00  0.00     0.211 HD
ENDBRANCH  40  42
ENDBRANCH  39  40
ENDBRANCH  38  39
BRANCH  38  44
ATOM     44  C   UNL     1      27.298  34.314   9.569  1.00  0.00     0.063 C 
BRANCH  44  45
ATOM     45  C   UNL     1      27.411  34.890  10.948  1.00  0.00     0.139 C 
BRANCH  45  46
ATOM     46  C   UNL     1      26.222  34.646  11.793  1.00  0.00     0.002 C 
ATOM     47  C   UNL     1      24.961  34.892  11.513  1.00  0.00     0.002 CG0
ATOM     48  G   UNL     1      24.380  35.474  10.292  1.00  0.00     0.000 G0
ENDBRANCH  45  46
BRANCH  45  49
ATOM     49  O   UNL     1      28.581  34.499  11.597  1.00  0.00    -0.389 OA
ATOM     50  H   UNL     1      29.332  34.391  10.961  1.00  0.00     0.211 HD
ENDBRANCH  45  49
ENDBRANCH  44  45
ENDBRANCH  38  44
ENDBRANCH  36  38
ENDBRANCH  32  33
ENDBRANCH  31  32
ENDBRANCH   2  31
TORSDOF 17
BEGIN_RES LYS A 131
REMARK  4 active torsions:
REMARK  status: ('A' for Active; 'I' for Inactive)
REMARK    1  A    between atoms: CA   and  CB  
REMARK    2  A    between atoms: CB   and  CG  
REMARK    3  A    between atoms: CG   and  CD  
REMARK    4  A    between atoms: CD   and  CE  
ROOT
ATOM      1  CA  LYS A 131      29.867  25.555  16.977  1.00 20.52     0.186 C 
ENDROOT
BRANCH   1   2
ATOM      2  CB  LYS A 131      28.345  25.722  17.026  1.00 20.94     0.034 C 
BRANCH   2   3
ATOM      3  CG  LYS A 131      27.602  24.398  16.929  1.00 22.96     0.005 C 
BRANCH   3   4
ATOM      4  CD  LYS A 131      26.154  24.532  17.312  1.00 24.33     0.041 C 
BRANCH   4   5
ATOM      5  CE  LYS A 131      25.638  23.193  17.828  1.00 26.91     0.338 C 
ATOM      6  NZ  LYS A 131      24.238  23.323  18.296  1.00 27.40     0.618 N 
ENDBRANCH   4   5
ENDBRANCH   3   4
ENDBRANCH   2   3
ENDBRANCH   1   2
END_RES LYS A 131
BEGIN_RES LYS A 135
REMARK  4 active torsions:
REMARK  status: ('A' for Active; 'I' for Inactive)
REMARK    5  A    between atoms: CA   and  CB  
REMARK    6  A    between atoms: CB   and  CG  
REMARK    7  A    between atoms: CG   and  CD  
REMARK    8  A    between atoms: CD   and  CE  
ROOT
ATOM      7  CA  LYS A 135      33.193  34.663   9.290  1.00 25.02     0.186 C 
ENDROOT
BRANCH   7   8
ATOM      8  CB  LYS A 135      32.060  35.360  10.034  1.00 26.63     0.034 C 
BRANCH   8   9
ATOM      9  CG  LYS A 135      30.833  35.584   9.189  1.00 29.45     0.005 C 
BRANCH   9  10
ATOM     10  CD  LYS A 135      30.179  36.913   9.534  1.00 32.00     0.041 C 
BRANCH  10  11
ATOM     11  CE  LYS A 135      30.753  38.027   8.679  1.00 34.25     0.338 C 
ATOM     12  NZ  LYS A 135      31.256  39.146   9.523  1.00 35.99     0.618 N 
ENDBRANCH  10  11
ENDBRANCH   9  10
ENDBRANCH   8   9
ENDBRANCH   7   8
END_RES LYS A 135
