REMARK VINA RESULT:    -4.712      1.655      2.811
REMARK INTER + INTRA:         -15.163
REMARK INTER:                  -9.975
REMARK INTRA:                  -5.188
REMARK UNBOUND:                -7.007
REMARK SMILES CC(=O)N[C@@H]1[C@@H](O)C[C@](O)(C(=O)O)O[C@H]1C(O)[C@H](O)CNC(=O)OCc1cn(-c2ccc(Cl)cc2)nn1
REMARK SMILES IDX 20 1 18 2 16 3 15 4 9 5 8 6 14 7 6 8 5 9 10 10 11 12 12 13
REMARK SMILES IDX 13 14 7 16 4 18 2 19 1 21 3 22 17 23 19 25 21 27 22 28 23 30
REMARK SMILES IDX 24 31 25 32 26 33 27 34 37 35 28 36 36 37 29 38 30 39 35 40
REMARK SMILES IDX 31 41 34 42 32 43 33 44
REMARK H PARENT 10 11 13 15 7 17 4 20 17 24 19 26 21 29
REMARK Flexibility Score: inf
ROOT
ATOM      1  C   UNL     1      30.047  27.171  21.215  1.00  0.00     0.154 C 
ENDROOT
BRANCH   1   2
ATOM      2  C   UNL     1      31.538  27.156  21.099  1.00  0.00     0.165 C 
BRANCH   2   3
ATOM      3  C   UNL     1      32.094  28.240  22.037  1.00  0.00     0.176 C 
BRANCH   3   4
ATOM      4  C   UNL     1      32.374  29.533  21.273  1.00  0.00     0.178 C 
ATOM      5  C   UNL     1      33.993  30.878  22.313  1.00  0.00     0.269 C 
ATOM      6  C   UNL     1      33.366  32.200  21.926  1.00  0.00     0.112 C 
ATOM      7  O   UNL     1      33.701  29.836  21.503  1.00  0.00    -0.332 OA
ATOM      8  C   UNL     1      32.108  31.940  21.178  1.00  0.00     0.145 C 
ATOM      9  C   UNL     1      31.503  30.646  21.688  1.00  0.00     0.142 C 
BRANCH   5  10
ATOM     10  O   UNL     1      33.678  30.677  23.655  1.00  0.00    -0.357 OA
ATOM     11  H   UNL     1      33.836  29.716  23.834  1.00  0.00     0.214 HD
ENDBRANCH   5  10
BRANCH   5  12
ATOM     12  C   UNL     1      35.461  31.095  22.243  1.00  0.00     0.364 C 
ATOM     13  O   UNL     1      36.181  30.523  23.092  1.00  0.00    -0.246 OA
BRANCH  12  14
ATOM     14  O   UNL     1      36.034  31.892  21.290  1.00  0.00    -0.477 OA
ATOM     15  H   UNL     1      36.312  31.486  20.393  1.00  0.00     0.296 HD
ENDBRANCH  12  14
ENDBRANCH   5  12
BRANCH   8  16
ATOM     16  O   UNL     1      31.205  32.994  21.228  1.00  0.00    -0.391 OA
ATOM     17  H   UNL     1      30.805  33.070  22.118  1.00  0.00     0.211 HD
ENDBRANCH   8  16
BRANCH   9  18
ATOM     18  N   UNL     1      30.143  30.617  21.272  1.00  0.00    -0.348 N 
ATOM     19  C   UNL     1      29.055  30.506  22.172  1.00  0.00     0.217 C 
ATOM     20  H   UNL     1      29.982  30.683  20.232  1.00  0.00     0.163 HD
ATOM     21  C   UNL     1      27.655  30.479  21.703  1.00  0.00     0.114 C 
ATOM     22  O   UNL     1      29.385  30.434  23.387  1.00  0.00    -0.275 OA
ENDBRANCH   9  18
ENDBRANCH   3   4
BRANCH   3  23
ATOM     23  O   UNL     1      33.268  27.782  22.643  1.00  0.00    -0.388 OA
ATOM     24  H   UNL     1      33.125  27.576  23.609  1.00  0.00     0.211 HD
ENDBRANCH   3  23
ENDBRANCH   2   3
BRANCH   2  25
ATOM     25  O   UNL     1      31.987  27.337  19.811  1.00  0.00    -0.388 OA
ATOM     26  H   UNL     1      32.246  26.537  19.321  1.00  0.00     0.211 HD
ENDBRANCH   2  25
ENDBRANCH   1   2
BRANCH   1  27
ATOM     27  N   UNL     1      29.320  27.402  20.012  1.00  0.00    -0.319 N 
ATOM     28  C   UNL     1      27.912  27.309  19.880  1.00  0.00     0.407 C 
ATOM     29  H   UNL     1      29.852  27.665  19.136  1.00  0.00     0.167 HD
ATOM     30  O   UNL     1      27.183  27.016  20.842  1.00  0.00    -0.225 OA
BRANCH  28  31
ATOM     31  O   UNL     1      27.302  27.550  18.634  1.00  0.00    -0.443 OA
BRANCH  31  32
ATOM     32  C   UNL     1      26.714  28.816  18.346  1.00  0.00     0.294 C 
BRANCH  32  33
ATOM     33  C   UNL     1      27.652  29.529  17.445  1.00  0.00     0.121 A 
ATOM     34  C   UNL     1      28.472  30.562  17.794  1.00  0.00     0.144 A 
ATOM     35  N   UNL     1      27.853  29.287  16.158  1.00  0.00    -0.131 NA
ATOM     36  N   UNL     1      29.154  30.917  16.685  1.00  0.00    -0.220 N 
ATOM     37  N   UNL     1      28.765  30.132  15.697  1.00  0.00    -0.062 NA
BRANCH  36  38
ATOM     38  C   UNL     1      30.116  31.976  16.665  1.00  0.00     0.066 A 
ATOM     39  C   UNL     1      30.325  32.720  17.801  1.00  0.00     0.030 A 
ATOM     40  C   UNL     1      30.795  32.201  15.495  1.00  0.00     0.030 A 
ATOM     41  C   UNL     1      31.264  33.733  17.737  1.00  0.00     0.023 A 
ATOM     42  C   UNL     1      31.727  33.221  15.465  1.00  0.00     0.023 A 
ATOM     43  C   UNL     1      31.972  33.993  16.574  1.00  0.00     0.041 A 
ATOM     44  Cl  UNL     1      33.159  35.264  16.471  1.00  0.00    -0.084 Cl
ENDBRANCH  36  38
ENDBRANCH  32  33
ENDBRANCH  31  32
ENDBRANCH  28  31
ENDBRANCH   1  27
TORSDOF 15
BEGIN_RES LYS A 131
REMARK  4 active torsions:
REMARK  status: ('A' for Active; 'I' for Inactive)
REMARK    1  A    between atoms: CA   and  CB  
REMARK    2  A    between atoms: CB   and  CG  
REMARK    3  A    between atoms: CG   and  CD  
REMARK    4  A    between atoms: CD   and  CE  
ROOT
ATOM      1  CA  LYS A 131      29.867  25.555  16.977  1.00 20.52     0.186 C 
ENDROOT
BRANCH   1   2
ATOM      2  CB  LYS A 131      28.345  25.722  17.026  1.00 20.94     0.034 C 
BRANCH   2   3
ATOM      3  CG  LYS A 131      27.599  24.428  16.738  1.00 22.96     0.005 C 
BRANCH   3   4
ATOM      4  CD  LYS A 131      26.980  23.844  17.977  1.00 24.33     0.041 C 
BRANCH   4   5
ATOM      5  CE  LYS A 131      25.611  24.476  18.209  1.00 26.91     0.338 C 
ATOM      6  NZ  LYS A 131      24.763  24.334  17.002  1.00 27.40     0.618 N 
ENDBRANCH   4   5
ENDBRANCH   3   4
ENDBRANCH   2   3
ENDBRANCH   1   2
END_RES LYS A 131
BEGIN_RES LYS A 135
REMARK  4 active torsions:
REMARK  status: ('A' for Active; 'I' for Inactive)
REMARK    5  A    between atoms: CA   and  CB  
REMARK    6  A    between atoms: CB   and  CG  
REMARK    7  A    between atoms: CG   and  CD  
REMARK    8  A    between atoms: CD   and  CE  
ROOT
ATOM      7  CA  LYS A 135      33.193  34.663   9.290  1.00 25.02     0.186 C 
ENDROOT
BRANCH   7   8
ATOM      8  CB  LYS A 135      32.060  35.360  10.034  1.00 26.63     0.034 C 
BRANCH   8   9
ATOM      9  CG  LYS A 135      30.721  34.692   9.856  1.00 29.45     0.005 C 
BRANCH   9  10
ATOM     10  CD  LYS A 135      29.813  35.537   8.976  1.00 32.00     0.041 C 
BRANCH  10  11
ATOM     11  CE  LYS A 135      29.613  34.875   7.626  1.00 34.25     0.338 C 
ATOM     12  NZ  LYS A 135      28.799  35.735   6.722  1.00 35.99     0.618 N 
ENDBRANCH  10  11
ENDBRANCH   9  10
ENDBRANCH   8   9
ENDBRANCH   7   8
END_RES LYS A 135
