REMARK VINA RESULT:    -4.663      2.078      4.493
REMARK INTER + INTRA:         -14.626
REMARK INTER:                 -10.647
REMARK INTRA:                  -3.979
REMARK UNBOUND:                -6.555
REMARK SMILES CC(=O)N[C@@H]1[C@@H](O)C[C@](O)(C(=O)O)O[C@H]1C(O)[C@H](O)CNC(=O)OCc1cn([C@H]2C[C@H]3CC[C@@H](C2)N3C)nn1
REMARK SMILES IDX 20 1 18 2 16 3 15 4 9 5 8 6 14 7 6 8 5 9 10 10 11 12 12 13
REMARK SMILES IDX 13 14 7 16 4 18 2 19 1 21 3 22 17 23 19 25 21 27 22 28 23 30
REMARK SMILES IDX 24 31 25 32 26 33 27 34 39 35 28 36 38 37 29 38 35 39 30 40
REMARK SMILES IDX 34 41 31 42 36 43 33 44 32 45 37 46
REMARK H PARENT 10 11 13 15 7 17 4 20 17 24 19 26 21 29
REMARK Flexibility Score: inf
ROOT
ATOM      1  C   UNL     1      30.406  33.576  19.314  1.00  0.00     0.154 C 
ENDROOT
BRANCH   1   2
ATOM      2  C   UNL     1      30.767  32.168  19.643  1.00  0.00     0.165 C 
BRANCH   2   3
ATOM      3  C   UNL     1      29.725  31.166  19.254  1.00  0.00     0.176 C 
BRANCH   3   4
ATOM      4  C   UNL     1      29.705  29.960  20.164  1.00  0.00     0.178 C 
ATOM      5  C   UNL     1      31.020  28.188  20.856  1.00  0.00     0.269 C 
ATOM      6  C   UNL     1      29.723  27.839  21.535  1.00  0.00     0.112 C 
ATOM      7  O   UNL     1      30.980  29.415  20.210  1.00  0.00    -0.332 OA
ATOM      8  C   UNL     1      28.536  27.886  20.622  1.00  0.00     0.145 C 
ATOM      9  C   UNL     1      28.795  28.913  19.555  1.00  0.00     0.142 C 
BRANCH   5  10
ATOM     10  O   UNL     1      31.457  27.187  19.991  1.00  0.00    -0.357 OA
ATOM     11  H   UNL     1      30.977  27.239  19.132  1.00  0.00     0.214 HD
ENDBRANCH   5  10
BRANCH   5  12
ATOM     12  C   UNL     1      32.056  28.305  21.931  1.00  0.00     0.364 C 
ATOM     13  O   UNL     1      32.145  29.365  22.636  1.00  0.00    -0.246 OA
BRANCH  12  14
ATOM     14  O   UNL     1      32.953  27.303  22.219  1.00  0.00    -0.477 OA
ATOM     15  H   UNL     1      33.947  27.554  22.278  1.00  0.00     0.296 HD
ENDBRANCH  12  14
ENDBRANCH   5  12
BRANCH   8  16
ATOM     16  O   UNL     1      28.159  26.656  20.134  1.00  0.00    -0.391 OA
ATOM     17  H   UNL     1      27.174  26.668  20.009  1.00  0.00     0.211 HD
ENDBRANCH   8  16
BRANCH   9  18
ATOM     18  N   UNL     1      27.590  29.484  19.007  1.00  0.00    -0.348 N 
ATOM     19  C   UNL     1      26.891  28.891  17.912  1.00  0.00     0.217 C 
ATOM     20  H   UNL     1      27.186  30.362  19.402  1.00  0.00     0.163 HD
ATOM     21  C   UNL     1      25.661  29.526  17.398  1.00  0.00     0.114 C 
ATOM     22  O   UNL     1      27.359  27.836  17.425  1.00  0.00    -0.275 OA
ENDBRANCH   9  18
ENDBRANCH   3   4
BRANCH   3  23
ATOM     23  O   UNL     1      29.985  30.720  17.959  1.00  0.00    -0.388 OA
ATOM     24  H   UNL     1      30.118  29.756  17.920  1.00  0.00     0.211 HD
ENDBRANCH   3  23
ENDBRANCH   2   3
BRANCH   2  25
ATOM     25  O   UNL     1      31.017  32.020  21.026  1.00  0.00    -0.388 OA
ATOM     26  H   UNL     1      31.191  31.045  21.154  1.00  0.00     0.211 HD
ENDBRANCH   2  25
ENDBRANCH   1   2
BRANCH   1  27
ATOM     27  N   UNL     1      29.860  33.709  17.984  1.00  0.00    -0.319 N 
ATOM     28  C   UNL     1      30.700  34.116  16.915  1.00  0.00     0.407 C 
ATOM     29  H   UNL     1      28.855  33.515  17.759  1.00  0.00     0.167 HD
ATOM     30  O   UNL     1      31.925  34.378  17.062  1.00  0.00    -0.225 OA
BRANCH  28  31
ATOM     31  O   UNL     1      30.226  34.259  15.611  1.00  0.00    -0.443 OA
BRANCH  31  32
ATOM     32  C   UNL     1      29.014  33.678  15.173  1.00  0.00     0.294 C 
BRANCH  32  33
ATOM     33  C   UNL     1      28.558  34.338  13.919  1.00  0.00     0.120 A 
ATOM     34  C   UNL     1      29.334  34.526  12.795  1.00  0.00     0.138 A 
ATOM     35  N   UNL     1      27.360  34.865  13.615  1.00  0.00    -0.132 NA
ATOM     36  N   UNL     1      28.595  35.159  11.842  1.00  0.00    -0.249 N 
ATOM     37  N   UNL     1      27.407  35.341  12.393  1.00  0.00    -0.067 NA
BRANCH  36  38
ATOM     38  C   UNL     1      29.030  35.549  10.504  1.00  0.00     0.112 C 
ATOM     39  C   UNL     1      28.131  36.628  10.024  1.00  0.00     0.046 C 
ATOM     40  C   UNL     1      29.065  34.323   9.663  1.00  0.00     0.046 C 
ATOM     41  C   UNL     1      27.878  36.649   8.559  1.00  0.00     0.058 C 
ATOM     42  C   UNL     1      28.452  34.493   8.298  1.00  0.00     0.058 C 
ATOM     43  N   UNL     1      28.809  35.820   7.829  1.00  0.00    -0.300 NA
ATOM     44  C   UNL     1      26.555  35.946   8.300  1.00  0.00     0.021 C 
ATOM     45  C   UNL     1      26.952  34.492   8.454  1.00  0.00     0.021 C 
ATOM     46  C   UNL     1      28.601  35.970   6.410  1.00  0.00     0.105 C 
ENDBRANCH  36  38
ENDBRANCH  32  33
ENDBRANCH  31  32
ENDBRANCH  28  31
ENDBRANCH   1  27
TORSDOF 15
BEGIN_RES LYS A 131
REMARK  4 active torsions:
REMARK  status: ('A' for Active; 'I' for Inactive)
REMARK    1  A    between atoms: CA   and  CB  
REMARK    2  A    between atoms: CB   and  CG  
REMARK    3  A    between atoms: CG   and  CD  
REMARK    4  A    between atoms: CD   and  CE  
ROOT
ATOM      1  CA  LYS A 131      29.867  25.555  16.977  1.00 20.52     0.186 C 
ENDROOT
BRANCH   1   2
ATOM      2  CB  LYS A 131      28.345  25.722  17.026  1.00 20.94     0.034 C 
BRANCH   2   3
ATOM      3  CG  LYS A 131      27.601  24.401  16.905  1.00 22.96     0.005 C 
BRANCH   3   4
ATOM      4  CD  LYS A 131      26.540  24.250  17.959  1.00 24.33     0.041 C 
BRANCH   4   5
ATOM      5  CE  LYS A 131      25.164  24.427  17.324  1.00 26.91     0.338 C 
ATOM      6  NZ  LYS A 131      24.613  25.765  17.646  1.00 27.40     0.618 N 
ENDBRANCH   4   5
ENDBRANCH   3   4
ENDBRANCH   2   3
ENDBRANCH   1   2
END_RES LYS A 131
BEGIN_RES LYS A 135
REMARK  4 active torsions:
REMARK  status: ('A' for Active; 'I' for Inactive)
REMARK    5  A    between atoms: CA   and  CB  
REMARK    6  A    between atoms: CB   and  CG  
REMARK    7  A    between atoms: CG   and  CD  
REMARK    8  A    between atoms: CD   and  CE  
ROOT
ATOM      7  CA  LYS A 135      33.193  34.663   9.290  1.00 25.02     0.186 C 
ENDROOT
BRANCH   7   8
ATOM      8  CB  LYS A 135      32.060  35.360  10.034  1.00 26.63     0.034 C 
BRANCH   8   9
ATOM      9  CG  LYS A 135      32.502  36.042  11.303  1.00 29.45     0.005 C 
BRANCH   9  10
ATOM     10  CD  LYS A 135      31.934  37.450  11.381  1.00 32.00     0.041 C 
BRANCH  10  11
ATOM     11  CE  LYS A 135      31.362  37.718  12.761  1.00 34.25     0.338 C 
ATOM     12  NZ  LYS A 135      31.985  36.830  13.781  1.00 35.99     0.618 N 
ENDBRANCH  10  11
ENDBRANCH   9  10
ENDBRANCH   8   9
ENDBRANCH   7   8
END_RES LYS A 135
