REMARK VINA RESULT:    -4.553      7.791     12.703
REMARK INTER + INTRA:         -14.435
REMARK INTER:                  -9.063
REMARK INTRA:                  -5.372
REMARK UNBOUND:                -6.554
REMARK SMILES CC(=O)N[C@@H]1[C@@H](O)C[C@](O)(C(=O)O)O[C@H]1C(O)[C@H](O)CNC(=O)OCc1cn(C23CC4CC(CC(C4)C2)C3)nn1
REMARK SMILES IDX 20 1 18 2 16 3 15 4 9 5 8 6 14 7 6 8 5 9 10 10 11 12 12 13
REMARK SMILES IDX 13 14 7 16 4 18 2 19 1 21 3 22 17 23 19 25 21 27 22 28 23 30
REMARK SMILES IDX 24 31 25 32 26 33 27 34 40 35 28 36 39 37 29 38 38 39 37 40
REMARK SMILES IDX 30 41 33 42 35 43 31 44 32 45 34 46 36 47
REMARK H PARENT 10 11 13 15 7 17 4 20 17 24 19 26 21 29
REMARK Flexibility Score: inf
ROOT
ATOM      1  C   UNL     1      29.349  38.669   5.800  1.00  0.00     0.154 C 
ENDROOT
BRANCH   1   2
ATOM      2  C   UNL     1      27.907  38.232   5.770  1.00  0.00     0.165 C 
BRANCH   2   3
ATOM      3  C   UNL     1      27.524  37.403   6.978  1.00  0.00     0.176 C 
BRANCH   3   4
ATOM      4  C   UNL     1      26.157  37.848   7.511  1.00  0.00     0.178 C 
ATOM      5  C   UNL     1      26.199  39.990   8.463  1.00  0.00     0.269 C 
ATOM      6  C   UNL     1      26.820  39.338   9.672  1.00  0.00     0.112 C 
ATOM      7  O   UNL     1      25.954  39.186   7.405  1.00  0.00    -0.332 OA
ATOM      8  C   UNL     1      26.060  38.107  10.022  1.00  0.00     0.145 C 
ATOM      9  C   UNL     1      25.822  37.234   8.819  1.00  0.00     0.142 C 
BRANCH   5  10
ATOM     10  O   UNL     1      27.146  40.954   8.045  1.00  0.00    -0.357 OA
ATOM     11  H   UNL     1      26.629  41.742   7.731  1.00  0.00     0.214 HD
ENDBRANCH   5  10
BRANCH   5  12
ATOM     12  C   UNL     1      25.009  40.740   8.938  1.00  0.00     0.364 C 
ATOM     13  O   UNL     1      25.100  41.711   9.738  1.00  0.00    -0.246 OA
BRANCH  12  14
ATOM     14  O   UNL     1      23.752  40.380   8.502  1.00  0.00    -0.477 OA
ATOM     15  H   UNL     1      23.520  39.429   8.212  1.00  0.00     0.296 HD
ENDBRANCH  12  14
ENDBRANCH   5  12
BRANCH   8  16
ATOM     16  O   UNL     1      26.788  37.431  11.028  1.00  0.00    -0.391 OA
ATOM     17  H   UNL     1      27.638  37.106  10.662  1.00  0.00     0.211 HD
ENDBRANCH   8  16
BRANCH   9  18
ATOM     18  N   UNL     1      24.426  36.815   8.790  1.00  0.00    -0.348 N 
ATOM     19  C   UNL     1      23.915  35.812   9.655  1.00  0.00     0.217 C 
ATOM     20  H   UNL     1      23.758  37.269   8.101  1.00  0.00     0.163 HD
ATOM     21  C   UNL     1      22.493  35.451   9.557  1.00  0.00     0.114 C 
ATOM     22  O   UNL     1      24.712  35.267  10.478  1.00  0.00    -0.275 OA
ENDBRANCH   9  18
ENDBRANCH   3   4
BRANCH   3  23
ATOM     23  O   UNL     1      27.589  36.060   6.759  1.00  0.00    -0.388 OA
ATOM     24  H   UNL     1      28.085  35.531   7.401  1.00  0.00     0.211 HD
ENDBRANCH   3  23
ENDBRANCH   2   3
BRANCH   2  25
ATOM     25  O   UNL     1      27.700  37.544   4.578  1.00  0.00    -0.388 OA
ATOM     26  H   UNL     1      27.524  38.220   3.848  1.00  0.00     0.211 HD
ENDBRANCH   2  25
ENDBRANCH   1   2
BRANCH   1  27
ATOM     27  N   UNL     1      29.884  38.285   7.095  1.00  0.00    -0.319 N 
ATOM     28  C   UNL     1      30.924  39.036   7.740  1.00  0.00     0.407 C 
ATOM     29  H   UNL     1      29.548  37.449   7.629  1.00  0.00     0.167 HD
ATOM     30  O   UNL     1      31.362  40.049   7.142  1.00  0.00    -0.225 OA
BRANCH  28  31
ATOM     31  O   UNL     1      31.440  38.685   8.964  1.00  0.00    -0.443 OA
BRANCH  31  32
ATOM     32  C   UNL     1      31.106  39.453  10.099  1.00  0.00     0.294 C 
BRANCH  32  33
ATOM     33  C   UNL     1      30.690  38.498  11.175  1.00  0.00     0.120 A 
ATOM     34  C   UNL     1      31.571  37.868  12.034  1.00  0.00     0.138 A 
ATOM     35  N   UNL     1      29.482  38.065  11.524  1.00  0.00    -0.132 NA
ATOM     36  N   UNL     1      30.868  37.096  12.850  1.00  0.00    -0.246 N 
ATOM     37  N   UNL     1      29.597  37.225  12.530  1.00  0.00    -0.066 NA
BRANCH  36  38
ATOM     38  C   UNL     1      31.445  36.264  13.908  1.00  0.00     0.065 C 
ATOM     39  C   UNL     1      31.921  37.221  14.992  1.00  0.00     0.034 C 
ATOM     40  C   UNL     1      32.592  35.455  13.386  1.00  0.00     0.034 C 
ATOM     41  C   UNL     1      30.388  35.330  14.442  1.00  0.00     0.034 C 
ATOM     42  C   UNL     1      32.510  36.421  16.138  1.00  0.00    -0.008 C 
ATOM     43  C   UNL     1      33.210  34.704  14.544  1.00  0.00    -0.008 C 
ATOM     44  C   UNL     1      30.970  34.542  15.595  1.00  0.00    -0.008 C 
ATOM     45  C   UNL     1      31.448  35.502  16.669  1.00  0.00     0.007 C 
ATOM     46  C   UNL     1      33.692  35.654  15.600  1.00  0.00     0.007 C 
ATOM     47  C   UNL     1      32.157  33.762  15.082  1.00  0.00     0.007 C 
ENDBRANCH  36  38
ENDBRANCH  32  33
ENDBRANCH  31  32
ENDBRANCH  28  31
ENDBRANCH   1  27
TORSDOF 15
BEGIN_RES LYS A 131
REMARK  4 active torsions:
REMARK  status: ('A' for Active; 'I' for Inactive)
REMARK    1  A    between atoms: CA   and  CB  
REMARK    2  A    between atoms: CB   and  CG  
REMARK    3  A    between atoms: CG   and  CD  
REMARK    4  A    between atoms: CD   and  CE  
ROOT
ATOM      1  CA  LYS A 131      29.867  25.555  16.977  1.00 20.52     0.186 C 
ENDROOT
BRANCH   1   2
ATOM      2  CB  LYS A 131      28.345  25.722  17.026  1.00 20.94     0.034 C 
BRANCH   2   3
ATOM      3  CG  LYS A 131      27.601  24.403  16.882  1.00 22.96     0.005 C 
BRANCH   3   4
ATOM      4  CD  LYS A 131      26.189  24.491  17.392  1.00 24.33     0.041 C 
BRANCH   4   5
ATOM      5  CE  LYS A 131      25.622  23.085  17.565  1.00 26.91     0.338 C 
ATOM      6  NZ  LYS A 131      25.165  22.878  18.959  1.00 27.40     0.618 N 
ENDBRANCH   4   5
ENDBRANCH   3   4
ENDBRANCH   2   3
ENDBRANCH   1   2
END_RES LYS A 131
BEGIN_RES LYS A 135
REMARK  4 active torsions:
REMARK  status: ('A' for Active; 'I' for Inactive)
REMARK    5  A    between atoms: CA   and  CB  
REMARK    6  A    between atoms: CB   and  CG  
REMARK    7  A    between atoms: CG   and  CD  
REMARK    8  A    between atoms: CD   and  CE  
ROOT
ATOM      7  CA  LYS A 135      33.193  34.663   9.290  1.00 25.02     0.186 C 
ENDROOT
BRANCH   7   8
ATOM      8  CB  LYS A 135      32.060  35.360  10.034  1.00 26.63     0.034 C 
BRANCH   8   9
ATOM      9  CG  LYS A 135      30.775  35.427   9.249  1.00 29.45     0.005 C 
BRANCH   9  10
ATOM     10  CD  LYS A 135      29.951  34.167   9.461  1.00 32.00     0.041 C 
BRANCH  10  11
ATOM     11  CE  LYS A 135      28.616  34.504  10.099  1.00 34.25     0.338 C 
ATOM     12  NZ  LYS A 135      27.503  33.774   9.432  1.00 35.99     0.618 N 
ENDBRANCH  10  11
ENDBRANCH   9  10
ENDBRANCH   8   9
ENDBRANCH   7   8
END_RES LYS A 135
