REMARK VINA RESULT:    -3.210      8.978     16.254
REMARK INTER + INTRA:         -13.409
REMARK INTER:                  -6.524
REMARK INTRA:                  -6.885
REMARK UNBOUND:                -7.572
REMARK SMILES CC(=O)N[C@@H]1[C@@H](O)C[C@](O)(C(=O)O)O[C@H]1C(O)[C@H](O)CNC(=O)OCc1cn(CCO)nn1
REMARK SMILES IDX 21 1 22 2 23 3 20 5 18 6 16 7 15 8 9 9 8 10 14 11 6 12 5 13
REMARK SMILES IDX 10 14 11 16 12 17 13 18 7 20 4 22 2 23 1 25 3 26 17 27 19 29
REMARK SMILES IDX 24 31 25 32 26 33 27 34 33 35 28 36 32 37 29 38 30 39 31 40
REMARK H PARENT 21 4 10 15 13 19 7 21 4 24 17 28 19 30 31 41
REMARK Flexibility Score: inf
ROOT
ATOM      1  N   UNL     1      33.004  28.647  22.242  1.00  0.00    -0.319 N 
ATOM      2  C   UNL     1      32.839  28.899  23.609  1.00  0.00     0.407 C 
ATOM      3  O   UNL     1      32.394  29.979  23.987  1.00  0.00    -0.225 OA
ATOM      4  H   UNL     1      33.403  27.675  22.014  1.00  0.00     0.167 HD
ENDROOT
BRANCH   1   5
ATOM      5  C   UNL     1      32.728  29.472  21.130  1.00  0.00     0.154 C 
BRANCH   5   6
ATOM      6  C   UNL     1      31.512  29.160  20.316  1.00  0.00     0.165 C 
BRANCH   6   7
ATOM      7  C   UNL     1      30.336  30.009  20.695  1.00  0.00     0.176 C 
BRANCH   7   8
ATOM      8  C   UNL     1      29.092  29.893  19.923  1.00  0.00     0.178 C 
ATOM      9  C   UNL     1      27.407  28.503  19.187  1.00  0.00     0.269 C 
ATOM     10  C   UNL     1      26.676  29.820  19.037  1.00  0.00     0.112 C 
ATOM     11  O   UNL     1      28.603  28.611  19.896  1.00  0.00    -0.332 OA
ATOM     12  C   UNL     1      27.548  30.827  18.299  1.00  0.00     0.145 C 
ATOM     13  C   UNL     1      29.030  30.493  18.561  1.00  0.00     0.142 C 
BRANCH   9  14
ATOM     14  O   UNL     1      27.732  27.979  17.939  1.00  0.00    -0.357 OA
ATOM     15  H   UNL     1      28.018  27.038  17.983  1.00  0.00     0.214 HD
ENDBRANCH   9  14
BRANCH   9  16
ATOM     16  C   UNL     1      26.582  27.515  19.920  1.00  0.00     0.364 C 
ATOM     17  O   UNL     1      25.350  27.369  19.716  1.00  0.00    -0.246 OA
BRANCH  16  18
ATOM     18  O   UNL     1      27.182  26.712  20.872  1.00  0.00    -0.477 OA
ATOM     19  H   UNL     1      27.467  25.753  20.624  1.00  0.00     0.296 HD
ENDBRANCH  16  18
ENDBRANCH   9  16
BRANCH  12  20
ATOM     20  O   UNL     1      27.265  30.766  16.942  1.00  0.00    -0.391 OA
ATOM     21  H   UNL     1      27.719  31.540  16.517  1.00  0.00     0.211 HD
ENDBRANCH  12  20
BRANCH  13  22
ATOM     22  N   UNL     1      29.807  31.706  18.403  1.00  0.00    -0.348 N 
ATOM     23  C   UNL     1      30.467  31.936  17.168  1.00  0.00     0.217 C 
ATOM     24  H   UNL     1      29.895  32.414  19.173  1.00  0.00     0.163 HD
ATOM     25  C   UNL     1      31.288  33.151  16.916  1.00  0.00     0.114 C 
ATOM     26  O   UNL     1      30.363  31.092  16.249  1.00  0.00    -0.275 OA
ENDBRANCH  13  22
ENDBRANCH   7   8
BRANCH   7  27
ATOM     27  O   UNL     1      30.093  29.638  22.070  1.00  0.00    -0.388 OA
ATOM     28  H   UNL     1      30.444  28.742  22.209  1.00  0.00     0.211 HD
ENDBRANCH   7  27
ENDBRANCH   6   7
BRANCH   6  29
ATOM     29  O   UNL     1      31.243  27.832  20.292  1.00  0.00    -0.388 OA
ATOM     30  H   UNL     1      32.005  27.233  20.414  1.00  0.00     0.211 HD
ENDBRANCH   6  29
ENDBRANCH   5   6
ENDBRANCH   1   5
BRANCH   2  31
ATOM     31  O   UNL     1      33.170  27.948  24.571  1.00  0.00    -0.443 OA
BRANCH  31  32
ATOM     32  C   UNL     1      32.548  26.682  24.611  1.00  0.00     0.294 C 
BRANCH  32  33
ATOM     33  C   UNL     1      31.146  26.805  24.147  1.00  0.00     0.120 A 
ATOM     34  C   UNL     1      30.035  27.073  24.908  1.00  0.00     0.138 A 
ATOM     35  N   UNL     1      30.726  26.673  22.896  1.00  0.00    -0.132 NA
ATOM     36  N   UNL     1      28.995  27.088  24.054  1.00  0.00    -0.250 N 
ATOM     37  N   UNL     1      29.410  26.843  22.822  1.00  0.00    -0.067 NA
BRANCH  36  38
ATOM     38  C   UNL     1      27.623  27.336  24.447  1.00  0.00     0.174 C 
BRANCH  38  39
ATOM     39  C   UNL     1      27.297  28.802  24.175  1.00  0.00     0.179 C 
BRANCH  39  40
ATOM     40  O   UNL     1      27.393  29.032  22.788  1.00  0.00    -0.394 OA
ATOM     41  H   UNL     1      28.361  29.094  22.521  1.00  0.00     0.210 HD
ENDBRANCH  39  40
ENDBRANCH  38  39
ENDBRANCH  36  38
ENDBRANCH  32  33
ENDBRANCH  31  32
ENDBRANCH   2  31
TORSDOF 17
BEGIN_RES LYS A 131
REMARK  4 active torsions:
REMARK  status: ('A' for Active; 'I' for Inactive)
REMARK    1  A    between atoms: CA   and  CB  
REMARK    2  A    between atoms: CB   and  CG  
REMARK    3  A    between atoms: CG   and  CD  
REMARK    4  A    between atoms: CD   and  CE  
ROOT
ATOM      1  CA  LYS A 131      29.867  25.555  16.977  1.00 20.52     0.186 C 
ENDROOT
BRANCH   1   2
ATOM      2  CB  LYS A 131      28.345  25.722  17.026  1.00 20.94     0.034 C 
BRANCH   2   3
ATOM      3  CG  LYS A 131      27.603  24.395  16.972  1.00 22.96     0.005 C 
BRANCH   3   4
ATOM      4  CD  LYS A 131      26.218  24.497  17.547  1.00 24.33     0.041 C 
BRANCH   4   5
ATOM      5  CE  LYS A 131      26.010  23.388  18.574  1.00 26.91     0.338 C 
ATOM      6  NZ  LYS A 131      25.367  23.925  19.796  1.00 27.40     0.618 N 
ENDBRANCH   4   5
ENDBRANCH   3   4
ENDBRANCH   2   3
ENDBRANCH   1   2
END_RES LYS A 131
BEGIN_RES LYS A 135
REMARK  4 active torsions:
REMARK  status: ('A' for Active; 'I' for Inactive)
REMARK    5  A    between atoms: CA   and  CB  
REMARK    6  A    between atoms: CB   and  CG  
REMARK    7  A    between atoms: CG   and  CD  
REMARK    8  A    between atoms: CD   and  CE  
ROOT
ATOM      7  CA  LYS A 135      33.193  34.663   9.290  1.00 25.02     0.186 C 
ENDROOT
BRANCH   7   8
ATOM      8  CB  LYS A 135      32.060  35.360  10.034  1.00 26.63     0.034 C 
BRANCH   8   9
ATOM      9  CG  LYS A 135      30.770  34.580  10.035  1.00 29.45     0.005 C 
BRANCH   9  10
ATOM     10  CD  LYS A 135      29.693  35.325   9.262  1.00 32.00     0.041 C 
BRANCH  10  11
ATOM     11  CE  LYS A 135      29.686  34.894   7.808  1.00 34.25     0.338 C 
ATOM     12  NZ  LYS A 135      28.433  35.321   7.127  1.00 35.99     0.618 N 
ENDBRANCH  10  11
ENDBRANCH   9  10
ENDBRANCH   8   9
ENDBRANCH   7   8
END_RES LYS A 135
