REMARK VINA RESULT:    -4.841      4.111      8.378
REMARK INTER + INTRA:         -14.538
REMARK INTER:                  -8.504
REMARK INTRA:                  -6.034
REMARK UNBOUND:                -5.735
REMARK SMILES CC(=O)N[C@@H]1[C@@H](O)C[C@](O)(C(=O)O)O[C@H]1C(O)[C@H](O)CNC(=O)OCc1cn(-c2ccc(CO)cn2)nn1
REMARK SMILES IDX 21 1 22 2 23 3 20 5 18 6 16 7 15 8 9 9 8 10 14 11 6 12 5 13
REMARK SMILES IDX 10 14 11 16 12 17 13 18 7 20 4 22 2 23 1 25 3 26 17 27 19 29
REMARK SMILES IDX 24 31 25 32 26 33 27 34 38 35 28 36 37 37 29 38 30 39 36 40
REMARK SMILES IDX 31 41 35 42 32 43 33 44 34 45
REMARK H PARENT 21 4 10 15 13 19 7 21 4 24 17 28 19 30 34 46
REMARK Flexibility Score: inf
ROOT
ATOM      1  N   UNL     1      28.777  37.398  14.174  1.00  0.00    -0.319 N 
ATOM      2  C   UNL     1      28.602  38.751  13.731  1.00  0.00     0.407 C 
ATOM      3  O   UNL     1      28.159  39.559  14.578  1.00  0.00    -0.225 OA
ATOM      4  H   UNL     1      29.161  36.762  13.442  1.00  0.00     0.167 HD
ENDROOT
BRANCH   1   5
ATOM      5  C   UNL     1      28.465  37.011  15.523  1.00  0.00     0.154 C 
BRANCH   5   6
ATOM      6  C   UNL     1      27.585  35.772  15.506  1.00  0.00     0.165 C 
BRANCH   6   7
ATOM      7  C   UNL     1      28.504  34.613  15.244  1.00  0.00     0.176 C 
BRANCH   7   8
ATOM      8  C   UNL     1      29.965  34.824  15.515  1.00  0.00     0.178 C 
ATOM      9  C   UNL     1      31.854  35.042  14.118  1.00  0.00     0.269 C 
ATOM     10  C   UNL     1      32.712  34.195  15.025  1.00  0.00     0.112 C 
ATOM     11  O   UNL     1      30.533  34.797  14.268  1.00  0.00    -0.332 OA
ATOM     12  C   UNL     1      31.765  33.161  15.603  1.00  0.00     0.145 C 
ATOM     13  C   UNL     1      30.651  33.880  16.406  1.00  0.00     0.142 C 
BRANCH   9  14
ATOM     14  O   UNL     1      32.245  34.678  12.791  1.00  0.00    -0.357 OA
ATOM     15  H   UNL     1      32.060  33.715  12.652  1.00  0.00     0.214 HD
ENDBRANCH   9  14
BRANCH   9  16
ATOM     16  C   UNL     1      32.126  36.490  14.226  1.00  0.00     0.364 C 
ATOM     17  O   UNL     1      31.805  37.247  13.289  1.00  0.00    -0.246 OA
BRANCH  16  18
ATOM     18  O   UNL     1      32.728  37.022  15.349  1.00  0.00    -0.477 OA
ATOM     19  H   UNL     1      32.147  37.445  16.063  1.00  0.00     0.296 HD
ENDBRANCH  16  18
ENDBRANCH   9  16
BRANCH  12  20
ATOM     20  O   UNL     1      31.244  32.323  14.650  1.00  0.00    -0.391 OA
ATOM     21  H   UNL     1      30.787  31.554  15.097  1.00  0.00     0.211 HD
ENDBRANCH  12  20
BRANCH  13  22
ATOM     22  N   UNL     1      31.336  34.445  17.523  1.00  0.00    -0.348 N 
ATOM     23  C   UNL     1      31.398  33.804  18.771  1.00  0.00     0.217 C 
ATOM     24  H   UNL     1      31.799  35.364  17.411  1.00  0.00     0.163 HD
ATOM     25  C   UNL     1      32.110  34.391  19.931  1.00  0.00     0.114 C 
ATOM     26  O   UNL     1      30.837  32.699  18.915  1.00  0.00    -0.275 OA
ENDBRANCH  13  22
ENDBRANCH   7   8
BRANCH   7  27
ATOM     27  O   UNL     1      28.415  34.303  13.875  1.00  0.00    -0.388 OA
ATOM     28  H   UNL     1      28.080  35.076  13.346  1.00  0.00     0.211 HD
ENDBRANCH   7  27
ENDBRANCH   6   7
BRANCH   6  29
ATOM     29  O   UNL     1      26.760  35.984  14.368  1.00  0.00    -0.388 OA
ATOM     30  H   UNL     1      25.931  35.493  14.493  1.00  0.00     0.211 HD
ENDBRANCH   6  29
ENDBRANCH   5   6
ENDBRANCH   1   5
BRANCH   2  31
ATOM     31  O   UNL     1      28.894  39.169  12.462  1.00  0.00    -0.443 OA
BRANCH  31  32
ATOM     32  C   UNL     1      29.087  38.317  11.374  1.00  0.00     0.294 C 
BRANCH  32  33
ATOM     33  C   UNL     1      28.072  37.239  11.272  1.00  0.00     0.121 A 
ATOM     34  C   UNL     1      26.798  37.414  10.724  1.00  0.00     0.146 A 
ATOM     35  N   UNL     1      28.105  35.964  11.638  1.00  0.00    -0.131 NA
ATOM     36  N   UNL     1      26.138  36.258  10.787  1.00  0.00    -0.202 N 
ATOM     37  N   UNL     1      26.940  35.383  11.345  1.00  0.00    -0.061 NA
BRANCH  36  38
ATOM     38  C   UNL     1      24.796  36.025  10.335  1.00  0.00     0.155 A 
ATOM     39  C   UNL     1      24.420  36.131   9.012  1.00  0.00     0.049 A 
ATOM     40  N   UNL     1      23.841  35.699  11.221  1.00  0.00    -0.237 NA
ATOM     41  C   UNL     1      23.139  35.922   8.576  1.00  0.00     0.011 A 
ATOM     42  C   UNL     1      22.572  35.484  10.841  1.00  0.00     0.119 A 
ATOM     43  C   UNL     1      22.179  35.588   9.511  1.00  0.00    -0.004 A 
BRANCH  43  44
ATOM     44  C   UNL     1      20.755  35.337   9.144  1.00  0.00     0.193 C 
BRANCH  44  45
ATOM     45  O   UNL     1      20.707  34.818   7.857  1.00  0.00    -0.392 OA
ATOM     46  H   UNL     1      21.622  34.772   7.477  1.00  0.00     0.211 HD
ENDBRANCH  44  45
ENDBRANCH  43  44
ENDBRANCH  36  38
ENDBRANCH  32  33
ENDBRANCH  31  32
ENDBRANCH   2  31
TORSDOF 17
BEGIN_RES LYS A 131
REMARK  4 active torsions:
REMARK  status: ('A' for Active; 'I' for Inactive)
REMARK    1  A    between atoms: CA   and  CB  
REMARK    2  A    between atoms: CB   and  CG  
REMARK    3  A    between atoms: CG   and  CD  
REMARK    4  A    between atoms: CD   and  CE  
ROOT
ATOM      1  CA  LYS A 131      29.867  25.555  16.977  1.00 20.52     0.186 C 
ENDROOT
BRANCH   1   2
ATOM      2  CB  LYS A 131      28.345  25.722  17.026  1.00 20.94     0.034 C 
BRANCH   2   3
ATOM      3  CG  LYS A 131      27.601  24.402  16.892  1.00 22.96     0.005 C 
BRANCH   3   4
ATOM      4  CD  LYS A 131      26.161  24.519  17.309  1.00 24.33     0.041 C 
BRANCH   4   5
ATOM      5  CE  LYS A 131      25.811  23.373  18.253  1.00 26.91     0.338 C 
ATOM      6  NZ  LYS A 131      24.909  22.406  17.583  1.00 27.40     0.618 N 
ENDBRANCH   4   5
ENDBRANCH   3   4
ENDBRANCH   2   3
ENDBRANCH   1   2
END_RES LYS A 131
BEGIN_RES LYS A 135
REMARK  4 active torsions:
REMARK  status: ('A' for Active; 'I' for Inactive)
REMARK    5  A    between atoms: CA   and  CB  
REMARK    6  A    between atoms: CB   and  CG  
REMARK    7  A    between atoms: CG   and  CD  
REMARK    8  A    between atoms: CD   and  CE  
ROOT
ATOM      7  CA  LYS A 135      33.193  34.663   9.290  1.00 25.02     0.186 C 
ENDROOT
BRANCH   7   8
ATOM      8  CB  LYS A 135      32.060  35.360  10.034  1.00 26.63     0.034 C 
BRANCH   8   9
ATOM      9  CG  LYS A 135      30.886  35.706   9.155  1.00 29.45     0.005 C 
BRANCH   9  10
ATOM     10  CD  LYS A 135      30.417  34.485   8.380  1.00 32.00     0.041 C 
BRANCH  10  11
ATOM     11  CE  LYS A 135      28.959  34.192   8.678  1.00 34.25     0.338 C 
ATOM     12  NZ  LYS A 135      28.063  35.127   7.943  1.00 35.99     0.618 N 
ENDBRANCH  10  11
ENDBRANCH   9  10
ENDBRANCH   8   9
ENDBRANCH   7   8
END_RES LYS A 135
