REMARK VINA RESULT:    -4.177      4.096      8.044
REMARK INTER + INTRA:         -13.016
REMARK INTER:                  -7.230
REMARK INTRA:                  -5.786
REMARK UNBOUND:                -5.786
REMARK SMILES CC(=O)N[C@@H]1[C@@H](O)C[C@](O)(C(=O)O)O[C@H]1C(O)[C@H](O)CNC(=O)OCc1cn(C2CCN(C)CC2)nn1
REMARK SMILES IDX 20 1 18 2 16 3 15 4 9 5 8 6 14 7 6 8 5 9 10 10 11 12 12 13
REMARK SMILES IDX 13 14 7 16 4 18 2 19 1 21 3 22 17 23 19 25 21 27 22 28 23 30
REMARK SMILES IDX 24 31 25 32 26 33 27 34 37 35 28 36 36 37 29 38 30 39 35 40
REMARK SMILES IDX 31 41 34 42 32 43 33 44
REMARK H PARENT 10 11 13 15 7 17 4 20 17 24 19 26 21 29
REMARK Flexibility Score: inf
ROOT
ATOM      1  C   UNL     1      28.403  36.443  17.604  1.00  0.00     0.154 C 
ENDROOT
BRANCH   1   2
ATOM      2  C   UNL     1      28.858  35.585  18.737  1.00  0.00     0.165 C 
BRANCH   2   3
ATOM      3  C   UNL     1      30.195  34.926  18.469  1.00  0.00     0.176 C 
BRANCH   3   4
ATOM      4  C   UNL     1      29.981  33.637  17.704  1.00  0.00     0.178 C 
ATOM      5  C   UNL     1      29.817  31.317  17.921  1.00  0.00     0.269 C 
ATOM      6  C   UNL     1      30.710  31.118  16.735  1.00  0.00     0.112 C 
ATOM      7  O   UNL     1      29.866  32.547  18.508  1.00  0.00    -0.332 OA
ATOM      8  C   UNL     1      30.670  32.303  15.808  1.00  0.00     0.145 C 
ATOM      9  C   UNL     1      31.031  33.529  16.643  1.00  0.00     0.142 C 
BRANCH   5  10
ATOM     10  O   UNL     1      30.123  30.294  18.861  1.00  0.00    -0.357 OA
ATOM     11  H   UNL     1      29.360  30.128  19.466  1.00  0.00     0.214 HD
ENDBRANCH   5  10
BRANCH   5  12
ATOM     12  C   UNL     1      28.414  31.090  17.487  1.00  0.00     0.364 C 
ATOM     13  O   UNL     1      28.128  30.079  16.798  1.00  0.00    -0.246 OA
BRANCH  12  14
ATOM     14  O   UNL     1      27.355  31.932  17.792  1.00  0.00    -0.477 OA
ATOM     15  H   UNL     1      26.822  32.425  17.076  1.00  0.00     0.296 HD
ENDBRANCH  12  14
ENDBRANCH   5  12
BRANCH   8  16
ATOM     16  O   UNL     1      31.586  32.170  14.761  1.00  0.00    -0.391 OA
ATOM     17  H   UNL     1      31.403  32.789  14.020  1.00  0.00     0.211 HD
ENDBRANCH   8  16
BRANCH   9  18
ATOM     18  N   UNL     1      30.917  34.658  15.711  1.00  0.00    -0.348 N 
ATOM     19  C   UNL     1      32.023  35.457  15.360  1.00  0.00     0.217 C 
ATOM     20  H   UNL     1      29.982  34.840  15.322  1.00  0.00     0.163 HD
ATOM     21  C   UNL     1      31.888  36.611  14.403  1.00  0.00     0.114 C 
ATOM     22  O   UNL     1      33.142  35.186  15.868  1.00  0.00    -0.275 OA
ENDBRANCH   9  18
ENDBRANCH   3   4
BRANCH   3  23
ATOM     23  O   UNL     1      30.841  34.732  19.667  1.00  0.00    -0.388 OA
ATOM     24  H   UNL     1      31.821  34.831  19.559  1.00  0.00     0.211 HD
ENDBRANCH   3  23
ENDBRANCH   2   3
BRANCH   2  25
ATOM     25  O   UNL     1      27.905  34.554  18.916  1.00  0.00    -0.388 OA
ATOM     26  H   UNL     1      26.995  34.871  18.674  1.00  0.00     0.211 HD
ENDBRANCH   2  25
ENDBRANCH   1   2
BRANCH   1  27
ATOM     27  N   UNL     1      27.275  35.804  16.962  1.00  0.00    -0.319 N 
ATOM     28  C   UNL     1      27.265  35.357  15.613  1.00  0.00     0.407 C 
ATOM     29  H   UNL     1      26.362  35.628  17.482  1.00  0.00     0.167 HD
ATOM     30  O   UNL     1      28.279  35.510  14.917  1.00  0.00    -0.225 OA
BRANCH  28  31
ATOM     31  O   UNL     1      26.155  34.749  15.040  1.00  0.00    -0.443 OA
BRANCH  31  32
ATOM     32  C   UNL     1      25.292  33.946  15.820  1.00  0.00     0.294 C 
BRANCH  32  33
ATOM     33  C   UNL     1      24.971  32.679  15.114  1.00  0.00     0.120 A 
ATOM     34  C   UNL     1      24.104  32.481  14.078  1.00  0.00     0.138 A 
ATOM     35  N   UNL     1      25.497  31.470  15.385  1.00  0.00    -0.132 NA
ATOM     36  N   UNL     1      24.113  31.181  13.741  1.00  0.00    -0.249 N 
ATOM     37  N   UNL     1      24.983  30.591  14.565  1.00  0.00    -0.067 NA
BRANCH  36  38
ATOM     38  C   UNL     1      23.333  30.567  12.690  1.00  0.00     0.111 C 
ATOM     39  C   UNL     1      21.966  31.203  12.572  1.00  0.00     0.043 C 
ATOM     40  C   UNL     1      23.261  29.078  12.858  1.00  0.00     0.043 C 
ATOM     41  C   UNL     1      20.971  30.623  13.550  1.00  0.00     0.086 C 
ATOM     42  C   UNL     1      22.264  28.626  13.879  1.00  0.00     0.086 C 
ATOM     43  N   UNL     1      20.984  29.190  13.574  1.00  0.00    -0.306 NA
ATOM     44  C   UNL     1      20.463  28.598  12.376  1.00  0.00     0.105 C 
ENDBRANCH  36  38
ENDBRANCH  32  33
ENDBRANCH  31  32
ENDBRANCH  28  31
ENDBRANCH   1  27
TORSDOF 15
BEGIN_RES LYS A 131
REMARK  4 active torsions:
REMARK  status: ('A' for Active; 'I' for Inactive)
REMARK    1  A    between atoms: CA   and  CB  
REMARK    2  A    between atoms: CB   and  CG  
REMARK    3  A    between atoms: CG   and  CD  
REMARK    4  A    between atoms: CD   and  CE  
ROOT
ATOM      1  CA  LYS A 131      29.867  25.555  16.977  1.00 20.52     0.186 C 
ENDROOT
BRANCH   1   2
ATOM      2  CB  LYS A 131      28.345  25.722  17.026  1.00 20.94     0.034 C 
BRANCH   2   3
ATOM      3  CG  LYS A 131      27.601  24.404  16.878  1.00 22.96     0.005 C 
BRANCH   3   4
ATOM      4  CD  LYS A 131      26.631  24.171  18.003  1.00 24.33     0.041 C 
BRANCH   4   5
ATOM      5  CE  LYS A 131      25.341  24.938  17.729  1.00 26.91     0.338 C 
ATOM      6  NZ  LYS A 131      24.463  24.169  16.816  1.00 27.40     0.618 N 
ENDBRANCH   4   5
ENDBRANCH   3   4
ENDBRANCH   2   3
ENDBRANCH   1   2
END_RES LYS A 131
BEGIN_RES LYS A 135
REMARK  4 active torsions:
REMARK  status: ('A' for Active; 'I' for Inactive)
REMARK    5  A    between atoms: CA   and  CB  
REMARK    6  A    between atoms: CB   and  CG  
REMARK    7  A    between atoms: CG   and  CD  
REMARK    8  A    between atoms: CD   and  CE  
ROOT
ATOM      7  CA  LYS A 135      33.193  34.663   9.290  1.00 25.02     0.186 C 
ENDROOT
BRANCH   7   8
ATOM      8  CB  LYS A 135      32.060  35.360  10.034  1.00 26.63     0.034 C 
BRANCH   8   9
ATOM      9  CG  LYS A 135      30.721  34.693   9.853  1.00 29.45     0.005 C 
BRANCH   9  10
ATOM     10  CD  LYS A 135      30.304  34.713   8.391  1.00 32.00     0.041 C 
BRANCH  10  11
ATOM     11  CE  LYS A 135      28.807  34.511   8.260  1.00 34.25     0.338 C 
ATOM     12  NZ  LYS A 135      28.240  33.890   9.489  1.00 35.99     0.618 N 
ENDBRANCH  10  11
ENDBRANCH   9  10
ENDBRANCH   8   9
ENDBRANCH   7   8
END_RES LYS A 135
