REMARK VINA RESULT:    -5.395      1.874      2.843
REMARK INTER + INTRA:         -16.691
REMARK INTER:                 -10.027
REMARK INTRA:                  -6.664
REMARK UNBOUND:                -6.408
REMARK SMILES CC(=O)N[C@@H]1[C@@H](O)C[C@](O)(C(=O)O)O[C@H]1C(O)[C@H](O)CNC(=O)OCc1cn(-c2ccc(S(=O)(=O)Nc3nccs3)cc2)nn1
REMARK SMILES IDX 21 1 22 2 23 3 20 5 18 6 16 7 15 8 9 9 8 10 14 11 6 12 5 13
REMARK SMILES IDX 10 14 11 16 12 17 13 18 7 20 4 22 2 23 1 25 3 26 17 27 19 29
REMARK SMILES IDX 24 31 25 32 26 33 27 34 45 35 28 36 44 37 29 38 30 39 43 40
REMARK SMILES IDX 31 41 42 42 32 43 33 44 34 45 35 46 36 47 37 49 38 50 41 51
REMARK SMILES IDX 39 52 40 53
REMARK H PARENT 21 4 10 15 13 19 7 21 4 24 17 28 19 30 36 48
REMARK Flexibility Score: inf
ROOT
ATOM      1  N   UNL     1      29.752  27.000  20.346  1.00  0.00    -0.319 N 
ATOM      2  C   UNL     1      28.407  27.429  20.378  1.00  0.00     0.407 C 
ATOM      3  O   UNL     1      27.875  27.686  21.512  1.00  0.00    -0.225 OA
ATOM      4  H   UNL     1      30.189  26.792  19.432  1.00  0.00     0.167 HD
ENDROOT
BRANCH   1   5
ATOM      5  C   UNL     1      30.528  26.847  21.547  1.00  0.00     0.154 C 
BRANCH   5   6
ATOM      6  C   UNL     1      31.811  27.641  21.518  1.00  0.00     0.165 C 
BRANCH   6   7
ATOM      7  C   UNL     1      31.674  28.965  22.212  1.00  0.00     0.176 C 
BRANCH   7   8
ATOM      8  C   UNL     1      32.357  30.079  21.398  1.00  0.00     0.178 C 
ATOM      9  C   UNL     1      34.281  30.577  22.670  1.00  0.00     0.269 C 
ATOM     10  C   UNL     1      33.828  32.022  22.757  1.00  0.00     0.112 C 
ATOM     11  O   UNL     1      33.695  29.966  21.617  1.00  0.00    -0.332 OA
ATOM     12  C   UNL     1      32.334  31.971  22.963  1.00  0.00     0.145 C 
ATOM     13  C   UNL     1      31.716  31.370  21.725  1.00  0.00     0.142 C 
BRANCH   9  14
ATOM     14  O   UNL     1      33.847  29.974  23.858  1.00  0.00    -0.357 OA
ATOM     15  H   UNL     1      32.913  30.164  24.066  1.00  0.00     0.214 HD
ENDBRANCH   9  14
BRANCH   9  16
ATOM     16  C   UNL     1      35.763  30.485  22.649  1.00  0.00     0.364 C 
ATOM     17  O   UNL     1      36.433  31.465  22.296  1.00  0.00    -0.246 OA
BRANCH  16  18
ATOM     18  O   UNL     1      36.405  29.318  23.017  1.00  0.00    -0.477 OA
ATOM     19  H   UNL     1      37.090  29.326  23.788  1.00  0.00     0.296 HD
ENDBRANCH  16  18
ENDBRANCH   9  16
BRANCH  12  20
ATOM     20  O   UNL     1      32.038  31.261  24.121  1.00  0.00    -0.391 OA
ATOM     21  H   UNL     1      32.910  31.024  24.554  1.00  0.00     0.211 HD
ENDBRANCH  12  20
BRANCH  13  22
ATOM     22  N   UNL     1      31.753  32.363  20.699  1.00  0.00    -0.348 N 
ATOM     23  C   UNL     1      30.563  32.783  20.067  1.00  0.00     0.217 C 
ATOM     24  H   UNL     1      32.652  32.781  20.408  1.00  0.00     0.163 HD
ATOM     25  C   UNL     1      30.509  33.807  18.993  1.00  0.00     0.114 C 
ATOM     26  O   UNL     1      29.499  32.265  20.432  1.00  0.00    -0.275 OA
ENDBRANCH  13  22
ENDBRANCH   7   8
BRANCH   7  27
ATOM     27  O   UNL     1      30.322  29.316  22.435  1.00  0.00    -0.388 OA
ATOM     28  H   UNL     1      29.869  29.292  21.573  1.00  0.00     0.211 HD
ENDBRANCH   7  27
ENDBRANCH   6   7
BRANCH   6  29
ATOM     29  O   UNL     1      32.116  27.808  20.150  1.00  0.00    -0.388 OA
ATOM     30  H   UNL     1      31.915  26.942  19.717  1.00  0.00     0.211 HD
ENDBRANCH   6  29
ENDBRANCH   5   6
ENDBRANCH   1   5
BRANCH   2  31
ATOM     31  O   UNL     1      27.624  27.589  19.254  1.00  0.00    -0.443 OA
BRANCH  31  32
ATOM     32  C   UNL     1      26.923  28.812  18.986  1.00  0.00     0.294 C 
BRANCH  32  33
ATOM     33  C   UNL     1      27.546  29.388  17.758  1.00  0.00     0.121 A 
ATOM     34  C   UNL     1      28.313  30.552  17.676  1.00  0.00     0.144 A 
ATOM     35  N   UNL     1      27.508  28.923  16.492  1.00  0.00    -0.131 NA
ATOM     36  N   UNL     1      28.696  30.743  16.403  1.00  0.00    -0.220 N 
ATOM     37  N   UNL     1      28.189  29.736  15.722  1.00  0.00    -0.062 NA
BRANCH  36  38
ATOM     38  C   UNL     1      29.489  31.828  15.940  1.00  0.00     0.066 A 
ATOM     39  C   UNL     1      30.865  31.795  15.939  1.00  0.00     0.030 A 
ATOM     40  C   UNL     1      28.876  32.969  15.470  1.00  0.00     0.030 A 
ATOM     41  C   UNL     1      31.624  32.871  15.482  1.00  0.00     0.024 A 
ATOM     42  C   UNL     1      29.623  34.034  15.018  1.00  0.00     0.024 A 
ATOM     43  C   UNL     1      31.022  34.014  15.011  1.00  0.00     0.088 A 
BRANCH  43  44
ATOM     44  S   UNL     1      31.927  35.376  14.419  1.00  0.00     0.263 S 
ATOM     45  O   UNL     1      31.038  36.602  14.590  1.00  0.00    -0.201 OA
ATOM     46  O   UNL     1      32.116  35.196  12.952  1.00  0.00    -0.201 OA
BRANCH  44  47
ATOM     47  N   UNL     1      33.404  35.643  15.215  1.00  0.00    -0.255 N 
ATOM     48  H   UNL     1      34.288  35.555  14.644  1.00  0.00     0.182 HD
BRANCH  47  49
ATOM     49  C   UNL     1      33.593  35.971  16.567  1.00  0.00     0.196 A 
ATOM     50  N   UNL     1      33.375  35.563  17.697  1.00  0.00    -0.228 NA
ATOM     51  S   UNL     1      34.490  37.575  17.004  1.00  0.00    -0.105 S 
ATOM     52  C   UNL     1      33.687  36.106  18.829  1.00  0.00     0.125 A 
ATOM     53  C   UNL     1      34.345  37.287  18.836  1.00  0.00     0.089 A 
ENDBRANCH  47  49
ENDBRANCH  44  47
ENDBRANCH  43  44
ENDBRANCH  36  38
ENDBRANCH  32  33
ENDBRANCH  31  32
ENDBRANCH   2  31
TORSDOF 18
BEGIN_RES LYS A 131
REMARK  4 active torsions:
REMARK  status: ('A' for Active; 'I' for Inactive)
REMARK    1  A    between atoms: CA   and  CB  
REMARK    2  A    between atoms: CB   and  CG  
REMARK    3  A    between atoms: CG   and  CD  
REMARK    4  A    between atoms: CD   and  CE  
ROOT
ATOM      1  CA  LYS A 131      29.867  25.555  16.977  1.00 20.52     0.186 C 
ENDROOT
BRANCH   1   2
ATOM      2  CB  LYS A 131      28.345  25.722  17.026  1.00 20.94     0.034 C 
BRANCH   2   3
ATOM      3  CG  LYS A 131      27.602  24.399  16.926  1.00 22.96     0.005 C 
BRANCH   3   4
ATOM      4  CD  LYS A 131      26.151  24.534  17.296  1.00 24.33     0.041 C 
BRANCH   4   5
ATOM      5  CE  LYS A 131      26.012  24.541  18.815  1.00 26.91     0.338 C 
ATOM      6  NZ  LYS A 131      25.538  23.224  19.299  1.00 27.40     0.618 N 
ENDBRANCH   4   5
ENDBRANCH   3   4
ENDBRANCH   2   3
ENDBRANCH   1   2
END_RES LYS A 131
BEGIN_RES LYS A 135
REMARK  4 active torsions:
REMARK  status: ('A' for Active; 'I' for Inactive)
REMARK    5  A    between atoms: CA   and  CB  
REMARK    6  A    between atoms: CB   and  CG  
REMARK    7  A    between atoms: CG   and  CD  
REMARK    8  A    between atoms: CD   and  CE  
ROOT
ATOM      7  CA  LYS A 135      33.193  34.663   9.290  1.00 25.02     0.186 C 
ENDROOT
BRANCH   7   8
ATOM      8  CB  LYS A 135      32.060  35.360  10.034  1.00 26.63     0.034 C 
BRANCH   8   9
ATOM      9  CG  LYS A 135      30.880  35.694   9.158  1.00 29.45     0.005 C 
BRANCH   9  10
ATOM     10  CD  LYS A 135      30.389  34.456   8.424  1.00 32.00     0.041 C 
BRANCH  10  11
ATOM     11  CE  LYS A 135      28.875  34.453   8.337  1.00 34.25     0.338 C 
ATOM     12  NZ  LYS A 135      28.270  33.784   9.522  1.00 35.99     0.618 N 
ENDBRANCH  10  11
ENDBRANCH   9  10
ENDBRANCH   8   9
ENDBRANCH   7   8
END_RES LYS A 135
