REMARK VINA RESULT:    -4.397      4.463      8.433
REMARK INTER + INTRA:         -13.896
REMARK INTER:                  -7.328
REMARK INTRA:                  -6.568
REMARK UNBOUND:                -5.644
REMARK SMILES CC(=O)N[C@@H]1[C@@H](O)C[C@](O)(C(=O)O)O[C@H]1C(O)[C@H](O)CNC(=O)OCc1cn(CCC(=O)O)nn1
REMARK SMILES IDX 21 1 22 2 23 3 20 5 18 6 16 7 15 8 9 9 8 10 14 11 6 12 5 13
REMARK SMILES IDX 10 14 11 16 12 17 13 18 7 20 4 22 2 23 1 25 3 26 17 27 19 29
REMARK SMILES IDX 24 31 25 32 26 33 27 34 35 35 28 36 34 37 29 38 30 39 31 40
REMARK SMILES IDX 32 41 33 42
REMARK H PARENT 21 4 10 15 13 19 7 21 4 24 17 28 19 30 33 43
REMARK Flexibility Score: inf
ROOT
ATOM      1  N   UNL     1      31.447  34.090  17.980  1.00  0.00    -0.319 N 
ATOM      2  C   UNL     1      32.087  34.517  19.171  1.00  0.00     0.407 C 
ATOM      3  O   UNL     1      31.945  33.882  20.258  1.00  0.00    -0.225 OA
ATOM      4  H   UNL     1      31.589  34.637  17.109  1.00  0.00     0.167 HD
ENDROOT
BRANCH   1   5
ATOM      5  C   UNL     1      30.603  32.920  17.949  1.00  0.00     0.154 C 
BRANCH   5   6
ATOM      6  C   UNL     1      30.786  32.072  16.720  1.00  0.00     0.165 C 
BRANCH   6   7
ATOM      7  C   UNL     1      29.747  32.420  15.655  1.00  0.00     0.176 C 
BRANCH   7   8
ATOM      8  C   UNL     1      30.385  33.271  14.571  1.00  0.00     0.178 C 
ATOM      9  C   UNL     1      32.046  34.911  14.514  1.00  0.00     0.269 C 
ATOM     10  C   UNL     1      31.529  35.386  13.185  1.00  0.00     0.112 C 
ATOM     11  O   UNL     1      31.665  33.629  14.840  1.00  0.00    -0.332 OA
ATOM     12  C   UNL     1      30.143  34.958  12.859  1.00  0.00     0.145 C 
ATOM     13  C   UNL     1      29.510  34.425  14.154  1.00  0.00     0.142 C 
BRANCH   9  14
ATOM     14  O   UNL     1      31.687  35.842  15.483  1.00  0.00    -0.357 OA
ATOM     15  H   UNL     1      30.848  36.268  15.152  1.00  0.00     0.214 HD
ENDBRANCH   9  14
BRANCH   9  16
ATOM     16  C   UNL     1      33.524  34.910  14.417  1.00  0.00     0.364 C 
ATOM     17  O   UNL     1      34.151  34.520  13.409  1.00  0.00    -0.246 OA
BRANCH  16  18
ATOM     18  O   UNL     1      34.270  35.361  15.491  1.00  0.00    -0.477 OA
ATOM     19  H   UNL     1      34.818  36.212  15.474  1.00  0.00     0.296 HD
ENDBRANCH  16  18
ENDBRANCH   9  16
BRANCH  12  20
ATOM     20  O   UNL     1      29.364  35.979  12.321  1.00  0.00    -0.391 OA
ATOM     21  H   UNL     1      28.404  35.721  12.246  1.00  0.00     0.211 HD
ENDBRANCH  12  20
BRANCH  13  22
ATOM     22  N   UNL     1      28.145  34.004  13.912  1.00  0.00    -0.348 N 
ATOM     23  C   UNL     1      27.058  34.866  14.231  1.00  0.00     0.217 C 
ATOM     24  H   UNL     1      27.911  33.069  13.502  1.00  0.00     0.163 HD
ATOM     25  C   UNL     1      25.627  34.473  13.997  1.00  0.00     0.114 C 
ATOM     26  O   UNL     1      27.280  36.014  14.732  1.00  0.00    -0.275 OA
ENDBRANCH  13  22
ENDBRANCH   7   8
BRANCH   7  27
ATOM     27  O   UNL     1      29.294  31.230  15.091  1.00  0.00    -0.388 OA
ATOM     28  H   UNL     1      28.374  31.312  14.718  1.00  0.00     0.211 HD
ENDBRANCH   7  27
ENDBRANCH   6   7
BRANCH   6  29
ATOM     29  O   UNL     1      30.648  30.739  17.116  1.00  0.00    -0.388 OA
ATOM     30  H   UNL     1      29.685  30.511  17.130  1.00  0.00     0.211 HD
ENDBRANCH   6  29
ENDBRANCH   5   6
ENDBRANCH   1   5
BRANCH   2  31
ATOM     31  O   UNL     1      32.878  35.643  19.140  1.00  0.00    -0.443 OA
BRANCH  31  32
ATOM     32  C   UNL     1      34.173  35.703  19.711  1.00  0.00     0.294 C 
BRANCH  32  33
ATOM     33  C   UNL     1      35.165  36.192  18.695  1.00  0.00     0.120 A 
ATOM     34  C   UNL     1      36.471  35.802  18.560  1.00  0.00     0.138 A 
ATOM     35  N   UNL     1      34.912  37.116  17.747  1.00  0.00    -0.132 NA
ATOM     36  N   UNL     1      36.991  36.502  17.523  1.00  0.00    -0.252 N 
ATOM     37  N   UNL     1      36.028  37.284  17.055  1.00  0.00    -0.067 NA
BRANCH  36  38
ATOM     38  C   UNL     1      38.355  36.371  17.058  1.00  0.00     0.158 C 
BRANCH  38  39
ATOM     39  C   UNL     1      38.311  36.132  15.551  1.00  0.00     0.146 C 
BRANCH  39  40
ATOM     40  C   UNL     1      37.954  34.693  15.359  1.00  0.00     0.305 C 
ATOM     41  O   UNL     1      38.471  33.775  16.008  1.00  0.00    -0.252 OA
BRANCH  40  42
ATOM     42  O   UNL     1      36.988  34.417  14.392  1.00  0.00    -0.481 OA
ATOM     43  H   UNL     1      36.327  35.142  14.118  1.00  0.00     0.296 HD
ENDBRANCH  40  42
ENDBRANCH  39  40
ENDBRANCH  38  39
ENDBRANCH  36  38
ENDBRANCH  32  33
ENDBRANCH  31  32
ENDBRANCH   2  31
TORSDOF 18
BEGIN_RES LYS A 131
REMARK  4 active torsions:
REMARK  status: ('A' for Active; 'I' for Inactive)
REMARK    1  A    between atoms: CA   and  CB  
REMARK    2  A    between atoms: CB   and  CG  
REMARK    3  A    between atoms: CG   and  CD  
REMARK    4  A    between atoms: CD   and  CE  
ROOT
ATOM      1  CA  LYS A 131      29.867  25.555  16.977  1.00 20.52     0.186 C 
ENDROOT
BRANCH   1   2
ATOM      2  CB  LYS A 131      28.345  25.722  17.026  1.00 20.94     0.034 C 
BRANCH   2   3
ATOM      3  CG  LYS A 131      27.599  24.421  16.772  1.00 22.96     0.005 C 
BRANCH   3   4
ATOM      4  CD  LYS A 131      26.921  23.906  18.011  1.00 24.33     0.041 C 
BRANCH   4   5
ATOM      5  CE  LYS A 131      25.548  24.556  18.147  1.00 26.91     0.338 C 
ATOM      6  NZ  LYS A 131      24.767  24.386  16.899  1.00 27.40     0.618 N 
ENDBRANCH   4   5
ENDBRANCH   3   4
ENDBRANCH   2   3
ENDBRANCH   1   2
END_RES LYS A 131
BEGIN_RES LYS A 135
REMARK  4 active torsions:
REMARK  status: ('A' for Active; 'I' for Inactive)
REMARK    5  A    between atoms: CA   and  CB  
REMARK    6  A    between atoms: CB   and  CG  
REMARK    7  A    between atoms: CG   and  CD  
REMARK    8  A    between atoms: CD   and  CE  
ROOT
ATOM      7  CA  LYS A 135      33.193  34.663   9.290  1.00 25.02     0.186 C 
ENDROOT
BRANCH   7   8
ATOM      8  CB  LYS A 135      32.060  35.360  10.034  1.00 26.63     0.034 C 
BRANCH   8   9
ATOM      9  CG  LYS A 135      30.805  35.512   9.214  1.00 29.45     0.005 C 
BRANCH   9  10
ATOM     10  CD  LYS A 135      30.115  34.168   9.035  1.00 32.00     0.041 C 
BRANCH  10  11
ATOM     11  CE  LYS A 135      28.645  34.363   8.714  1.00 34.25     0.338 C 
ATOM     12  NZ  LYS A 135      27.782  33.707   9.736  1.00 35.99     0.618 N 
ENDBRANCH  10  11
ENDBRANCH   9  10
ENDBRANCH   8   9
ENDBRANCH   7   8
END_RES LYS A 135
