REMARK VINA RESULT:    -5.115      2.498      4.061
REMARK INTER + INTRA:         -15.155
REMARK INTER:                  -8.188
REMARK INTRA:                  -6.966
REMARK UNBOUND:                -6.003
REMARK SMILES CC(=O)N[C@@H]1[C@@H](O)C[C@](O)(C(=O)O)O[C@H]1C(O)[C@H](O)CNC(=O)OCc1cn(Cc2ccc3c(c2)OCO3)nn1
REMARK SMILES IDX 21 1 22 2 23 3 20 5 18 6 16 7 15 8 9 9 8 10 14 11 6 12 5 13
REMARK SMILES IDX 10 14 11 16 12 17 13 18 7 20 4 22 2 23 1 25 3 26 17 27 19 29
REMARK SMILES IDX 24 31 25 32 26 33 27 34 40 35 28 36 39 37 29 38 30 39 31 40
REMARK SMILES IDX 35 41 32 42 34 43 33 44 36 45 38 46 37 47
REMARK H PARENT 21 4 10 15 13 19 7 21 4 24 17 28 19 30
REMARK Flexibility Score: inf
ROOT
ATOM      1  N   UNL     1      27.312  36.211  12.976  1.00  0.00    -0.319 N 
ATOM      2  C   UNL     1      27.222  37.570  13.387  1.00  0.00     0.407 C 
ATOM      3  O   UNL     1      26.171  37.978  13.979  1.00  0.00    -0.225 OA
ATOM      4  H   UNL     1      28.174  35.909  12.499  1.00  0.00     0.167 HD
ENDROOT
BRANCH   1   5
ATOM      5  C   UNL     1      26.186  35.357  13.259  1.00  0.00     0.154 C 
BRANCH   5   6
ATOM      6  C   UNL     1      25.709  34.581  12.072  1.00  0.00     0.165 C 
BRANCH   6   7
ATOM      7  C   UNL     1      24.616  35.294  11.309  1.00  0.00     0.176 C 
BRANCH   7   8
ATOM      8  C   UNL     1      25.122  35.747   9.942  1.00  0.00     0.178 C 
ATOM      9  C   UNL     1      26.503  37.603   9.755  1.00  0.00     0.269 C 
ATOM     10  C   UNL     1      25.895  38.049   8.445  1.00  0.00     0.112 C 
ATOM     11  O   UNL     1      26.382  36.266  10.000  1.00  0.00    -0.332 OA
ATOM     12  C   UNL     1      24.782  37.128   7.990  1.00  0.00     0.145 C 
ATOM     13  C   UNL     1      24.108  36.609   9.239  1.00  0.00     0.142 C 
BRANCH   9  14
ATOM     14  O   UNL     1      25.989  38.365  10.822  1.00  0.00    -0.357 OA
ATOM     15  H   UNL     1      25.852  37.835  11.628  1.00  0.00     0.214 HD
ENDBRANCH   9  14
BRANCH   9  16
ATOM     16  C   UNL     1      27.954  37.926   9.684  1.00  0.00     0.364 C 
ATOM     17  O   UNL     1      28.388  38.735   8.809  1.00  0.00    -0.246 OA
BRANCH  16  18
ATOM     18  O   UNL     1      28.900  37.385  10.538  1.00  0.00    -0.477 OA
ATOM     19  H   UNL     1      29.879  37.648  10.390  1.00  0.00     0.296 HD
ENDBRANCH  16  18
ENDBRANCH   9  16
BRANCH  12  20
ATOM     20  O   UNL     1      23.897  37.778   7.135  1.00  0.00    -0.391 OA
ATOM     21  H   UNL     1      24.288  37.751   6.228  1.00  0.00     0.211 HD
ENDBRANCH  12  20
BRANCH  13  22
ATOM     22  N   UNL     1      22.918  35.876   8.991  1.00  0.00    -0.348 N 
ATOM     23  C   UNL     1      21.630  36.468   9.057  1.00  0.00     0.217 C 
ATOM     24  H   UNL     1      23.023  34.847   8.748  1.00  0.00     0.163 HD
ATOM     25  C   UNL     1      20.394  35.666   8.788  1.00  0.00     0.114 C 
ATOM     26  O   UNL     1      21.586  37.690   9.350  1.00  0.00    -0.275 OA
ENDBRANCH  13  22
ENDBRANCH   7   8
BRANCH   7  27
ATOM     27  O   UNL     1      24.285  36.446  12.021  1.00  0.00    -0.388 OA
ATOM     28  H   UNL     1      23.336  36.407  12.296  1.00  0.00     0.211 HD
ENDBRANCH   7  27
ENDBRANCH   6   7
BRANCH   6  29
ATOM     29  O   UNL     1      25.239  33.352  12.532  1.00  0.00    -0.388 OA
ATOM     30  H   UNL     1      24.978  32.751  11.792  1.00  0.00     0.211 HD
ENDBRANCH   6  29
ENDBRANCH   5   6
ENDBRANCH   1   5
BRANCH   2  31
ATOM     31  O   UNL     1      28.243  38.489  13.170  1.00  0.00    -0.443 OA
BRANCH  31  32
ATOM     32  C   UNL     1      29.206  38.687  14.200  1.00  0.00     0.294 C 
BRANCH  32  33
ATOM     33  C   UNL     1      30.338  37.746  14.038  1.00  0.00     0.120 A 
ATOM     34  C   UNL     1      31.039  37.186  15.067  1.00  0.00     0.138 A 
ATOM     35  N   UNL     1      30.880  37.278  12.914  1.00  0.00    -0.132 NA
ATOM     36  N   UNL     1      31.984  36.397  14.538  1.00  0.00    -0.248 N 
ATOM     37  N   UNL     1      31.876  36.462  13.233  1.00  0.00    -0.067 NA
BRANCH  36  38
ATOM     38  C   UNL     1      32.942  35.620  15.294  1.00  0.00     0.181 C 
BRANCH  38  39
ATOM     39  C   UNL     1      32.207  34.455  15.862  1.00  0.00    -0.023 A 
ATOM     40  C   UNL     1      31.895  33.402  15.033  1.00  0.00     0.010 A 
ATOM     41  C   UNL     1      31.833  34.400  17.181  1.00  0.00     0.056 A 
ATOM     42  C   UNL     1      31.209  32.304  15.541  1.00  0.00     0.051 A 
ATOM     43  C   UNL     1      31.152  33.309  17.682  1.00  0.00     0.166 A 
ATOM     44  C   UNL     1      30.835  32.255  16.869  1.00  0.00     0.165 A 
ATOM     45  O   UNL     1      30.684  33.045  18.956  1.00  0.00    -0.454 OA
ATOM     46  O   UNL     1      30.162  31.299  17.601  1.00  0.00    -0.454 OA
ATOM     47  C   UNL     1      30.263  31.699  18.961  1.00  0.00     0.468 C 
ENDBRANCH  38  39
ENDBRANCH  36  38
ENDBRANCH  32  33
ENDBRANCH  31  32
ENDBRANCH   2  31
TORSDOF 16
BEGIN_RES LYS A 131
REMARK  4 active torsions:
REMARK  status: ('A' for Active; 'I' for Inactive)
REMARK    1  A    between atoms: CA   and  CB  
REMARK    2  A    between atoms: CB   and  CG  
REMARK    3  A    between atoms: CG   and  CD  
REMARK    4  A    between atoms: CD   and  CE  
ROOT
ATOM      1  CA  LYS A 131      29.867  25.555  16.977  1.00 20.52     0.186 C 
ENDROOT
BRANCH   1   2
ATOM      2  CB  LYS A 131      28.345  25.722  17.026  1.00 20.94     0.034 C 
BRANCH   2   3
ATOM      3  CG  LYS A 131      27.599  24.448  16.660  1.00 22.96     0.005 C 
BRANCH   3   4
ATOM      4  CD  LYS A 131      27.013  23.768  17.866  1.00 24.33     0.041 C 
BRANCH   4   5
ATOM      5  CE  LYS A 131      25.555  23.414  17.592  1.00 26.91     0.338 C 
ATOM      6  NZ  LYS A 131      24.777  24.632  17.262  1.00 27.40     0.618 N 
ENDBRANCH   4   5
ENDBRANCH   3   4
ENDBRANCH   2   3
ENDBRANCH   1   2
END_RES LYS A 131
BEGIN_RES LYS A 135
REMARK  4 active torsions:
REMARK  status: ('A' for Active; 'I' for Inactive)
REMARK    5  A    between atoms: CA   and  CB  
REMARK    6  A    between atoms: CB   and  CG  
REMARK    7  A    between atoms: CG   and  CD  
REMARK    8  A    between atoms: CD   and  CE  
ROOT
ATOM      7  CA  LYS A 135      33.193  34.663   9.290  1.00 25.02     0.186 C 
ENDROOT
BRANCH   7   8
ATOM      8  CB  LYS A 135      32.060  35.360  10.034  1.00 26.63     0.034 C 
BRANCH   8   9
ATOM      9  CG  LYS A 135      30.737  34.647   9.921  1.00 29.45     0.005 C 
BRANCH   9  10
ATOM     10  CD  LYS A 135      30.317  34.523   8.465  1.00 32.00     0.041 C 
BRANCH  10  11
ATOM     11  CE  LYS A 135      28.806  34.460   8.350  1.00 34.25     0.338 C 
ATOM     12  NZ  LYS A 135      28.213  33.695   9.482  1.00 35.99     0.618 N 
ENDBRANCH  10  11
ENDBRANCH   9  10
ENDBRANCH   8   9
ENDBRANCH   7   8
END_RES LYS A 135
