REMARK VINA RESULT:    -4.263      4.774     11.213
REMARK INTER + INTRA:         -14.812
REMARK INTER:                 -10.316
REMARK INTRA:                  -4.496
REMARK UNBOUND:                -5.938
REMARK SMILES CCOC(CCn1cc(COC(=O)NC[C@@H](O)C(O)[C@@H]2O[C@@](O)(C(=O)O)C[C@H](O)[C@H]2NC(C)=O)nn1)OCC
REMARK SMILES IDX 11 1 12 2 14 3 13 5 15 6 16 7 18 8 20 9 22 10 27 11 21 12
REMARK SMILES IDX 28 13 30 14 23 15 24 17 25 18 26 19 29 21 31 23 32 24 33 26
REMARK SMILES IDX 34 27 19 28 17 30 10 32 9 33 8 34 35 35 7 36 36 37 6 38 5 39
REMARK SMILES IDX 4 40 3 41 2 42 1 43 37 44 38 45 39 46
REMARK H PARENT 14 4 23 16 26 20 29 22 31 25 19 29 17 31
REMARK Flexibility Score: inf
ROOT
ATOM      1  O   UNL     1      26.564  34.641  12.507  1.00  0.00    -0.443 OA
ENDROOT
BRANCH   1   2
ATOM      2  C   UNL     1      25.435  35.119  11.827  1.00  0.00     0.407 C 
ATOM      3  N   UNL     1      25.474  36.305  11.063  1.00  0.00    -0.319 N 
ATOM      4  H   UNL     1      26.425  36.794  11.034  1.00  0.00     0.167 HD
ATOM      5  O   UNL     1      24.393  34.465  11.919  1.00  0.00    -0.225 OA
BRANCH   3   6
ATOM      6  C   UNL     1      24.404  36.909  10.335  1.00  0.00     0.154 C 
BRANCH   6   7
ATOM      7  C   UNL     1      24.321  36.375   8.934  1.00  0.00     0.165 C 
BRANCH   7   8
ATOM      8  C   UNL     1      25.278  37.225   8.102  1.00  0.00     0.176 C 
BRANCH   8   9
ATOM      9  C   UNL     1      26.456  36.435   7.623  1.00  0.00     0.178 C 
ATOM     10  C   UNL     1      28.426  35.539   8.456  1.00  0.00     0.269 C 
ATOM     11  C   UNL     1      28.917  35.442   7.049  1.00  0.00     0.112 C 
ATOM     12  O   UNL     1      27.052  35.674   8.585  1.00  0.00    -0.332 OA
ATOM     13  C   UNL     1      28.337  36.453   6.104  1.00  0.00     0.145 C 
ATOM     14  C   UNL     1      27.434  37.362   6.911  1.00  0.00     0.142 C 
BRANCH  10  15
ATOM     15  O   UNL     1      29.113  36.542   9.147  1.00  0.00    -0.357 OA
ATOM     16  H   UNL     1      29.784  36.078   9.731  1.00  0.00     0.214 HD
ENDBRANCH  10  15
BRANCH  10  17
ATOM     17  C   UNL     1      28.770  34.247   9.115  1.00  0.00     0.364 C 
ATOM     18  O   UNL     1      29.934  33.794   9.078  1.00  0.00    -0.246 OA
BRANCH  17  19
ATOM     19  O   UNL     1      27.754  33.537   9.782  1.00  0.00    -0.477 OA
ATOM     20  H   UNL     1      27.900  32.531   9.856  1.00  0.00     0.296 HD
ENDBRANCH  17  19
ENDBRANCH  10  17
BRANCH  13  21
ATOM     21  O   UNL     1      29.298  37.155   5.388  1.00  0.00    -0.391 OA
ATOM     22  H   UNL     1      30.127  36.612   5.427  1.00  0.00     0.211 HD
ENDBRANCH  13  21
BRANCH  14  23
ATOM     23  N   UNL     1      26.661  38.250   6.069  1.00  0.00    -0.348 N 
ATOM     24  C   UNL     1      27.119  39.577   5.851  1.00  0.00     0.217 C 
ATOM     25  H   UNL     1      25.776  37.980   5.605  1.00  0.00     0.163 HD
ATOM     26  C   UNL     1      26.396  40.551   5.008  1.00  0.00     0.114 C 
ATOM     27  O   UNL     1      28.195  39.941   6.401  1.00  0.00    -0.275 OA
ENDBRANCH  14  23
ENDBRANCH   8   9
BRANCH   8  28
ATOM     28  O   UNL     1      25.651  38.328   8.854  1.00  0.00    -0.388 OA
ATOM     29  H   UNL     1      25.944  39.096   8.293  1.00  0.00     0.211 HD
ENDBRANCH   8  28
ENDBRANCH   7   8
BRANCH   7  30
ATOM     30  O   UNL     1      23.067  36.561   8.412  1.00  0.00    -0.388 OA
ATOM     31  H   UNL     1      23.073  36.772   7.443  1.00  0.00     0.211 HD
ENDBRANCH   7  30
ENDBRANCH   6   7
ENDBRANCH   3   6
ENDBRANCH   1   2
BRANCH   1  32
ATOM     32  C   UNL     1      26.727  34.899  13.899  1.00  0.00     0.294 C 
BRANCH  32  33
ATOM     33  C   UNL     1      26.490  33.656  14.656  1.00  0.00     0.120 A 
ATOM     34  C   UNL     1      27.525  32.968  15.295  1.00  0.00     0.138 A 
ATOM     35  N   UNL     1      25.397  32.949  14.908  1.00  0.00    -0.132 NA
ATOM     36  N   UNL     1      27.007  31.879  15.900  1.00  0.00    -0.252 N 
ATOM     37  N   UNL     1      25.728  31.888  15.656  1.00  0.00    -0.067 NA
BRANCH  36  38
ATOM     38  C   UNL     1      27.784  30.934  16.651  1.00  0.00     0.151 C 
BRANCH  38  39
ATOM     39  C   UNL     1      29.146  30.678  16.051  1.00  0.00     0.086 C 
BRANCH  39  40
ATOM     40  C   UNL     1      30.270  31.068  16.961  1.00  0.00     0.251 C 
BRANCH  40  41
ATOM     41  O   UNL     1      29.819  30.976  18.273  1.00  0.00    -0.353 OA
BRANCH  41  42
ATOM     42  C   UNL     1      30.476  31.915  19.077  1.00  0.00     0.160 C 
ATOM     43  C   UNL     1      29.547  32.515  20.100  1.00  0.00     0.035 C 
ENDBRANCH  41  42
ENDBRANCH  40  41
BRANCH  40  44
ATOM     44  O   UNL     1      30.722  32.342  16.733  1.00  0.00    -0.353 OA
BRANCH  44  45
ATOM     45  C   UNL     1      31.229  32.501  15.443  1.00  0.00     0.160 C 
ATOM     46  C   UNL     1      32.125  33.735  15.420  1.00  0.00     0.035 C 
ENDBRANCH  44  45
ENDBRANCH  40  44
ENDBRANCH  39  40
ENDBRANCH  38  39
ENDBRANCH  36  38
ENDBRANCH  32  33
ENDBRANCH   1  32
TORSDOF 21
BEGIN_RES LYS A 131
REMARK  4 active torsions:
REMARK  status: ('A' for Active; 'I' for Inactive)
REMARK    1  A    between atoms: CA   and  CB  
REMARK    2  A    between atoms: CB   and  CG  
REMARK    3  A    between atoms: CG   and  CD  
REMARK    4  A    between atoms: CD   and  CE  
ROOT
ATOM      1  CA  LYS A 131      29.867  25.555  16.977  1.00 20.52     0.186 C 
ENDROOT
BRANCH   1   2
ATOM      2  CB  LYS A 131      28.345  25.722  17.026  1.00 20.94     0.034 C 
BRANCH   2   3
ATOM      3  CG  LYS A 131      27.600  24.408  16.846  1.00 22.96     0.005 C 
BRANCH   3   4
ATOM      4  CD  LYS A 131      26.774  24.056  18.051  1.00 24.33     0.041 C 
BRANCH   4   5
ATOM      5  CE  LYS A 131      26.313  25.334  18.744  1.00 26.91     0.338 C 
ATOM      6  NZ  LYS A 131      24.848  25.302  18.970  1.00 27.40     0.618 N 
ENDBRANCH   4   5
ENDBRANCH   3   4
ENDBRANCH   2   3
ENDBRANCH   1   2
END_RES LYS A 131
BEGIN_RES LYS A 135
REMARK  4 active torsions:
REMARK  status: ('A' for Active; 'I' for Inactive)
REMARK    5  A    between atoms: CA   and  CB  
REMARK    6  A    between atoms: CB   and  CG  
REMARK    7  A    between atoms: CG   and  CD  
REMARK    8  A    between atoms: CD   and  CE  
ROOT
ATOM      7  CA  LYS A 135      33.193  34.663   9.290  1.00 25.02     0.186 C 
ENDROOT
BRANCH   7   8
ATOM      8  CB  LYS A 135      32.060  35.360  10.034  1.00 26.63     0.034 C 
BRANCH   8   9
ATOM      9  CG  LYS A 135      32.501  36.034  11.308  1.00 29.45     0.005 C 
BRANCH   9  10
ATOM     10  CD  LYS A 135      32.065  37.491  11.323  1.00 32.00     0.041 C 
BRANCH  10  11
ATOM     11  CE  LYS A 135      31.265  37.795  12.575  1.00 34.25     0.338 C 
ATOM     12  NZ  LYS A 135      31.000  36.555  13.356  1.00 35.99     0.618 N 
ENDBRANCH  10  11
ENDBRANCH   9  10
ENDBRANCH   8   9
ENDBRANCH   7   8
END_RES LYS A 135
