REMARK VINA RESULT:    -4.699      2.486      4.152
REMARK INTER + INTRA:         -15.891
REMARK INTER:                  -8.979
REMARK INTRA:                  -6.912
REMARK UNBOUND:                -6.934
REMARK SMILES CC(=O)N[C@@H]1[C@@H](O)C[C@](O)(C(=O)O)O[C@H]1C(O)[C@H](O)CNC(=O)OCc1cn(C(C)CC(=O)c2ccccc2)nn1
REMARK SMILES IDX 21 1 22 2 23 3 20 5 18 6 16 7 15 8 9 9 8 10 14 11 6 12 5 13
REMARK SMILES IDX 10 14 11 16 12 17 13 18 7 20 4 22 2 23 1 25 3 26 17 27 19 29
REMARK SMILES IDX 24 31 25 32 26 33 27 34 41 35 28 36 40 37 29 38 30 39 31 40
REMARK SMILES IDX 32 41 33 42 34 43 35 44 39 45 36 46 38 47 37 48
REMARK H PARENT 21 4 10 15 13 19 7 21 4 24 17 28 19 30
REMARK Flexibility Score: inf
ROOT
ATOM      1  N   UNL     1      26.722  28.170  23.489  1.00  0.00    -0.319 N 
ATOM      2  C   UNL     1      26.073  27.324  22.545  1.00  0.00     0.407 C 
ATOM      3  O   UNL     1      26.237  26.093  22.634  1.00  0.00    -0.225 OA
ATOM      4  H   UNL     1      26.530  29.209  23.347  1.00  0.00     0.167 HD
ENDROOT
BRANCH   1   5
ATOM      5  C   UNL     1      27.573  27.700  24.560  1.00  0.00     0.154 C 
BRANCH   5   6
ATOM      6  C   UNL     1      28.978  28.247  24.447  1.00  0.00     0.165 C 
BRANCH   6   7
ATOM      7  C   UNL     1      29.642  27.835  23.150  1.00  0.00     0.176 C 
BRANCH   7   8
ATOM      8  C   UNL     1      31.122  28.073  23.145  1.00  0.00     0.178 C 
ATOM      9  C   UNL     1      31.478  29.835  21.657  1.00  0.00     0.269 C 
ATOM     10  C   UNL     1      32.142  28.932  20.647  1.00  0.00     0.112 C 
ATOM     11  O   UNL     1      31.475  29.380  22.941  1.00  0.00    -0.332 OA
ATOM     12  C   UNL     1      31.712  27.501  20.767  1.00  0.00     0.145 C 
ATOM     13  C   UNL     1      31.851  27.113  22.222  1.00  0.00     0.142 C 
BRANCH   9  14
ATOM     14  O   UNL     1      30.200  30.206  21.180  1.00  0.00    -0.357 OA
ATOM     15  H   UNL     1      30.245  30.654  20.314  1.00  0.00     0.214 HD
ENDBRANCH   9  14
BRANCH   9  16
ATOM     16  C   UNL     1      32.287  31.108  21.652  1.00  0.00     0.364 C 
ATOM     17  O   UNL     1      33.516  31.139  21.799  1.00  0.00    -0.246 OA
BRANCH  16  18
ATOM     18  O   UNL     1      31.535  32.281  21.463  1.00  0.00    -0.477 OA
ATOM     19  H   UNL     1      30.713  32.279  20.880  1.00  0.00     0.296 HD
ENDBRANCH  16  18
ENDBRANCH   9  16
BRANCH  12  20
ATOM     20  O   UNL     1      30.451  27.270  20.271  1.00  0.00    -0.391 OA
ATOM     21  H   UNL     1      30.203  26.325  20.409  1.00  0.00     0.211 HD
ENDBRANCH  12  20
BRANCH  13  22
ATOM     22  N   UNL     1      33.281  27.274  22.534  1.00  0.00    -0.348 N 
ATOM     23  C   UNL     1      33.773  26.797  23.780  1.00  0.00     0.217 C 
ATOM     24  H   UNL     1      33.943  27.724  21.874  1.00  0.00     0.163 HD
ATOM     25  C   UNL     1      35.218  26.966  24.079  1.00  0.00     0.114 C 
ATOM     26  O   UNL     1      32.976  26.254  24.577  1.00  0.00    -0.275 OA
ENDBRANCH  13  22
ENDBRANCH   7   8
BRANCH   7  27
ATOM     27  O   UNL     1      29.343  26.484  22.958  1.00  0.00    -0.388 OA
ATOM     28  H   UNL     1      28.664  26.405  22.224  1.00  0.00     0.211 HD
ENDBRANCH   7  27
ENDBRANCH   6   7
BRANCH   6  29
ATOM     29  O   UNL     1      29.733  27.786  25.545  1.00  0.00    -0.388 OA
ATOM     30  H   UNL     1      29.154  27.439  26.268  1.00  0.00     0.211 HD
ENDBRANCH   6  29
ENDBRANCH   5   6
ENDBRANCH   1   5
BRANCH   2  31
ATOM     31  O   UNL     1      25.270  27.809  21.537  1.00  0.00    -0.443 OA
BRANCH  31  32
ATOM     32  C   UNL     1      25.377  29.083  20.942  1.00  0.00     0.294 C 
BRANCH  32  33
ATOM     33  C   UNL     1      26.542  29.255  20.070  1.00  0.00     0.120 A 
ATOM     34  C   UNL     1      26.599  30.068  18.930  1.00  0.00     0.138 A 
ATOM     35  N   UNL     1      27.775  28.694  20.161  1.00  0.00    -0.132 NA
ATOM     36  N   UNL     1      27.806  29.968  18.409  1.00  0.00    -0.249 N 
ATOM     37  N   UNL     1      28.493  29.148  19.151  1.00  0.00    -0.067 NA
BRANCH  36  38
ATOM     38  C   UNL     1      28.275  30.684  17.181  1.00  0.00     0.114 C 
ATOM     39  C   UNL     1      27.619  32.037  17.272  1.00  0.00     0.034 C 
BRANCH  38  40
ATOM     40  C   UNL     1      29.728  30.741  17.257  1.00  0.00     0.108 C 
BRANCH  40  41
ATOM     41  C   UNL     1      30.390  31.916  17.731  1.00  0.00     0.164 C 
ATOM     42  O   UNL     1      30.279  32.061  19.055  1.00  0.00    -0.294 OA
BRANCH  41  43
ATOM     43  C   UNL     1      31.137  32.963  17.108  1.00  0.00     0.018 A 
ATOM     44  C   UNL     1      31.457  32.839  15.733  1.00  0.00     0.012 A 
ATOM     45  C   UNL     1      31.567  34.113  17.723  1.00  0.00     0.012 A 
ATOM     46  C   UNL     1      32.156  33.814  15.069  1.00  0.00     0.001 A 
ATOM     47  C   UNL     1      32.273  35.079  17.019  1.00  0.00     0.001 A 
ATOM     48  C   UNL     1      32.579  34.956  15.704  1.00  0.00     0.000 A 
ENDBRANCH  41  43
ENDBRANCH  40  41
ENDBRANCH  38  40
ENDBRANCH  36  38
ENDBRANCH  32  33
ENDBRANCH  31  32
ENDBRANCH   2  31
TORSDOF 18
BEGIN_RES LYS A 131
REMARK  4 active torsions:
REMARK  status: ('A' for Active; 'I' for Inactive)
REMARK    1  A    between atoms: CA   and  CB  
REMARK    2  A    between atoms: CB   and  CG  
REMARK    3  A    between atoms: CG   and  CD  
REMARK    4  A    between atoms: CD   and  CE  
ROOT
ATOM      1  CA  LYS A 131      29.867  25.555  16.977  1.00 20.52     0.186 C 
ENDROOT
BRANCH   1   2
ATOM      2  CB  LYS A 131      28.345  25.722  17.026  1.00 20.94     0.034 C 
BRANCH   2   3
ATOM      3  CG  LYS A 131      27.602  24.398  16.938  1.00 22.96     0.005 C 
BRANCH   3   4
ATOM      4  CD  LYS A 131      26.188  24.507  17.437  1.00 24.33     0.041 C 
BRANCH   4   5
ATOM      5  CE  LYS A 131      26.086  25.663  18.427  1.00 26.91     0.338 C 
ATOM      6  NZ  LYS A 131      24.718  26.234  18.418  1.00 27.40     0.618 N 
ENDBRANCH   4   5
ENDBRANCH   3   4
ENDBRANCH   2   3
ENDBRANCH   1   2
END_RES LYS A 131
BEGIN_RES LYS A 135
REMARK  4 active torsions:
REMARK  status: ('A' for Active; 'I' for Inactive)
REMARK    5  A    between atoms: CA   and  CB  
REMARK    6  A    between atoms: CB   and  CG  
REMARK    7  A    between atoms: CG   and  CD  
REMARK    8  A    between atoms: CD   and  CE  
ROOT
ATOM      7  CA  LYS A 135      33.193  34.663   9.290  1.00 25.02     0.186 C 
ENDROOT
BRANCH   7   8
ATOM      8  CB  LYS A 135      32.060  35.360  10.034  1.00 26.63     0.034 C 
BRANCH   8   9
ATOM      9  CG  LYS A 135      30.716  34.710   9.830  1.00 29.45     0.005 C 
BRANCH   9  10
ATOM     10  CD  LYS A 135      30.466  34.445   8.353  1.00 32.00     0.041 C 
BRANCH  10  11
ATOM     11  CE  LYS A 135      29.073  34.896   7.959  1.00 34.25     0.338 C 
ATOM     12  NZ  LYS A 135      29.074  36.318   7.516  1.00 35.99     0.618 N 
ENDBRANCH  10  11
ENDBRANCH   9  10
ENDBRANCH   8   9
ENDBRANCH   7   8
END_RES LYS A 135
