REMARK VINA RESULT:    -4.738      6.047     10.368
REMARK INTER + INTRA:         -14.760
REMARK INTER:                  -7.882
REMARK INTRA:                  -6.878
REMARK UNBOUND:                -6.145
REMARK SMILES CC(=O)N[C@@H]1[C@@H](O)C[C@](O)(C(=O)O)O[C@H]1C(O)[C@H](O)CNC(=O)OCc1cn(C(C)(C)CO)nn1
REMARK SMILES IDX 21 1 22 2 23 3 20 5 18 6 16 7 15 8 9 9 8 10 14 11 6 12 5 13
REMARK SMILES IDX 10 14 11 16 12 17 13 18 7 20 4 22 2 23 1 25 3 26 17 27 19 29
REMARK SMILES IDX 24 31 25 32 26 33 27 34 35 35 28 36 34 37 29 38 30 39 31 40
REMARK SMILES IDX 32 41 33 42
REMARK H PARENT 21 4 10 15 13 19 7 21 4 24 17 28 19 30 33 43
REMARK Flexibility Score: inf
ROOT
ATOM      1  N   UNL     1      31.938  35.414  16.015  1.00  0.00    -0.319 N 
ATOM      2  C   UNL     1      32.648  35.287  14.778  1.00  0.00     0.407 C 
ATOM      3  O   UNL     1      33.294  34.223  14.488  1.00  0.00    -0.225 OA
ATOM      4  H   UNL     1      31.420  36.294  16.195  1.00  0.00     0.167 HD
ENDROOT
BRANCH   1   5
ATOM      5  C   UNL     1      31.948  34.316  16.959  1.00  0.00     0.154 C 
BRANCH   5   6
ATOM      6  C   UNL     1      30.745  33.462  16.870  1.00  0.00     0.165 C 
BRANCH   6   7
ATOM      7  C   UNL     1      30.846  32.179  16.134  1.00  0.00     0.176 C 
BRANCH   7   8
ATOM      8  C   UNL     1      30.123  31.067  16.854  1.00  0.00     0.178 C 
ATOM      9  C   UNL     1      27.867  31.397  16.227  1.00  0.00     0.269 C 
ATOM     10  C   UNL     1      27.543  31.809  17.675  1.00  0.00     0.112 C 
ATOM     11  O   UNL     1      29.015  30.678  16.133  1.00  0.00    -0.332 OA
ATOM     12  C   UNL     1      28.368  30.912  18.536  1.00  0.00     0.145 C 
ATOM     13  C   UNL     1      29.848  31.331  18.303  1.00  0.00     0.142 C 
BRANCH   9  14
ATOM     14  O   UNL     1      27.775  32.512  15.421  1.00  0.00    -0.357 OA
ATOM     15  H   UNL     1      28.677  32.806  15.148  1.00  0.00     0.214 HD
ENDBRANCH   9  14
BRANCH   9  16
ATOM     16  C   UNL     1      26.760  30.455  15.796  1.00  0.00     0.364 C 
ATOM     17  O   UNL     1      26.718  29.277  16.221  1.00  0.00    -0.246 OA
BRANCH  16  18
ATOM     18  O   UNL     1      25.806  30.935  14.925  1.00  0.00    -0.477 OA
ATOM     19  H   UNL     1      25.911  30.844  13.921  1.00  0.00     0.296 HD
ENDBRANCH  16  18
ENDBRANCH   9  16
BRANCH  12  20
ATOM     20  O   UNL     1      28.063  30.994  19.881  1.00  0.00    -0.391 OA
ATOM     21  H   UNL     1      28.817  30.574  20.373  1.00  0.00     0.211 HD
ENDBRANCH  12  20
BRANCH  13  22
ATOM     22  N   UNL     1      30.564  30.411  19.202  1.00  0.00    -0.348 N 
ATOM     23  C   UNL     1      31.296  30.837  20.315  1.00  0.00     0.217 C 
ATOM     24  H   UNL     1      30.505  29.397  18.975  1.00  0.00     0.163 HD
ATOM     25  C   UNL     1      32.030  29.927  21.232  1.00  0.00     0.114 C 
ATOM     26  O   UNL     1      31.344  32.073  20.567  1.00  0.00    -0.275 OA
ENDBRANCH  13  22
ENDBRANCH   7   8
BRANCH   7  27
ATOM     27  O   UNL     1      30.754  32.192  14.782  1.00  0.00    -0.388 OA
ATOM     28  H   UNL     1      30.721  31.296  14.356  1.00  0.00     0.211 HD
ENDBRANCH   7  27
ENDBRANCH   6   7
BRANCH   6  29
ATOM     29  O   UNL     1      29.683  34.208  16.310  1.00  0.00    -0.388 OA
ATOM     30  H   UNL     1      29.841  34.270  15.341  1.00  0.00     0.211 HD
ENDBRANCH   6  29
ENDBRANCH   5   6
ENDBRANCH   1   5
BRANCH   2  31
ATOM     31  O   UNL     1      32.621  36.342  13.903  1.00  0.00    -0.443 OA
BRANCH  31  32
ATOM     32  C   UNL     1      31.820  36.375  12.760  1.00  0.00     0.294 C 
BRANCH  32  33
ATOM     33  C   UNL     1      30.499  35.739  13.006  1.00  0.00     0.120 A 
ATOM     34  C   UNL     1      29.313  36.423  13.102  1.00  0.00     0.139 A 
ATOM     35  N   UNL     1      30.208  34.450  13.177  1.00  0.00    -0.132 NA
ATOM     36  N   UNL     1      28.333  35.541  13.326  1.00  0.00    -0.244 N 
ATOM     37  N   UNL     1      28.912  34.339  13.367  1.00  0.00    -0.066 NA
BRANCH  36  38
ATOM     38  C   UNL     1      26.938  35.860  13.487  1.00  0.00     0.082 C 
ATOM     39  C   UNL     1      26.618  37.201  12.860  1.00  0.00     0.039 C 
ATOM     40  C   UNL     1      26.614  35.884  14.975  1.00  0.00     0.039 C 
BRANCH  38  41
ATOM     41  C   UNL     1      26.094  34.772  12.875  1.00  0.00     0.186 C 
BRANCH  41  42
ATOM     42  O   UNL     1      25.894  33.744  13.800  1.00  0.00    -0.394 OA
ATOM     43  H   UNL     1      26.513  33.001  13.583  1.00  0.00     0.210 HD
ENDBRANCH  41  42
ENDBRANCH  38  41
ENDBRANCH  36  38
ENDBRANCH  32  33
ENDBRANCH  31  32
ENDBRANCH   2  31
TORSDOF 17
BEGIN_RES LYS A 131
REMARK  4 active torsions:
REMARK  status: ('A' for Active; 'I' for Inactive)
REMARK    1  A    between atoms: CA   and  CB  
REMARK    2  A    between atoms: CB   and  CG  
REMARK    3  A    between atoms: CG   and  CD  
REMARK    4  A    between atoms: CD   and  CE  
ROOT
ATOM      1  CA  LYS A 131      29.867  25.555  16.977  1.00 20.52     0.186 C 
ENDROOT
BRANCH   1   2
ATOM      2  CB  LYS A 131      28.345  25.722  17.026  1.00 20.94     0.034 C 
BRANCH   2   3
ATOM      3  CG  LYS A 131      27.602  24.400  16.912  1.00 22.96     0.005 C 
BRANCH   3   4
ATOM      4  CD  LYS A 131      26.149  24.534  17.277  1.00 24.33     0.041 C 
BRANCH   4   5
ATOM      5  CE  LYS A 131      26.005  24.550  18.796  1.00 26.91     0.338 C 
ATOM      6  NZ  LYS A 131      25.531  23.234  19.286  1.00 27.40     0.618 N 
ENDBRANCH   4   5
ENDBRANCH   3   4
ENDBRANCH   2   3
ENDBRANCH   1   2
END_RES LYS A 131
BEGIN_RES LYS A 135
REMARK  4 active torsions:
REMARK  status: ('A' for Active; 'I' for Inactive)
REMARK    5  A    between atoms: CA   and  CB  
REMARK    6  A    between atoms: CB   and  CG  
REMARK    7  A    between atoms: CG   and  CD  
REMARK    8  A    between atoms: CD   and  CE  
ROOT
ATOM      7  CA  LYS A 135      33.193  34.663   9.290  1.00 25.02     0.186 C 
ENDROOT
BRANCH   7   8
ATOM      8  CB  LYS A 135      32.060  35.360  10.034  1.00 26.63     0.034 C 
BRANCH   8   9
ATOM      9  CG  LYS A 135      30.790  35.472   9.230  1.00 29.45     0.005 C 
BRANCH   9  10
ATOM     10  CD  LYS A 135      30.140  34.107   9.062  1.00 32.00     0.041 C 
BRANCH  10  11
ATOM     11  CE  LYS A 135      28.764  34.091   9.701  1.00 34.25     0.338 C 
ATOM     12  NZ  LYS A 135      28.194  35.464   9.782  1.00 35.99     0.618 N 
ENDBRANCH  10  11
ENDBRANCH   9  10
ENDBRANCH   8   9
ENDBRANCH   7   8
END_RES LYS A 135
