REMARK VINA RESULT:    -4.694      5.157      9.369
REMARK INTER + INTRA:         -13.288
REMARK INTER:                  -8.124
REMARK INTRA:                  -5.164
REMARK UNBOUND:                -5.164
REMARK SMILES CC(=O)N[C@@H]1[C@@H](O)C[C@](O)(C(=O)O)O[C@H]1C(O)[C@H](O)CNC(=O)OCc1cn(-c2cccnc2)nn1
REMARK SMILES IDX 20 1 18 2 16 3 15 4 9 5 8 6 14 7 6 8 5 9 10 10 11 12 12 13
REMARK SMILES IDX 13 14 7 16 4 18 2 19 1 21 3 22 17 23 19 25 21 27 22 28 23 30
REMARK SMILES IDX 24 31 25 32 26 33 27 34 36 35 28 36 35 37 29 38 30 39 34 40
REMARK SMILES IDX 31 41 33 42 32 43
REMARK H PARENT 10 11 13 15 7 17 4 20 17 24 19 26 21 29
REMARK Flexibility Score: inf
ROOT
ATOM      1  C   UNL     1      27.889  34.803  15.119  1.00  0.00     0.154 C 
ENDROOT
BRANCH   1   2
ATOM      2  C   UNL     1      28.257  36.097  15.748  1.00  0.00     0.165 C 
BRANCH   2   3
ATOM      3  C   UNL     1      29.332  36.825  15.035  1.00  0.00     0.176 C 
BRANCH   3   4
ATOM      4  C   UNL     1      30.590  36.096  14.712  1.00  0.00     0.178 C 
ATOM      5  C   UNL     1      32.362  34.906  15.475  1.00  0.00     0.269 C 
ATOM      6  C   UNL     1      33.018  34.986  14.143  1.00  0.00     0.112 C 
ATOM      7  O   UNL     1      31.424  35.880  15.761  1.00  0.00    -0.332 OA
ATOM      8  C   UNL     1      32.209  35.535  13.021  1.00  0.00     0.145 C 
ATOM      9  C   UNL     1      31.331  36.704  13.555  1.00  0.00     0.142 C 
BRANCH   5  10
ATOM     10  O   UNL     1      33.413  35.114  16.424  1.00  0.00    -0.357 OA
ATOM     11  H   UNL     1      32.961  35.528  17.195  1.00  0.00     0.214 HD
ENDBRANCH   5  10
BRANCH   5  12
ATOM     12  C   UNL     1      31.823  33.560  15.776  1.00  0.00     0.364 C 
ATOM     13  O   UNL     1      31.488  33.273  16.952  1.00  0.00    -0.246 OA
BRANCH  12  14
ATOM     14  O   UNL     1      31.648  32.550  14.838  1.00  0.00    -0.477 OA
ATOM     15  H   UNL     1      31.485  32.860  13.874  1.00  0.00     0.296 HD
ENDBRANCH  12  14
ENDBRANCH   5  12
BRANCH   8  16
ATOM     16  O   UNL     1      33.028  36.116  12.052  1.00  0.00    -0.391 OA
ATOM     17  H   UNL     1      32.744  35.809  11.155  1.00  0.00     0.211 HD
ENDBRANCH   8  16
BRANCH   9  18
ATOM     18  N   UNL     1      30.396  36.981  12.498  1.00  0.00    -0.348 N 
ATOM     19  C   UNL     1      30.497  38.086  11.623  1.00  0.00     0.217 C 
ATOM     20  H   UNL     1      29.580  36.327  12.354  1.00  0.00     0.163 HD
ATOM     21  C   UNL     1      29.481  38.284  10.564  1.00  0.00     0.114 C 
ATOM     22  O   UNL     1      31.449  38.888  11.752  1.00  0.00    -0.275 OA
ENDBRANCH   9  18
ENDBRANCH   3   4
BRANCH   3  23
ATOM     23  O   UNL     1      29.501  38.138  15.434  1.00  0.00    -0.388 OA
ATOM     24  H   UNL     1      28.696  38.665  15.551  1.00  0.00     0.211 HD
ENDBRANCH   3  23
ENDBRANCH   2   3
BRANCH   2  25
ATOM     25  O   UNL     1      28.740  35.868  17.060  1.00  0.00    -0.388 OA
ATOM     26  H   UNL     1      29.643  36.243  17.100  1.00  0.00     0.211 HD
ENDBRANCH   2  25
ENDBRANCH   1   2
BRANCH   1  27
ATOM     27  N   UNL     1      26.955  34.853  14.034  1.00  0.00    -0.319 N 
ATOM     28  C   UNL     1      27.263  34.799  12.680  1.00  0.00     0.407 C 
ATOM     29  H   UNL     1      25.920  34.938  14.276  1.00  0.00     0.167 HD
ATOM     30  O   UNL     1      28.432  34.708  12.282  1.00  0.00    -0.225 OA
BRANCH  28  31
ATOM     31  O   UNL     1      26.284  34.843  11.672  1.00  0.00    -0.443 OA
BRANCH  31  32
ATOM     32  C   UNL     1      26.636  35.139  10.340  1.00  0.00     0.294 C 
BRANCH  32  33
ATOM     33  C   UNL     1      25.516  35.752   9.601  1.00  0.00     0.121 A 
ATOM     34  C   UNL     1      24.193  35.390   9.797  1.00  0.00     0.144 A 
ATOM     35  N   UNL     1      25.492  36.699   8.664  1.00  0.00    -0.131 NA
ATOM     36  N   UNL     1      23.420  36.125   8.979  1.00  0.00    -0.219 N 
ATOM     37  N   UNL     1      24.218  36.911   8.302  1.00  0.00    -0.062 NA
BRANCH  36  38
ATOM     38  C   UNL     1      21.995  36.074   8.858  1.00  0.00     0.085 A 
ATOM     39  C   UNL     1      21.363  36.347   7.657  1.00  0.00     0.031 A 
ATOM     40  C   UNL     1      21.223  35.746   9.953  1.00  0.00     0.139 A 
ATOM     41  C   UNL     1      19.970  36.283   7.588  1.00  0.00     0.022 A 
ATOM     42  N   UNL     1      19.865  35.693   9.858  1.00  0.00    -0.262 NA
ATOM     43  C   UNL     1      19.224  35.952   8.704  1.00  0.00     0.111 A 
ENDBRANCH  36  38
ENDBRANCH  32  33
ENDBRANCH  31  32
ENDBRANCH  28  31
ENDBRANCH   1  27
TORSDOF 15
BEGIN_RES LYS A 131
REMARK  4 active torsions:
REMARK  status: ('A' for Active; 'I' for Inactive)
REMARK    1  A    between atoms: CA   and  CB  
REMARK    2  A    between atoms: CB   and  CG  
REMARK    3  A    between atoms: CG   and  CD  
REMARK    4  A    between atoms: CD   and  CE  
ROOT
ATOM      1  CA  LYS A 131      29.867  25.555  16.977  1.00 20.52     0.186 C 
ENDROOT
BRANCH   1   2
ATOM      2  CB  LYS A 131      28.345  25.722  17.026  1.00 20.94     0.034 C 
BRANCH   2   3
ATOM      3  CG  LYS A 131      27.601  24.404  16.878  1.00 22.96     0.005 C 
BRANCH   3   4
ATOM      4  CD  LYS A 131      26.155  24.522  17.275  1.00 24.33     0.041 C 
BRANCH   4   5
ATOM      5  CE  LYS A 131      25.748  23.295  18.086  1.00 26.91     0.338 C 
ATOM      6  NZ  LYS A 131      25.508  23.665  19.501  1.00 27.40     0.618 N 
ENDBRANCH   4   5
ENDBRANCH   3   4
ENDBRANCH   2   3
ENDBRANCH   1   2
END_RES LYS A 131
BEGIN_RES LYS A 135
REMARK  4 active torsions:
REMARK  status: ('A' for Active; 'I' for Inactive)
REMARK    5  A    between atoms: CA   and  CB  
REMARK    6  A    between atoms: CB   and  CG  
REMARK    7  A    between atoms: CG   and  CD  
REMARK    8  A    between atoms: CD   and  CE  
ROOT
ATOM      7  CA  LYS A 135      33.193  34.663   9.290  1.00 25.02     0.186 C 
ENDROOT
BRANCH   7   8
ATOM      8  CB  LYS A 135      32.060  35.360  10.034  1.00 26.63     0.034 C 
BRANCH   8   9
ATOM      9  CG  LYS A 135      30.700  34.783   9.738  1.00 29.45     0.005 C 
BRANCH   9  10
ATOM     10  CD  LYS A 135      30.434  34.777   8.241  1.00 32.00     0.041 C 
BRANCH  10  11
ATOM     11  CE  LYS A 135      29.407  35.833   7.878  1.00 34.25     0.338 C 
ATOM     12  NZ  LYS A 135      28.303  35.251   7.066  1.00 35.99     0.618 N 
ENDBRANCH  10  11
ENDBRANCH   9  10
ENDBRANCH   8   9
ENDBRANCH   7   8
END_RES LYS A 135
