REMARK VINA RESULT:    -6.104      0.000      0.000
REMARK INTER + INTRA:         -17.101
REMARK INTER:                 -11.704
REMARK INTRA:                  -5.397
REMARK UNBOUND:                -5.110
REMARK SMILES CC(=O)N[C@@H]1[C@@H](O)C[C@](O)(C(=O)O)O[C@H]1C(O)[C@H](O)CNC(=O)OCc1cn([C@@H](C)C(=O)OCc2ccccc2)nn1
REMARK SMILES IDX 24 1 22 2 21 3 23 5 20 6 18 7 16 8 15 9 9 10 8 11 14 12 6 13
REMARK SMILES IDX 5 14 10 15 11 17 12 18 13 19 7 21 4 23 2 24 1 26 3 27 17 28
REMARK SMILES IDX 19 30 25 32 26 33 27 34 42 35 28 36 41 37 29 38 30 39 31 40
REMARK SMILES IDX 32 41 33 42 34 43 35 44 36 45 40 46 37 47 39 48 38 49
REMARK H PARENT 21 4 10 16 13 20 7 22 4 25 17 29 19 31
REMARK Flexibility Score: inf
ROOT
ATOM      1  O   UNL     1      24.779  38.402  11.611  1.00  0.00    -0.443 OA
ENDROOT
BRANCH   1   2
ATOM      2  C   UNL     1      24.487  37.437  10.619  1.00  0.00     0.407 C 
ATOM      3  N   UNL     1      24.244  37.834   9.287  1.00  0.00    -0.319 N 
ATOM      4  H   UNL     1      24.284  38.886   9.108  1.00  0.00     0.167 HD
ATOM      5  O   UNL     1      24.464  36.255  11.009  1.00  0.00    -0.225 OA
BRANCH   3   6
ATOM      6  C   UNL     1      23.961  36.915   8.230  1.00  0.00     0.154 C 
BRANCH   6   7
ATOM      7  C   UNL     1      22.518  36.919   7.849  1.00  0.00     0.165 C 
BRANCH   7   8
ATOM      8  C   UNL     1      21.815  35.706   8.452  1.00  0.00     0.176 C 
BRANCH   8   9
ATOM      9  C   UNL     1      20.673  36.063   9.351  1.00  0.00     0.178 C 
ATOM     10  C   UNL     1      18.915  35.427   7.940  1.00  0.00     0.269 C 
ATOM     11  C   UNL     1      18.702  36.867   7.600  1.00  0.00     0.112 C 
ATOM     12  O   UNL     1      19.572  35.219   9.128  1.00  0.00    -0.332 OA
ATOM     13  C   UNL     1      18.841  37.696   8.860  1.00  0.00     0.145 C 
ATOM     14  C   UNL     1      20.267  37.500   9.351  1.00  0.00     0.142 C 
BRANCH  10  15
ATOM     15  O   UNL     1      19.535  34.775   6.899  1.00  0.00    -0.357 OA
ATOM     16  H   UNL     1      19.647  35.349   6.091  1.00  0.00     0.214 HD
ENDBRANCH  10  15
BRANCH  10  17
ATOM     17  C   UNL     1      17.560  34.788   8.114  1.00  0.00     0.364 C 
ATOM     18  O   UNL     1      17.454  33.623   8.575  1.00  0.00    -0.246 OA
BRANCH  17  19
ATOM     19  O   UNL     1      16.387  35.448   7.778  1.00  0.00    -0.477 OA
ATOM     20  H   UNL     1      15.902  35.274   6.884  1.00  0.00     0.296 HD
ENDBRANCH  17  19
ENDBRANCH  10  17
BRANCH  13  21
ATOM     21  O   UNL     1      18.558  39.024   8.609  1.00  0.00    -0.391 OA
ATOM     22  H   UNL     1      18.469  39.566   9.433  1.00  0.00     0.211 HD
ENDBRANCH  13  21
BRANCH  14  23
ATOM     23  N   UNL     1      20.410  38.133  10.667  1.00  0.00    -0.348 N 
ATOM     24  C   UNL     1      21.264  39.253  10.892  1.00  0.00     0.217 C 
ATOM     25  H   UNL     1      19.877  37.771  11.501  1.00  0.00     0.163 HD
ATOM     26  C   UNL     1      21.368  39.854  12.257  1.00  0.00     0.114 C 
ATOM     27  O   UNL     1      21.924  39.729   9.940  1.00  0.00    -0.275 OA
ENDBRANCH  14  23
ENDBRANCH   8   9
BRANCH   8  28
ATOM     28  O   UNL     1      22.747  34.971   9.195  1.00  0.00    -0.388 OA
ATOM     29  H   UNL     1      23.630  35.011   8.736  1.00  0.00     0.211 HD
ENDBRANCH   8  28
ENDBRANCH   7   8
BRANCH   7  30
ATOM     30  O   UNL     1      22.398  36.884   6.460  1.00  0.00    -0.388 OA
ATOM     31  H   UNL     1      22.965  36.168   6.048  1.00  0.00     0.211 HD
ENDBRANCH   7  30
ENDBRANCH   6   7
ENDBRANCH   3   6
ENDBRANCH   1   2
BRANCH   1  32
ATOM     32  C   UNL     1      26.063  38.399  12.200  1.00  0.00     0.294 C 
BRANCH  32  33
ATOM     33  C   UNL     1      27.132  38.216  11.200  1.00  0.00     0.120 A 
ATOM     34  C   UNL     1      27.428  38.986  10.100  1.00  0.00     0.139 A 
ATOM     35  N   UNL     1      28.038  37.224  11.200  1.00  0.00    -0.132 NA
ATOM     36  N   UNL     1      28.494  38.450   9.461  1.00  0.00    -0.238 N 
ATOM     37  N   UNL     1      28.840  37.393  10.144  1.00  0.00    -0.066 NA
BRANCH  36  38
ATOM     38  C   UNL     1      29.105  38.967   8.266  1.00  0.00     0.215 C 
ATOM     39  C   UNL     1      30.575  38.610   8.235  1.00  0.00     0.046 C 
BRANCH  38  40
ATOM     40  C   UNL     1      28.374  38.475   7.091  1.00  0.00     0.331 C 
ATOM     41  O   UNL     1      27.246  38.975   6.803  1.00  0.00    -0.250 OA
BRANCH  40  42
ATOM     42  O   UNL     1      28.863  37.479   6.272  1.00  0.00    -0.459 OA
BRANCH  42  43
ATOM     43  C   UNL     1      28.265  36.249   6.008  1.00  0.00     0.268 C 
BRANCH  43  44
ATOM     44  C   UNL     1      28.335  35.399   7.229  1.00  0.00    -0.011 A 
ATOM     45  C   UNL     1      29.551  34.948   7.694  1.00  0.00     0.007 A 
ATOM     46  C   UNL     1      27.189  35.066   7.898  1.00  0.00     0.007 A 
ATOM     47  C   UNL     1      29.620  34.167   8.822  1.00  0.00     0.000 A 
ATOM     48  C   UNL     1      27.228  34.290   9.023  1.00  0.00     0.000 A 
ATOM     49  C   UNL     1      28.443  33.842   9.483  1.00  0.00     0.000 A 
ENDBRANCH  43  44
ENDBRANCH  42  43
ENDBRANCH  40  42
ENDBRANCH  38  40
ENDBRANCH  36  38
ENDBRANCH  32  33
ENDBRANCH   1  32
TORSDOF 19
BEGIN_RES LYS A 131
REMARK  4 active torsions:
REMARK  status: ('A' for Active; 'I' for Inactive)
REMARK    1  A    between atoms: CA   and  CB  
REMARK    2  A    between atoms: CB   and  CG  
REMARK    3  A    between atoms: CG   and  CD  
REMARK    4  A    between atoms: CD   and  CE  
ROOT
ATOM      1  CA  LYS A 131      29.867  25.555  16.977  1.00 20.52     0.186 C 
ENDROOT
BRANCH   1   2
ATOM      2  CB  LYS A 131      28.345  25.722  17.026  1.00 20.94     0.034 C 
BRANCH   2   3
ATOM      3  CG  LYS A 131      27.601  24.404  16.878  1.00 22.96     0.005 C 
BRANCH   3   4
ATOM      4  CD  LYS A 131      26.563  24.216  17.949  1.00 24.33     0.041 C 
BRANCH   4   5
ATOM      5  CE  LYS A 131      25.396  25.165  17.699  1.00 26.91     0.338 C 
ATOM      6  NZ  LYS A 131      24.400  24.538  16.799  1.00 27.40     0.618 N 
ENDBRANCH   4   5
ENDBRANCH   3   4
ENDBRANCH   2   3
ENDBRANCH   1   2
END_RES LYS A 131
BEGIN_RES LYS A 135
REMARK  4 active torsions:
REMARK  status: ('A' for Active; 'I' for Inactive)
REMARK    5  A    between atoms: CA   and  CB  
REMARK    6  A    between atoms: CB   and  CG  
REMARK    7  A    between atoms: CG   and  CD  
REMARK    8  A    between atoms: CD   and  CE  
ROOT
ATOM      7  CA  LYS A 135      33.193  34.663   9.290  1.00 25.02     0.186 C 
ENDROOT
BRANCH   7   8
ATOM      8  CB  LYS A 135      32.060  35.360  10.034  1.00 26.63     0.034 C 
BRANCH   8   9
ATOM      9  CG  LYS A 135      32.526  36.184  11.206  1.00 29.45     0.005 C 
BRANCH   9  10
ATOM     10  CD  LYS A 135      31.516  36.122  12.342  1.00 32.00     0.041 C 
BRANCH  10  11
ATOM     11  CE  LYS A 135      30.742  34.819  12.295  1.00 34.25     0.338 C 
ATOM     12  NZ  LYS A 135      29.814  34.705  13.454  1.00 35.99     0.618 N 
ENDBRANCH  10  11
ENDBRANCH   9  10
ENDBRANCH   8   9
ENDBRANCH   7   8
END_RES LYS A 135
