REMARK VINA RESULT:    -4.358      3.215      7.328
REMARK INTER + INTRA:         -14.906
REMARK INTER:                  -8.575
REMARK INTRA:                  -6.331
REMARK UNBOUND:                -7.109
REMARK SMILES CC(=O)N[C@@H]1[C@@H](O)C[C@](O)(C(=O)O)O[C@H]1C(O)[C@H](O)CNC(=O)OCc1cn(-c2ncn3c2c(=O)n(C(C)C)c2ccccc23)nn1
REMARK SMILES IDX 21 1 22 2 23 3 20 5 18 6 16 7 15 8 9 9 8 10 14 11 6 12 5 13
REMARK SMILES IDX 10 14 11 16 12 17 13 18 7 20 4 22 2 23 1 25 3 26 17 27 19 29
REMARK SMILES IDX 24 31 25 32 26 33 27 34 47 35 28 36 46 37 29 38 30 39 33 40
REMARK SMILES IDX 31 41 32 42 34 43 45 44 36 45 35 46 44 47 40 48 43 49 41 50
REMARK SMILES IDX 42 51 37 52 38 53 39 54
REMARK H PARENT 21 4 10 15 13 19 7 21 4 24 17 28 19 30
REMARK Flexibility Score: inf
ROOT
ATOM      1  N   UNL     1      31.238  36.350  16.666  1.00  0.00    -0.319 N 
ATOM      2  C   UNL     1      32.175  37.026  15.885  1.00  0.00     0.407 C 
ATOM      3  O   UNL     1      33.290  37.365  16.286  1.00  0.00    -0.225 OA
ATOM      4  H   UNL     1      30.303  36.088  16.159  1.00  0.00     0.167 HD
ENDROOT
BRANCH   1   5
ATOM      5  C   UNL     1      31.375  35.979  18.021  1.00  0.00     0.154 C 
BRANCH   5   6
ATOM      6  C   UNL     1      31.643  34.567  18.299  1.00  0.00     0.165 C 
BRANCH   6   7
ATOM      7  C   UNL     1      31.177  33.472  17.431  1.00  0.00     0.176 C 
BRANCH   7   8
ATOM      8  C   UNL     1      29.626  33.452  17.572  1.00  0.00     0.178 C 
ATOM      9  C   UNL     1      29.081  31.172  17.711  1.00  0.00     0.269 C 
ATOM     10  C   UNL     1      28.219  31.298  16.499  1.00  0.00     0.112 C 
ATOM     11  O   UNL     1      29.285  32.376  18.301  1.00  0.00    -0.332 OA
ATOM     12  C   UNL     1      28.655  32.373  15.535  1.00  0.00     0.145 C 
ATOM     13  C   UNL     1      28.975  33.663  16.256  1.00  0.00     0.142 C 
BRANCH   9  14
ATOM     14  O   UNL     1      30.343  30.634  17.352  1.00  0.00    -0.357 OA
ATOM     15  H   UNL     1      30.139  29.937  16.672  1.00  0.00     0.214 HD
ENDBRANCH   9  14
BRANCH   9  16
ATOM     16  C   UNL     1      28.387  30.202  18.622  1.00  0.00     0.364 C 
ATOM     17  O   UNL     1      27.150  30.132  18.615  1.00  0.00    -0.246 OA
BRANCH  16  18
ATOM     18  O   UNL     1      29.124  29.396  19.457  1.00  0.00    -0.477 OA
ATOM     19  H   UNL     1      30.027  29.020  19.155  1.00  0.00     0.296 HD
ENDBRANCH  16  18
ENDBRANCH   9  16
BRANCH  12  20
ATOM     20  O   UNL     1      29.736  31.978  14.745  1.00  0.00    -0.391 OA
ATOM     21  H   UNL     1      29.621  32.336  13.832  1.00  0.00     0.211 HD
ENDBRANCH  12  20
BRANCH  13  22
ATOM     22  N   UNL     1      27.711  34.401  16.384  1.00  0.00    -0.348 N 
ATOM     23  C   UNL     1      27.599  35.774  16.086  1.00  0.00     0.217 C 
ATOM     24  H   UNL     1      26.832  33.910  16.712  1.00  0.00     0.163 HD
ATOM     25  C   UNL     1      26.318  36.516  16.218  1.00  0.00     0.114 C 
ATOM     26  O   UNL     1      28.615  36.420  15.690  1.00  0.00    -0.275 OA
ENDBRANCH  13  22
ENDBRANCH   7   8
BRANCH   7  27
ATOM     27  O   UNL     1      31.487  33.612  16.076  1.00  0.00    -0.388 OA
ATOM     28  H   UNL     1      32.468  33.439  15.924  1.00  0.00     0.211 HD
ENDBRANCH   7  27
ENDBRANCH   6   7
BRANCH   6  29
ATOM     29  O   UNL     1      31.147  34.337  19.639  1.00  0.00    -0.388 OA
ATOM     30  H   UNL     1      31.408  33.455  19.953  1.00  0.00     0.211 HD
ENDBRANCH   6  29
ENDBRANCH   5   6
ENDBRANCH   1   5
BRANCH   2  31
ATOM     31  O   UNL     1      31.885  37.373  14.546  1.00  0.00    -0.443 OA
BRANCH  31  32
ATOM     32  C   UNL     1      32.115  36.484  13.491  1.00  0.00     0.294 C 
BRANCH  32  33
ATOM     33  C   UNL     1      30.832  35.869  13.067  1.00  0.00     0.121 A 
ATOM     34  C   UNL     1      29.788  36.493  12.390  1.00  0.00     0.146 A 
ATOM     35  N   UNL     1      30.411  34.602  13.235  1.00  0.00    -0.131 NA
ATOM     36  N   UNL     1      28.779  35.603  12.170  1.00  0.00    -0.200 N 
ATOM     37  N   UNL     1      29.212  34.488  12.700  1.00  0.00    -0.060 NA
BRANCH  36  38
ATOM     38  C   UNL     1      27.569  35.936  11.495  1.00  0.00     0.186 A 
ATOM     39  N   UNL     1      27.452  36.826  10.465  1.00  0.00    -0.216 NA
ATOM     40  C   UNL     1      26.303  35.460  11.711  1.00  0.00     0.158 A 
ATOM     41  C   UNL     1      26.169  36.876  10.086  1.00  0.00     0.207 A 
ATOM     42  N   UNL     1      25.425  36.043  10.836  1.00  0.00    -0.291 N 
ATOM     43  C   UNL     1      25.799  34.559  12.595  1.00  0.00     0.279 A 
ATOM     44  C   UNL     1      24.112  35.748  10.836  1.00  0.00     0.071 A 
ATOM     45  N   UNL     1      24.508  34.238  12.630  1.00  0.00    -0.302 N 
ATOM     46  O   UNL     1      26.544  33.984  13.429  1.00  0.00    -0.267 OA
ATOM     47  C   UNL     1      23.258  36.356   9.939  1.00  0.00     0.029 A 
ATOM     48  C   UNL     1      23.662  34.825  11.758  1.00  0.00     0.068 A 
ATOM     49  C   UNL     1      21.902  36.073   9.916  1.00  0.00     0.002 A 
ATOM     50  C   UNL     1      22.301  34.559  11.715  1.00  0.00     0.028 A 
ATOM     51  C   UNL     1      21.435  35.160  10.822  1.00  0.00     0.002 A 
BRANCH  45  52
ATOM     52  C   UNL     1      23.910  33.288  13.541  1.00  0.00     0.085 C 
ATOM     53  C   UNL     1      24.131  33.814  14.943  1.00  0.00     0.031 C 
ATOM     54  C   UNL     1      24.488  31.910  13.475  1.00  0.00     0.031 C 
ENDBRANCH  45  52
ENDBRANCH  36  38
ENDBRANCH  32  33
ENDBRANCH  31  32
ENDBRANCH   2  31
TORSDOF 16
BEGIN_RES LYS A 131
REMARK  4 active torsions:
REMARK  status: ('A' for Active; 'I' for Inactive)
REMARK    1  A    between atoms: CA   and  CB  
REMARK    2  A    between atoms: CB   and  CG  
REMARK    3  A    between atoms: CG   and  CD  
REMARK    4  A    between atoms: CD   and  CE  
ROOT
ATOM      1  CA  LYS A 131      29.867  25.555  16.977  1.00 20.52     0.186 C 
ENDROOT
BRANCH   1   2
ATOM      2  CB  LYS A 131      28.345  25.722  17.026  1.00 20.94     0.034 C 
BRANCH   2   3
ATOM      3  CG  LYS A 131      27.601  24.401  16.900  1.00 22.96     0.005 C 
BRANCH   3   4
ATOM      4  CD  LYS A 131      26.383  24.351  17.780  1.00 24.33     0.041 C 
BRANCH   4   5
ATOM      5  CE  LYS A 131      26.284  25.642  18.587  1.00 26.91     0.338 C 
ATOM      6  NZ  LYS A 131      24.986  26.312  18.337  1.00 27.40     0.618 N 
ENDBRANCH   4   5
ENDBRANCH   3   4
ENDBRANCH   2   3
ENDBRANCH   1   2
END_RES LYS A 131
BEGIN_RES LYS A 135
REMARK  4 active torsions:
REMARK  status: ('A' for Active; 'I' for Inactive)
REMARK    5  A    between atoms: CA   and  CB  
REMARK    6  A    between atoms: CB   and  CG  
REMARK    7  A    between atoms: CG   and  CD  
REMARK    8  A    between atoms: CD   and  CE  
ROOT
ATOM      7  CA  LYS A 135      33.193  34.663   9.290  1.00 25.02     0.186 C 
ENDROOT
BRANCH   7   8
ATOM      8  CB  LYS A 135      32.060  35.360  10.034  1.00 26.63     0.034 C 
BRANCH   8   9
ATOM      9  CG  LYS A 135      30.810  35.527   9.209  1.00 29.45     0.005 C 
BRANCH   9  10
ATOM     10  CD  LYS A 135      30.080  34.200   9.068  1.00 32.00     0.041 C 
BRANCH  10  11
ATOM     11  CE  LYS A 135      28.764  34.392   8.338  1.00 34.25     0.338 C 
ATOM     12  NZ  LYS A 135      28.920  35.322   7.186  1.00 35.99     0.618 N 
ENDBRANCH  10  11
ENDBRANCH   9  10
ENDBRANCH   8   9
ENDBRANCH   7   8
END_RES LYS A 135
