REMARK VINA RESULT:    -4.406      9.320     14.879
REMARK INTER + INTRA:         -14.960
REMARK INTER:                  -9.280
REMARK INTRA:                  -5.680
REMARK UNBOUND:                -5.918
REMARK SMILES CC(=O)N[C@@H]1[C@@H](O)C[C@](O)(C(=O)O)O[C@H]1C(O)[C@H](O)CNC(=O)OCc1cn(CCCCCC(=O)O)nn1
REMARK SMILES IDX 25 1 24 2 22 3 21 4 23 6 20 7 18 8 16 9 15 10 9 11 8 12
REMARK SMILES IDX 14 13 6 14 5 15 10 16 11 18 12 19 13 20 7 22 4 24 2 25 1 27
REMARK SMILES IDX 3 28 17 29 19 31 26 33 27 34 38 35 28 36 37 37 29 38 30 39
REMARK SMILES IDX 31 40 32 41 33 42 34 43 35 44 36 45
REMARK H PARENT 21 5 10 17 13 21 7 23 4 26 17 30 19 32 36 46
REMARK Flexibility Score: inf
ROOT
ATOM      1  C   UNL     1      27.022  29.716  18.664  1.00  0.00     0.294 C 
ENDROOT
BRANCH   1   2
ATOM      2  O   UNL     1      27.261  28.348  18.972  1.00  0.00    -0.443 OA
BRANCH   2   3
ATOM      3  C   UNL     1      28.028  28.062  20.108  1.00  0.00     0.407 C 
ATOM      4  N   UNL     1      29.307  27.466  19.921  1.00  0.00    -0.319 N 
ATOM      5  H   UNL     1      29.616  27.272  18.932  1.00  0.00     0.167 HD
ATOM      6  O   UNL     1      27.548  28.345  21.233  1.00  0.00    -0.225 OA
BRANCH   4   7
ATOM      7  C   UNL     1      30.105  27.160  21.065  1.00  0.00     0.154 C 
BRANCH   7   8
ATOM      8  C   UNL     1      31.285  28.078  21.275  1.00  0.00     0.165 C 
BRANCH   8   9
ATOM      9  C   UNL     1      30.881  29.147  22.272  1.00  0.00     0.176 C 
BRANCH   9  10
ATOM     10  C   UNL     1      31.904  29.444  23.317  1.00  0.00     0.178 C 
ATOM     11  C   UNL     1      32.750  31.299  22.164  1.00  0.00     0.269 C 
ATOM     12  C   UNL     1      33.886  30.377  21.690  1.00  0.00     0.112 C 
ATOM     13  O   UNL     1      32.175  30.796  23.296  1.00  0.00    -0.332 OA
ATOM     14  C   UNL     1      34.317  29.619  22.921  1.00  0.00     0.145 C 
ATOM     15  C   UNL     1      33.165  28.658  23.271  1.00  0.00     0.142 C 
BRANCH  11  16
ATOM     16  O   UNL     1      31.873  31.551  21.112  1.00  0.00    -0.357 OA
ATOM     17  H   UNL     1      32.260  32.222  20.465  1.00  0.00     0.214 HD
ENDBRANCH  11  16
BRANCH  11  18
ATOM     18  C   UNL     1      33.398  32.586  22.526  1.00  0.00     0.364 C 
ATOM     19  O   UNL     1      34.211  33.131  21.721  1.00  0.00    -0.246 OA
BRANCH  18  20
ATOM     20  O   UNL     1      33.096  33.167  23.744  1.00  0.00    -0.477 OA
ATOM     21  H   UNL     1      33.468  34.116  23.893  1.00  0.00     0.296 HD
ENDBRANCH  18  20
ENDBRANCH  11  18
BRANCH  14  22
ATOM     22  O   UNL     1      35.495  28.903  22.711  1.00  0.00    -0.391 OA
ATOM     23  H   UNL     1      35.991  28.914  23.572  1.00  0.00     0.211 HD
ENDBRANCH  14  22
BRANCH  15  24
ATOM     24  N   UNL     1      33.457  28.009  24.541  1.00  0.00    -0.348 N 
ATOM     25  C   UNL     1      34.133  26.777  24.636  1.00  0.00     0.217 C 
ATOM     26  H   UNL     1      33.148  28.492  25.432  1.00  0.00     0.163 HD
ATOM     27  C   UNL     1      34.419  26.128  25.967  1.00  0.00     0.114 C 
ATOM     28  O   UNL     1      34.504  26.207  23.564  1.00  0.00    -0.275 OA
ENDBRANCH  15  24
ENDBRANCH   9  10
BRANCH   9  29
ATOM     29  O   UNL     1      29.791  28.556  22.975  1.00  0.00    -0.388 OA
ATOM     30  H   UNL     1      30.154  28.303  23.856  1.00  0.00     0.211 HD
ENDBRANCH   9  29
ENDBRANCH   8   9
BRANCH   8  31
ATOM     31  O   UNL     1      31.660  28.584  20.050  1.00  0.00    -0.388 OA
ATOM     32  H   UNL     1      31.163  29.411  19.832  1.00  0.00     0.211 HD
ENDBRANCH   8  31
ENDBRANCH   7   8
ENDBRANCH   4   7
ENDBRANCH   2   3
ENDBRANCH   1   2
BRANCH   1  33
ATOM     33  C   UNL     1      28.342  30.300  18.333  1.00  0.00     0.120 A 
ATOM     34  C   UNL     1      28.721  30.661  17.056  1.00  0.00     0.138 A 
ATOM     35  N   UNL     1      29.359  30.577  19.148  1.00  0.00    -0.132 NA
ATOM     36  N   UNL     1      29.977  31.145  17.175  1.00  0.00    -0.252 N 
ATOM     37  N   UNL     1      30.351  31.092  18.434  1.00  0.00    -0.067 NA
BRANCH  36  38
ATOM     38  C   UNL     1      30.726  31.632  16.015  1.00  0.00     0.146 C 
BRANCH  38  39
ATOM     39  C   UNL     1      31.351  32.949  16.392  1.00  0.00     0.024 C 
BRANCH  39  40
ATOM     40  C   UNL     1      31.723  33.790  15.190  1.00  0.00     0.002 C 
BRANCH  40  41
ATOM     41  C   UNL     1      30.611  33.915  14.207  1.00  0.00     0.012 C 
BRANCH  41  42
ATOM     42  C   UNL     1      30.955  34.740  12.997  1.00  0.00     0.122 C 
BRANCH  42  43
ATOM     43  C   UNL     1      32.224  35.472  13.114  1.00  0.00     0.303 C 
ATOM     44  O   UNL     1      32.271  36.602  13.625  1.00  0.00    -0.252 OA
BRANCH  43  45
ATOM     45  O   UNL     1      33.424  34.906  12.648  1.00  0.00    -0.481 OA
ATOM     46  H   UNL     1      33.848  35.245  11.778  1.00  0.00     0.296 HD
ENDBRANCH  43  45
ENDBRANCH  42  43
ENDBRANCH  41  42
ENDBRANCH  40  41
ENDBRANCH  39  40
ENDBRANCH  38  39
ENDBRANCH  36  38
ENDBRANCH   1  33
TORSDOF 21
BEGIN_RES LYS A 131
REMARK  4 active torsions:
REMARK  status: ('A' for Active; 'I' for Inactive)
REMARK    1  A    between atoms: CA   and  CB  
REMARK    2  A    between atoms: CB   and  CG  
REMARK    3  A    between atoms: CG   and  CD  
REMARK    4  A    between atoms: CD   and  CE  
ROOT
ATOM      1  CA  LYS A 131      29.867  25.555  16.977  1.00 20.52     0.186 C 
ENDROOT
BRANCH   1   2
ATOM      2  CB  LYS A 131      28.345  25.722  17.026  1.00 20.94     0.034 C 
BRANCH   2   3
ATOM      3  CG  LYS A 131      27.604  24.394  16.998  1.00 22.96     0.005 C 
BRANCH   3   4
ATOM      4  CD  LYS A 131      26.124  24.567  17.205  1.00 24.33     0.041 C 
BRANCH   4   5
ATOM      5  CE  LYS A 131      25.610  23.476  18.139  1.00 26.91     0.338 C 
ATOM      6  NZ  LYS A 131      25.635  23.943  19.545  1.00 27.40     0.618 N 
ENDBRANCH   4   5
ENDBRANCH   3   4
ENDBRANCH   2   3
ENDBRANCH   1   2
END_RES LYS A 131
BEGIN_RES LYS A 135
REMARK  4 active torsions:
REMARK  status: ('A' for Active; 'I' for Inactive)
REMARK    5  A    between atoms: CA   and  CB  
REMARK    6  A    between atoms: CB   and  CG  
REMARK    7  A    between atoms: CG   and  CD  
REMARK    8  A    between atoms: CD   and  CE  
ROOT
ATOM      7  CA  LYS A 135      33.193  34.663   9.290  1.00 25.02     0.186 C 
ENDROOT
BRANCH   7   8
ATOM      8  CB  LYS A 135      32.060  35.360  10.034  1.00 26.63     0.034 C 
BRANCH   8   9
ATOM      9  CG  LYS A 135      30.768  35.405   9.259  1.00 29.45     0.005 C 
BRANCH   9  10
ATOM     10  CD  LYS A 135      30.213  34.003   9.060  1.00 32.00     0.041 C 
BRANCH  10  11
ATOM     11  CE  LYS A 135      28.710  33.991   9.262  1.00 34.25     0.338 C 
ATOM     12  NZ  LYS A 135      28.069  35.155   8.590  1.00 35.99     0.618 N 
ENDBRANCH  10  11
ENDBRANCH   9  10
ENDBRANCH   8   9
ENDBRANCH   7   8
END_RES LYS A 135
