REMARK VINA RESULT:    -4.955      5.286      9.756
REMARK INTER + INTRA:         -14.366
REMARK INTER:                  -9.427
REMARK INTRA:                  -4.939
REMARK UNBOUND:                -5.212
REMARK SMILES CC(=O)N[C@@H]1[C@@H](O)C[C@](O)(C(=O)O)O[C@H]1C(O)[C@H](O)CNC(=O)OCc1cn(Cc2cccc(C#N)c2)nn1
REMARK SMILES IDX 21 1 22 2 23 3 20 5 18 6 16 7 15 8 9 9 8 10 14 11 6 12 5 13
REMARK SMILES IDX 10 14 11 16 12 17 13 18 7 20 4 22 2 23 1 25 3 26 17 27 19 29
REMARK SMILES IDX 24 31 25 32 26 33 27 34 39 35 28 36 38 37 29 38 30 39 31 40
REMARK SMILES IDX 37 41 32 42 34 43 33 44 35 45 36 46
REMARK H PARENT 21 4 10 15 13 19 7 21 4 24 17 28 19 30
REMARK Flexibility Score: inf
ROOT
ATOM      1  N   UNL     1      28.434  38.946  12.390  1.00  0.00    -0.319 N 
ATOM      2  C   UNL     1      28.280  38.831  13.776  1.00  0.00     0.407 C 
ATOM      3  O   UNL     1      27.186  38.490  14.271  1.00  0.00    -0.225 OA
ATOM      4  H   UNL     1      29.397  39.237  12.043  1.00  0.00     0.167 HD
ENDROOT
BRANCH   1   5
ATOM      5  C   UNL     1      27.383  38.695  11.441  1.00  0.00     0.154 C 
BRANCH   5   6
ATOM      6  C   UNL     1      27.668  37.524  10.543  1.00  0.00     0.165 C 
BRANCH   6   7
ATOM      7  C   UNL     1      26.550  37.085   9.681  1.00  0.00     0.176 C 
BRANCH   7   8
ATOM      8  C   UNL     1      26.605  37.595   8.231  1.00  0.00     0.178 C 
ATOM      9  C   UNL     1      27.985  38.664   6.768  1.00  0.00     0.269 C 
ATOM     10  C   UNL     1      27.038  39.842   6.673  1.00  0.00     0.112 C 
ATOM     11  O   UNL     1      27.822  38.102   8.007  1.00  0.00    -0.332 OA
ATOM     12  C   UNL     1      25.605  39.401   6.796  1.00  0.00     0.145 C 
ATOM     13  C   UNL     1      25.401  38.380   7.877  1.00  0.00     0.142 C 
BRANCH   9  14
ATOM     14  O   UNL     1      29.305  39.168   6.655  1.00  0.00    -0.357 OA
ATOM     15  H   UNL     1      29.883  38.355   6.720  1.00  0.00     0.214 HD
ENDBRANCH   9  14
BRANCH   9  16
ATOM     16  C   UNL     1      27.783  37.779   5.616  1.00  0.00     0.364 C 
ATOM     17  O   UNL     1      27.777  36.531   5.727  1.00  0.00    -0.246 OA
BRANCH  16  18
ATOM     18  O   UNL     1      27.582  38.253   4.303  1.00  0.00    -0.477 OA
ATOM     19  H   UNL     1      26.634  38.123   3.940  1.00  0.00     0.296 HD
ENDBRANCH  16  18
ENDBRANCH   9  16
BRANCH  12  20
ATOM     20  O   UNL     1      24.835  40.536   7.051  1.00  0.00    -0.391 OA
ATOM     21  H   UNL     1      25.091  40.985   7.884  1.00  0.00     0.211 HD
ENDBRANCH  12  20
BRANCH  13  22
ATOM     22  N   UNL     1      24.305  37.511   7.497  1.00  0.00    -0.348 N 
ATOM     23  C   UNL     1      22.950  37.734   7.939  1.00  0.00     0.217 C 
ATOM     24  H   UNL     1      24.409  36.664   6.882  1.00  0.00     0.163 HD
ATOM     25  C   UNL     1      21.852  36.807   7.521  1.00  0.00     0.114 C 
ATOM     26  O   UNL     1      22.685  38.705   8.675  1.00  0.00    -0.275 OA
ENDBRANCH  13  22
ENDBRANCH   7   8
BRANCH   7  27
ATOM     27  O   UNL     1      25.296  37.449  10.175  1.00  0.00    -0.388 OA
ATOM     28  H   UNL     1      24.953  36.820  10.856  1.00  0.00     0.211 HD
ENDBRANCH   7  27
ENDBRANCH   6   7
BRANCH   6  29
ATOM     29  O   UNL     1      28.264  36.527  11.313  1.00  0.00    -0.388 OA
ATOM     30  H   UNL     1      28.463  35.763  10.718  1.00  0.00     0.211 HD
ENDBRANCH   6  29
ENDBRANCH   5   6
ENDBRANCH   1   5
BRANCH   2  31
ATOM     31  O   UNL     1      29.316  39.088  14.674  1.00  0.00    -0.443 OA
BRANCH  31  32
ATOM     32  C   UNL     1      30.633  39.127  14.187  1.00  0.00     0.294 C 
BRANCH  32  33
ATOM     33  C   UNL     1      31.131  37.744  14.045  1.00  0.00     0.120 A 
ATOM     34  C   UNL     1      31.956  37.044  14.898  1.00  0.00     0.138 A 
ATOM     35  N   UNL     1      30.854  36.907  13.029  1.00  0.00    -0.132 NA
ATOM     36  N   UNL     1      32.153  35.816  14.382  1.00  0.00    -0.248 N 
ATOM     37  N   UNL     1      31.465  35.777  13.247  1.00  0.00    -0.067 NA
BRANCH  36  38
ATOM     38  C   UNL     1      32.918  34.705  14.880  1.00  0.00     0.181 C 
BRANCH  38  39
ATOM     39  C   UNL     1      32.069  33.823  15.748  1.00  0.00    -0.025 A 
ATOM     40  C   UNL     1      31.517  32.674  15.226  1.00  0.00     0.006 A 
ATOM     41  C   UNL     1      31.826  34.124  17.062  1.00  0.00     0.025 A 
ATOM     42  C   UNL     1      30.730  31.844  16.033  1.00  0.00     0.002 A 
ATOM     43  C   UNL     1      31.057  33.329  17.885  1.00  0.00     0.052 A 
ATOM     44  C   UNL     1      30.506  32.181  17.363  1.00  0.00     0.019 A 
BRANCH  43  45
ATOM     45  C   UNL     1      30.790  33.622  19.262  1.00  0.00     0.099 C 
ATOM     46  N   UNL     1      30.582  33.877  20.382  1.00  0.00    -0.192 NA
ENDBRANCH  43  45
ENDBRANCH  38  39
ENDBRANCH  36  38
ENDBRANCH  32  33
ENDBRANCH  31  32
ENDBRANCH   2  31
TORSDOF 17
BEGIN_RES LYS A 131
REMARK  4 active torsions:
REMARK  status: ('A' for Active; 'I' for Inactive)
REMARK    1  A    between atoms: CA   and  CB  
REMARK    2  A    between atoms: CB   and  CG  
REMARK    3  A    between atoms: CG   and  CD  
REMARK    4  A    between atoms: CD   and  CE  
ROOT
ATOM      1  CA  LYS A 131      29.867  25.555  16.977  1.00 20.52     0.186 C 
ENDROOT
BRANCH   1   2
ATOM      2  CB  LYS A 131      28.345  25.722  17.026  1.00 20.94     0.034 C 
BRANCH   2   3
ATOM      3  CG  LYS A 131      27.601  24.403  16.887  1.00 22.96     0.005 C 
BRANCH   3   4
ATOM      4  CD  LYS A 131      26.527  24.246  17.927  1.00 24.33     0.041 C 
BRANCH   4   5
ATOM      5  CE  LYS A 131      25.161  24.227  17.249  1.00 26.91     0.338 C 
ATOM      6  NZ  LYS A 131      24.461  22.950  17.527  1.00 27.40     0.618 N 
ENDBRANCH   4   5
ENDBRANCH   3   4
ENDBRANCH   2   3
ENDBRANCH   1   2
END_RES LYS A 131
BEGIN_RES LYS A 135
REMARK  4 active torsions:
REMARK  status: ('A' for Active; 'I' for Inactive)
REMARK    5  A    between atoms: CA   and  CB  
REMARK    6  A    between atoms: CB   and  CG  
REMARK    7  A    between atoms: CG   and  CD  
REMARK    8  A    between atoms: CD   and  CE  
ROOT
ATOM      7  CA  LYS A 135      33.193  34.663   9.290  1.00 25.02     0.186 C 
ENDROOT
BRANCH   7   8
ATOM      8  CB  LYS A 135      32.060  35.360  10.034  1.00 26.63     0.034 C 
BRANCH   8   9
ATOM      9  CG  LYS A 135      30.732  34.659   9.903  1.00 29.45     0.005 C 
BRANCH   9  10
ATOM     10  CD  LYS A 135      30.323  34.554   8.442  1.00 32.00     0.041 C 
BRANCH  10  11
ATOM     11  CE  LYS A 135      28.813  34.495   8.315  1.00 34.25     0.338 C 
ATOM     12  NZ  LYS A 135      28.207  33.751   9.454  1.00 35.99     0.618 N 
ENDBRANCH  10  11
ENDBRANCH   9  10
ENDBRANCH   8   9
ENDBRANCH   7   8
END_RES LYS A 135
