REMARK VINA RESULT:    -5.536      2.422      5.589
REMARK INTER + INTRA:         -18.109
REMARK INTER:                 -10.612
REMARK INTRA:                  -7.497
REMARK UNBOUND:                -7.717
REMARK SMILES CC(=O)N[C@@H]1[C@@H](O)C[C@](O)(C(=O)O)O[C@H]1C(O)[C@H](O)CNC(=O)OCc1cn(-c2ccc(-c3c4ccc(=O)cc-4oc4cc(O)ccc34)c(C(=O)[O-])c2)nn1
REMARK SMILES IDX 21 1 22 2 23 3 20 5 18 6 16 7 15 8 9 9 8 10 14 11 6 12 5 13
REMARK SMILES IDX 10 14 11 16 12 17 13 18 7 20 4 22 2 23 1 25 3 26 17 27 19 29
REMARK SMILES IDX 24 31 25 32 26 33 27 34 55 35 28 36 54 37 29 38 53 39 30 40
REMARK SMILES IDX 49 41 31 42 32 43 50 44 51 45 52 46 33 47 48 48 34 49 47 50
REMARK SMILES IDX 42 51 40 52 35 53 46 54 43 55 41 56 39 57 36 58 44 59 37 60
REMARK SMILES IDX 38 61 45 62
REMARK H PARENT 21 4 10 15 13 19 7 21 4 24 17 28 19 30 45 63
REMARK Flexibility Score: inf
ROOT
ATOM      1  N   UNL     1      29.607  30.719  18.239  1.00  0.00    -0.319 N 
ATOM      2  C   UNL     1      28.328  30.745  18.896  1.00  0.00     0.407 C 
ATOM      3  O   UNL     1      27.878  31.879  19.216  1.00  0.00    -0.225 OA
ATOM      4  H   UNL     1      30.025  29.815  17.954  1.00  0.00     0.167 HD
ENDROOT
BRANCH   1   5
ATOM      5  C   UNL     1      30.331  31.938  17.967  1.00  0.00     0.154 C 
BRANCH   5   6
ATOM      6  C   UNL     1      30.272  32.227  16.503  1.00  0.00     0.165 C 
BRANCH   6   7
ATOM      7  C   UNL     1      29.014  33.006  16.124  1.00  0.00     0.176 C 
BRANCH   7   8
ATOM      8  C   UNL     1      29.111  33.504  14.691  1.00  0.00     0.178 C 
ATOM      9  C   UNL     1      30.807  35.005  14.146  1.00  0.00     0.269 C 
ATOM     10  C   UNL     1      30.035  35.540  12.960  1.00  0.00     0.112 C 
ATOM     11  O   UNL     1      30.431  33.711  14.408  1.00  0.00    -0.332 OA
ATOM     12  C   UNL     1      28.571  35.432  13.186  1.00  0.00     0.145 C 
ATOM     13  C   UNL     1      28.203  34.653  14.425  1.00  0.00     0.142 C 
BRANCH   9  14
ATOM     14  O   UNL     1      30.625  35.875  15.190  1.00  0.00    -0.357 OA
ATOM     15  H   UNL     1      31.319  35.842  15.873  1.00  0.00     0.214 HD
ENDBRANCH   9  14
BRANCH   9  16
ATOM     16  C   UNL     1      32.237  34.990  13.755  1.00  0.00     0.364 C 
ATOM     17  O   UNL     1      32.654  35.780  12.872  1.00  0.00    -0.246 OA
BRANCH  16  18
ATOM     18  O   UNL     1      33.166  34.132  14.321  1.00  0.00    -0.477 OA
ATOM     19  H   UNL     1      34.047  33.896  13.839  1.00  0.00     0.296 HD
ENDBRANCH  16  18
ENDBRANCH   9  16
BRANCH  12  20
ATOM     20  O   UNL     1      27.961  36.681  13.268  1.00  0.00    -0.391 OA
ATOM     21  H   UNL     1      27.443  36.919  12.468  1.00  0.00     0.211 HD
ENDBRANCH  12  20
BRANCH  13  22
ATOM     22  N   UNL     1      26.831  34.173  14.203  1.00  0.00    -0.348 N 
ATOM     23  C   UNL     1      25.777  34.381  15.111  1.00  0.00     0.217 C 
ATOM     24  H   UNL     1      26.653  33.652  13.314  1.00  0.00     0.163 HD
ATOM     25  C   UNL     1      24.422  33.866  14.815  1.00  0.00     0.114 C 
ATOM     26  O   UNL     1      26.057  35.025  16.175  1.00  0.00    -0.275 OA
ENDBRANCH  13  22
ENDBRANCH   7   8
BRANCH   7  27
ATOM     27  O   UNL     1      28.945  34.077  17.022  1.00  0.00    -0.388 OA
ATOM     28  H   UNL     1      28.764  33.682  17.917  1.00  0.00     0.211 HD
ENDBRANCH   7  27
ENDBRANCH   6   7
BRANCH   6  29
ATOM     29  O   UNL     1      30.385  31.068  15.739  1.00  0.00    -0.388 OA
ATOM     30  H   UNL     1      29.673  30.414  15.937  1.00  0.00     0.211 HD
ENDBRANCH   6  29
ENDBRANCH   5   6
ENDBRANCH   1   5
BRANCH   2  31
ATOM     31  O   UNL     1      27.607  29.623  19.173  1.00  0.00    -0.443 OA
BRANCH  31  32
ATOM     32  C   UNL     1      27.338  28.654  18.187  1.00  0.00     0.294 C 
BRANCH  32  33
ATOM     33  C   UNL     1      26.754  29.323  17.008  1.00  0.00     0.121 A 
ATOM     34  C   UNL     1      25.408  29.353  16.638  1.00  0.00     0.144 A 
ATOM     35  N   UNL     1      27.396  30.020  16.059  1.00  0.00    -0.131 NA
ATOM     36  N   UNL     1      25.288  30.059  15.498  1.00  0.00    -0.220 N 
ATOM     37  N   UNL     1      26.503  30.447  15.175  1.00  0.00    -0.062 NA
BRANCH  36  38
ATOM     38  C   UNL     1      24.052  30.285  14.839  1.00  0.00     0.067 A 
ATOM     39  C   UNL     1      22.850  30.439  15.461  1.00  0.00     0.039 A 
ATOM     40  C   UNL     1      24.064  30.352  13.443  1.00  0.00     0.029 A 
ATOM     41  C   UNL     1      21.661  30.656  14.771  1.00  0.00     0.007 A 
ATOM     42  C   UNL     1      22.908  30.566  12.742  1.00  0.00     0.012 A 
ATOM     43  C   UNL     1      21.696  30.720  13.413  1.00  0.00    -0.008 A 
BRANCH  41  44
ATOM     44  C   UNL     1      20.390  30.817  15.474  1.00  0.00     0.072 C 
ATOM     45  O   UNL     1      19.661  29.814  15.755  1.00  0.00    -0.545 OA
ATOM     46  O   UNL     1      19.958  32.061  15.849  1.00  0.00    -0.545 OA
ENDBRANCH  41  44
BRANCH  43  47
ATOM     47  C   UNL     1      20.525  30.941  12.579  1.00  0.00     0.004 A 
ATOM     48  C   UNL     1      19.720  29.938  12.084  1.00  0.00     0.026 A 
ATOM     49  C   UNL     1      20.187  32.245  12.255  1.00  0.00     0.026 A 
ATOM     50  C   UNL     1      20.026  28.625  12.384  1.00  0.00     0.016 A 
ATOM     51  C   UNL     1      18.612  30.215  11.293  1.00  0.00     0.139 A 
ATOM     52  C   UNL     1      19.016  32.482  11.424  1.00  0.00     0.139 A 
ATOM     53  C   UNL     1      20.924  33.319  12.698  1.00  0.00     0.016 A 
ATOM     54  C   UNL     1      19.245  27.581  11.910  1.00  0.00     0.047 A 
ATOM     55  C   UNL     1      17.818  29.201  10.807  1.00  0.00     0.093 A 
ATOM     56  O   UNL     1      18.296  31.451  10.990  1.00  0.00    -0.456 OA
ATOM     57  C   UNL     1      18.674  33.763  11.101  1.00  0.00     0.099 A 
ATOM     58  C   UNL     1      20.541  34.583  12.347  1.00  0.00     0.053 A 
ATOM     59  C   UNL     1      18.151  27.887  11.127  1.00  0.00     0.119 A 
ATOM     60  C   UNL     1      19.428  34.823  11.556  1.00  0.00     0.182 A 
ATOM     61  O   UNL     1      19.116  36.007  11.260  1.00  0.00    -0.290 OA
BRANCH  59  62
ATOM     62  O   UNL     1      17.367  26.851  10.648  1.00  0.00    -0.508 OA
ATOM     63  H   UNL     1      17.690  26.146  10.012  1.00  0.00     0.293 HD
ENDBRANCH  59  62
ENDBRANCH  43  47
ENDBRANCH  36  38
ENDBRANCH  32  33
ENDBRANCH  31  32
ENDBRANCH   2  31
TORSDOF 18
BEGIN_RES LYS A 131
REMARK  4 active torsions:
REMARK  status: ('A' for Active; 'I' for Inactive)
REMARK    1  A    between atoms: CA   and  CB  
REMARK    2  A    between atoms: CB   and  CG  
REMARK    3  A    between atoms: CG   and  CD  
REMARK    4  A    between atoms: CD   and  CE  
ROOT
ATOM      1  CA  LYS A 131      29.867  25.555  16.977  1.00 20.52     0.186 C 
ENDROOT
BRANCH   1   2
ATOM      2  CB  LYS A 131      28.345  25.722  17.026  1.00 20.94     0.034 C 
BRANCH   2   3
ATOM      3  CG  LYS A 131      27.599  24.454  16.640  1.00 22.96     0.005 C 
BRANCH   3   4
ATOM      4  CD  LYS A 131      27.032  23.743  17.837  1.00 24.33     0.041 C 
BRANCH   4   5
ATOM      5  CE  LYS A 131      25.882  24.560  18.418  1.00 26.91     0.338 C 
ATOM      6  NZ  LYS A 131      24.796  24.707  17.421  1.00 27.40     0.618 N 
ENDBRANCH   4   5
ENDBRANCH   3   4
ENDBRANCH   2   3
ENDBRANCH   1   2
END_RES LYS A 131
BEGIN_RES LYS A 135
REMARK  4 active torsions:
REMARK  status: ('A' for Active; 'I' for Inactive)
REMARK    5  A    between atoms: CA   and  CB  
REMARK    6  A    between atoms: CB   and  CG  
REMARK    7  A    between atoms: CG   and  CD  
REMARK    8  A    between atoms: CD   and  CE  
ROOT
ATOM      7  CA  LYS A 135      33.193  34.663   9.290  1.00 25.02     0.186 C 
ENDROOT
BRANCH   7   8
ATOM      8  CB  LYS A 135      32.060  35.360  10.034  1.00 26.63     0.034 C 
BRANCH   8   9
ATOM      9  CG  LYS A 135      30.803  35.507   9.216  1.00 29.45     0.005 C 
BRANCH   9  10
ATOM     10  CD  LYS A 135      30.096  34.168   9.073  1.00 32.00     0.041 C 
BRANCH  10  11
ATOM     11  CE  LYS A 135      28.632  34.371   8.736  1.00 34.25     0.338 C 
ATOM     12  NZ  LYS A 135      27.755  33.625   9.680  1.00 35.99     0.618 N 
ENDBRANCH  10  11
ENDBRANCH   9  10
ENDBRANCH   8   9
ENDBRANCH   7   8
END_RES LYS A 135
