REMARK VINA RESULT:    -4.392      5.795      9.091
REMARK INTER + INTRA:         -14.931
REMARK INTER:                 -10.701
REMARK INTRA:                  -4.230
REMARK UNBOUND:                -5.918
REMARK SMILES CC(=O)N[C@@H]1[C@@H](O)C[C@](O)(C(=O)O)O[C@H]1C(O)[C@H](O)CNC(=O)OCc1cn(CCCCCC(=O)O)nn1
REMARK SMILES IDX 25 1 24 2 22 3 21 4 23 6 20 7 18 8 16 9 15 10 9 11 8 12
REMARK SMILES IDX 14 13 6 14 5 15 10 16 11 18 12 19 13 20 7 22 4 24 2 25 1 27
REMARK SMILES IDX 3 28 17 29 19 31 26 33 27 34 38 35 28 36 37 37 29 38 30 39
REMARK SMILES IDX 31 40 32 41 33 42 34 43 35 44 36 45
REMARK H PARENT 21 5 10 17 13 21 7 23 4 26 17 30 19 32 36 46
REMARK Flexibility Score: inf
ROOT
ATOM      1  C   UNL     1      29.310  37.237  14.797  1.00  0.00     0.294 C 
ENDROOT
BRANCH   1   2
ATOM      2  O   UNL     1      30.721  37.258  14.617  1.00  0.00    -0.443 OA
BRANCH   2   3
ATOM      3  C   UNL     1      31.483  36.341  15.352  1.00  0.00     0.407 C 
ATOM      4  N   UNL     1      31.580  35.007  14.865  1.00  0.00    -0.319 N 
ATOM      5  H   UNL     1      31.075  34.775  13.969  1.00  0.00     0.167 HD
ATOM      6  O   UNL     1      32.040  36.742  16.404  1.00  0.00    -0.225 OA
BRANCH   4   7
ATOM      7  C   UNL     1      32.347  34.052  15.600  1.00  0.00     0.154 C 
BRANCH   7   8
ATOM      8  C   UNL     1      31.557  33.248  16.605  1.00  0.00     0.165 C 
BRANCH   8   9
ATOM      9  C   UNL     1      30.324  32.704  15.911  1.00  0.00     0.176 C 
BRANCH   9  10
ATOM     10  C   UNL     1      29.773  31.452  16.508  1.00  0.00     0.178 C 
ATOM     11  C   UNL     1      27.561  31.996  15.964  1.00  0.00     0.269 C 
ATOM     12  C   UNL     1      27.404  32.448  17.425  1.00  0.00     0.112 C 
ATOM     13  O   UNL     1      28.607  31.126  15.848  1.00  0.00    -0.332 OA
ATOM     14  C   UNL     1      28.046  31.357  18.245  1.00  0.00     0.145 C 
ATOM     15  C   UNL     1      29.561  31.442  17.979  1.00  0.00     0.142 C 
BRANCH  11  16
ATOM     16  O   UNL     1      27.616  33.108  15.126  1.00  0.00    -0.357 OA
ATOM     17  H   UNL     1      27.165  32.924  14.242  1.00  0.00     0.214 HD
ENDBRANCH  11  16
BRANCH  11  18
ATOM     18  C   UNL     1      26.320  31.250  15.636  1.00  0.00     0.364 C 
ATOM     19  O   UNL     1      25.308  31.871  15.191  1.00  0.00    -0.246 OA
BRANCH  18  20
ATOM     20  O   UNL     1      26.294  29.880  15.823  1.00  0.00    -0.477 OA
ATOM     21  H   UNL     1      26.829  29.527  16.629  1.00  0.00     0.296 HD
ENDBRANCH  18  20
ENDBRANCH  11  18
BRANCH  14  22
ATOM     22  O   UNL     1      27.786  31.504  19.608  1.00  0.00    -0.391 OA
ATOM     23  H   UNL     1      27.292  32.358  19.712  1.00  0.00     0.211 HD
ENDBRANCH  14  22
BRANCH  15  24
ATOM     24  N   UNL     1      30.219  30.314  18.624  1.00  0.00    -0.348 N 
ATOM     25  C   UNL     1      30.848  30.409  19.881  1.00  0.00     0.217 C 
ATOM     26  H   UNL     1      30.219  29.381  18.121  1.00  0.00     0.163 HD
ATOM     27  C   UNL     1      31.524  29.222  20.521  1.00  0.00     0.114 C 
ATOM     28  O   UNL     1      30.839  31.528  20.479  1.00  0.00    -0.275 OA
ENDBRANCH  15  24
ENDBRANCH   9  10
BRANCH   9  29
ATOM     29  O   UNL     1      30.802  32.323  14.624  1.00  0.00    -0.388 OA
ATOM     30  H   UNL     1      31.053  33.166  14.178  1.00  0.00     0.211 HD
ENDBRANCH   9  29
ENDBRANCH   8   9
BRANCH   8  31
ATOM     31  O   UNL     1      31.269  34.063  17.677  1.00  0.00    -0.388 OA
ATOM     32  H   UNL     1      32.009  34.693  17.863  1.00  0.00     0.211 HD
ENDBRANCH   8  31
ENDBRANCH   7   8
ENDBRANCH   4   7
ENDBRANCH   2   3
ENDBRANCH   1   2
BRANCH   1  33
ATOM     33  C   UNL     1      28.768  36.395  13.706  1.00  0.00     0.120 A 
ATOM     34  C   UNL     1      27.986  36.883  12.679  1.00  0.00     0.138 A 
ATOM     35  N   UNL     1      28.919  35.086  13.510  1.00  0.00    -0.132 NA
ATOM     36  N   UNL     1      27.701  35.815  11.903  1.00  0.00    -0.252 N 
ATOM     37  N   UNL     1      28.265  34.740  12.409  1.00  0.00    -0.067 NA
BRANCH  36  38
ATOM     38  C   UNL     1      26.875  35.937  10.700  1.00  0.00     0.146 C 
BRANCH  38  39
ATOM     39  C   UNL     1      26.760  34.569  10.081  1.00  0.00     0.024 C 
BRANCH  39  40
ATOM     40  C   UNL     1      27.048  34.568   8.595  1.00  0.00     0.002 C 
BRANCH  40  41
ATOM     41  C   UNL     1      28.105  35.545   8.212  1.00  0.00     0.012 C 
BRANCH  41  42
ATOM     42  C   UNL     1      29.266  34.934   7.477  1.00  0.00     0.122 C 
BRANCH  42  43
ATOM     43  C   UNL     1      30.395  34.567   8.344  1.00  0.00     0.303 C 
ATOM     44  O   UNL     1      30.231  34.338   9.553  1.00  0.00    -0.252 OA
BRANCH  43  45
ATOM     45  O   UNL     1      31.697  34.467   7.823  1.00  0.00    -0.481 OA
ATOM     46  H   UNL     1      32.041  35.171   7.161  1.00  0.00     0.296 HD
ENDBRANCH  43  45
ENDBRANCH  42  43
ENDBRANCH  41  42
ENDBRANCH  40  41
ENDBRANCH  39  40
ENDBRANCH  38  39
ENDBRANCH  36  38
ENDBRANCH   1  33
TORSDOF 21
BEGIN_RES LYS A 131
REMARK  4 active torsions:
REMARK  status: ('A' for Active; 'I' for Inactive)
REMARK    1  A    between atoms: CA   and  CB  
REMARK    2  A    between atoms: CB   and  CG  
REMARK    3  A    between atoms: CG   and  CD  
REMARK    4  A    between atoms: CD   and  CE  
ROOT
ATOM      1  CA  LYS A 131      29.867  25.555  16.977  1.00 20.52     0.186 C 
ENDROOT
BRANCH   1   2
ATOM      2  CB  LYS A 131      28.345  25.722  17.026  1.00 20.94     0.034 C 
BRANCH   2   3
ATOM      3  CG  LYS A 131      27.606  24.393  17.064  1.00 22.96     0.005 C 
BRANCH   3   4
ATOM      4  CD  LYS A 131      26.114  24.574  17.013  1.00 24.33     0.041 C 
BRANCH   4   5
ATOM      5  CE  LYS A 131      25.554  24.581  18.432  1.00 26.91     0.338 C 
ATOM      6  NZ  LYS A 131      25.900  23.322  19.133  1.00 27.40     0.618 N 
ENDBRANCH   4   5
ENDBRANCH   3   4
ENDBRANCH   2   3
ENDBRANCH   1   2
END_RES LYS A 131
BEGIN_RES LYS A 135
REMARK  4 active torsions:
REMARK  status: ('A' for Active; 'I' for Inactive)
REMARK    5  A    between atoms: CA   and  CB  
REMARK    6  A    between atoms: CB   and  CG  
REMARK    7  A    between atoms: CG   and  CD  
REMARK    8  A    between atoms: CD   and  CE  
ROOT
ATOM      7  CA  LYS A 135      33.193  34.663   9.290  1.00 25.02     0.186 C 
ENDROOT
BRANCH   7   8
ATOM      8  CB  LYS A 135      32.060  35.360  10.034  1.00 26.63     0.034 C 
BRANCH   8   9
ATOM      9  CG  LYS A 135      32.530  36.216  11.182  1.00 29.45     0.005 C 
BRANCH   9  10
ATOM     10  CD  LYS A 135      31.674  37.467  11.304  1.00 32.00     0.041 C 
BRANCH  10  11
ATOM     11  CE  LYS A 135      31.358  38.032   9.932  1.00 34.25     0.338 C 
ATOM     12  NZ  LYS A 135      29.891  38.213   9.751  1.00 35.99     0.618 N 
ENDBRANCH  10  11
ENDBRANCH   9  10
ENDBRANCH   8   9
ENDBRANCH   7   8
END_RES LYS A 135
