REMARK VINA RESULT:    -4.303      3.520      9.609
REMARK INTER + INTRA:         -14.449
REMARK INTER:                 -10.216
REMARK INTRA:                  -4.233
REMARK UNBOUND:                -6.624
REMARK SMILES CC(=O)N[C@@H]1[C@@H](O)C[C@](O)(C(=O)O)O[C@H]1C(O)[C@H](O)CNC(=O)OCc1cn(-c2cccc(S(N)(=O)=O)c2)nn1
REMARK SMILES IDX 21 1 22 2 23 3 20 5 18 6 16 7 15 8 9 9 8 10 14 11 6 12 5 13
REMARK SMILES IDX 10 14 11 16 12 17 13 18 7 20 4 22 2 23 1 25 3 26 17 27 19 29
REMARK SMILES IDX 24 31 25 32 26 33 27 34 40 35 28 36 39 37 29 38 38 39 30 40
REMARK SMILES IDX 33 41 31 42 32 43 34 44 36 45 37 46 35 47
REMARK H PARENT 21 4 10 15 13 19 7 21 4 24 17 28 19 30 35 48 35 49
REMARK Flexibility Score: inf
ROOT
ATOM      1  N   UNL     1      30.410  32.643  17.424  1.00  0.00    -0.319 N 
ATOM      2  C   UNL     1      31.005  33.087  16.215  1.00  0.00     0.407 C 
ATOM      3  O   UNL     1      31.491  32.244  15.442  1.00  0.00    -0.225 OA
ATOM      4  H   UNL     1      30.016  33.413  18.032  1.00  0.00     0.167 HD
ENDROOT
BRANCH   1   5
ATOM      5  C   UNL     1      30.343  31.255  17.800  1.00  0.00     0.154 C 
BRANCH   5   6
ATOM      6  C   UNL     1      29.056  30.953  18.538  1.00  0.00     0.165 C 
BRANCH   6   7
ATOM      7  C   UNL     1      27.877  31.214  17.611  1.00  0.00     0.176 C 
BRANCH   7   8
ATOM      8  C   UNL     1      26.673  30.434  18.133  1.00  0.00     0.178 C 
ATOM      9  C   UNL     1      26.822  28.134  18.383  1.00  0.00     0.269 C 
ATOM     10  C   UNL     1      25.362  27.918  18.060  1.00  0.00     0.112 C 
ATOM     11  O   UNL     1      27.076  29.388  18.903  1.00  0.00    -0.332 OA
ATOM     12  C   UNL     1      24.698  29.135  17.512  1.00  0.00     0.145 C 
ATOM     13  C   UNL     1      25.779  30.078  16.984  1.00  0.00     0.142 C 
BRANCH   9  14
ATOM     14  O   UNL     1      27.638  27.907  17.279  1.00  0.00    -0.357 OA
ATOM     15  H   UNL     1      28.260  27.143  17.493  1.00  0.00     0.214 HD
ENDBRANCH   9  14
BRANCH   9  16
ATOM     16  C   UNL     1      27.187  27.138  19.426  1.00  0.00     0.364 C 
ATOM     17  O   UNL     1      26.317  26.605  20.164  1.00  0.00    -0.246 OA
BRANCH  16  18
ATOM     18  O   UNL     1      28.509  26.745  19.636  1.00  0.00    -0.477 OA
ATOM     19  H   UNL     1      29.191  26.814  18.889  1.00  0.00     0.296 HD
ENDBRANCH  16  18
ENDBRANCH   9  16
BRANCH  12  20
ATOM     20  O   UNL     1      23.757  28.874  16.532  1.00  0.00    -0.391 OA
ATOM     21  H   UNL     1      23.849  27.964  16.130  1.00  0.00     0.211 HD
ENDBRANCH  12  20
BRANCH  13  22
ATOM     22  N   UNL     1      25.151  31.303  16.520  1.00  0.00    -0.348 N 
ATOM     23  C   UNL     1      24.812  31.517  15.151  1.00  0.00     0.217 C 
ATOM     24  H   UNL     1      24.939  32.063  17.224  1.00  0.00     0.163 HD
ATOM     25  C   UNL     1      24.172  32.809  14.792  1.00  0.00     0.114 C 
ATOM     26  O   UNL     1      25.068  30.614  14.337  1.00  0.00    -0.275 OA
ENDBRANCH  13  22
ENDBRANCH   7   8
BRANCH   7  27
ATOM     27  O   UNL     1      27.580  32.563  17.676  1.00  0.00    -0.388 OA
ATOM     28  H   UNL     1      28.234  33.049  18.233  1.00  0.00     0.211 HD
ENDBRANCH   7  27
ENDBRANCH   6   7
BRANCH   6  29
ATOM     29  O   UNL     1      28.983  31.807  19.652  1.00  0.00    -0.388 OA
ATOM     30  H   UNL     1      29.879  32.228  19.840  1.00  0.00     0.211 HD
ENDBRANCH   6  29
ENDBRANCH   5   6
ENDBRANCH   1   5
BRANCH   2  31
ATOM     31  O   UNL     1      31.053  34.444  15.880  1.00  0.00    -0.443 OA
BRANCH  31  32
ATOM     32  C   UNL     1      29.923  35.278  16.034  1.00  0.00     0.294 C 
BRANCH  32  33
ATOM     33  C   UNL     1      28.930  34.991  14.970  1.00  0.00     0.121 A 
ATOM     34  C   UNL     1      29.149  35.155  13.616  1.00  0.00     0.144 A 
ATOM     35  N   UNL     1      27.677  34.538  15.094  1.00  0.00    -0.131 NA
ATOM     36  N   UNL     1      28.007  34.787  13.016  1.00  0.00    -0.220 N 
ATOM     37  N   UNL     1      27.103  34.409  13.907  1.00  0.00    -0.062 NA
BRANCH  36  38
ATOM     38  C   UNL     1      27.774  34.794  11.609  1.00  0.00     0.068 A 
ATOM     39  C   UNL     1      28.772  35.033  10.690  1.00  0.00     0.050 A 
ATOM     40  C   UNL     1      26.506  34.554  11.108  1.00  0.00     0.028 A 
ATOM     41  C   UNL     1      28.537  35.039   9.316  1.00  0.00     0.084 A 
ATOM     42  C   UNL     1      26.250  34.554   9.764  1.00  0.00     0.004 A 
ATOM     43  C   UNL     1      27.266  34.796   8.872  1.00  0.00     0.022 A 
BRANCH  41  44
ATOM     44  S   UNL     1      29.798  35.341   8.165  1.00  0.00     0.238 S 
ATOM     45  O   UNL     1      30.317  36.739   8.389  1.00  0.00    -0.207 OA
ATOM     46  O   UNL     1      29.216  35.321   6.771  1.00  0.00    -0.207 OA
BRANCH  44  47
ATOM     47  N   UNL     1      31.092  34.226   8.329  1.00  0.00    -0.225 NA
ATOM     48  H   UNL     1      31.875  34.506   7.712  1.00  0.00     0.137 HD
ATOM     49  H   UNL     1      30.798  33.244   8.149  1.00  0.00     0.137 HD
ENDBRANCH  44  47
ENDBRANCH  41  44
ENDBRANCH  36  38
ENDBRANCH  32  33
ENDBRANCH  31  32
ENDBRANCH   2  31
TORSDOF 17
BEGIN_RES LYS A 131
REMARK  4 active torsions:
REMARK  status: ('A' for Active; 'I' for Inactive)
REMARK    1  A    between atoms: CA   and  CB  
REMARK    2  A    between atoms: CB   and  CG  
REMARK    3  A    between atoms: CG   and  CD  
REMARK    4  A    between atoms: CD   and  CE  
ROOT
ATOM      1  CA  LYS A 131      29.867  25.555  16.977  1.00 20.52     0.186 C 
ENDROOT
BRANCH   1   2
ATOM      2  CB  LYS A 131      28.345  25.722  17.026  1.00 20.94     0.034 C 
BRANCH   2   3
ATOM      3  CG  LYS A 131      27.606  24.394  17.079  1.00 22.96     0.005 C 
BRANCH   3   4
ATOM      4  CD  LYS A 131      26.119  24.566  16.939  1.00 24.33     0.041 C 
BRANCH   4   5
ATOM      5  CE  LYS A 131      25.404  23.446  17.687  1.00 26.91     0.338 C 
ATOM      6  NZ  LYS A 131      25.895  23.358  19.082  1.00 27.40     0.618 N 
ENDBRANCH   4   5
ENDBRANCH   3   4
ENDBRANCH   2   3
ENDBRANCH   1   2
END_RES LYS A 131
BEGIN_RES LYS A 135
REMARK  4 active torsions:
REMARK  status: ('A' for Active; 'I' for Inactive)
REMARK    5  A    between atoms: CA   and  CB  
REMARK    6  A    between atoms: CB   and  CG  
REMARK    7  A    between atoms: CG   and  CD  
REMARK    8  A    between atoms: CD   and  CE  
ROOT
ATOM      7  CA  LYS A 135      33.193  34.663   9.290  1.00 25.02     0.186 C 
ENDROOT
BRANCH   7   8
ATOM      8  CB  LYS A 135      32.060  35.360  10.034  1.00 26.63     0.034 C 
BRANCH   8   9
ATOM      9  CG  LYS A 135      32.502  36.042  11.303  1.00 29.45     0.005 C 
BRANCH   9  10
ATOM     10  CD  LYS A 135      31.852  37.411  11.431  1.00 32.00     0.041 C 
BRANCH  10  11
ATOM     11  CE  LYS A 135      31.519  37.709  12.880  1.00 34.25     0.338 C 
ATOM     12  NZ  LYS A 135      32.270  36.809  13.799  1.00 35.99     0.618 N 
ENDBRANCH  10  11
ENDBRANCH   9  10
ENDBRANCH   8   9
ENDBRANCH   7   8
END_RES LYS A 135
