REMARK VINA RESULT:    -4.972      2.788      9.265
REMARK INTER + INTRA:         -14.122
REMARK INTER:                  -9.549
REMARK INTRA:                  -4.573
REMARK UNBOUND:                -5.226
REMARK SMILES COc1ccc(-n2cc(COC(=O)NC[C@@H](O)C(O)[C@@H]3O[C@@](O)(C(=O)O)C[C@H](O)[C@H]3NC(C)=O)nn2)cc1
REMARK SMILES IDX 14 1 12 2 13 3 15 5 16 6 18 7 20 8 22 9 27 10 21 11 28 12
REMARK SMILES IDX 30 13 23 14 24 16 25 17 26 18 29 20 31 22 32 23 33 25 34 26
REMARK SMILES IDX 19 27 17 29 11 31 10 32 9 33 8 34 35 35 7 36 36 37 6 38 5 39
REMARK SMILES IDX 37 40 4 41 38 42 3 43 2 44 1 45
REMARK H PARENT 14 4 23 15 26 19 29 21 31 24 19 28 17 30
REMARK Flexibility Score: inf
ROOT
ATOM      1  N   UNL     1      29.456  30.770  17.309  1.00  0.00    -0.319 N 
ATOM      2  C   UNL     1      28.273  31.088  18.011  1.00  0.00     0.407 C 
ATOM      3  O   UNL     1      27.366  31.768  17.508  1.00  0.00    -0.225 OA
ATOM      4  H   UNL     1      30.164  30.199  17.874  1.00  0.00     0.167 HD
ENDROOT
BRANCH   1   5
ATOM      5  C   UNL     1      29.818  31.097  15.990  1.00  0.00     0.154 C 
BRANCH   5   6
ATOM      6  C   UNL     1      30.461  32.377  15.701  1.00  0.00     0.165 C 
BRANCH   6   7
ATOM      7  C   UNL     1      29.663  33.532  15.357  1.00  0.00     0.176 C 
BRANCH   7   8
ATOM      8  C   UNL     1      30.194  34.411  14.204  1.00  0.00     0.178 C 
ATOM      9  C   UNL     1      31.901  36.039  14.235  1.00  0.00     0.269 C 
ATOM     10  C   UNL     1      30.859  37.167  14.310  1.00  0.00     0.112 C 
ATOM     11  O   UNL     1      31.338  34.951  14.767  1.00  0.00    -0.332 OA
ATOM     12  C   UNL     1      29.763  36.771  13.399  1.00  0.00     0.145 C 
ATOM     13  C   UNL     1      29.225  35.351  13.654  1.00  0.00     0.142 C 
BRANCH   9  14
ATOM     14  O   UNL     1      32.885  36.455  15.172  1.00  0.00    -0.357 OA
ATOM     15  H   UNL     1      32.803  35.951  16.018  1.00  0.00     0.214 HD
ENDBRANCH   9  14
BRANCH   9  16
ATOM     16  C   UNL     1      32.544  35.924  12.941  1.00  0.00     0.364 C 
ATOM     17  O   UNL     1      32.442  36.848  12.096  1.00  0.00    -0.246 OA
BRANCH  16  18
ATOM     18  O   UNL     1      33.308  34.838  12.508  1.00  0.00    -0.477 OA
ATOM     19  H   UNL     1      32.894  34.034  12.029  1.00  0.00     0.296 HD
ENDBRANCH  16  18
ENDBRANCH   9  16
BRANCH  12  20
ATOM     20  O   UNL     1      28.650  37.625  13.449  1.00  0.00    -0.391 OA
ATOM     21  H   UNL     1      28.925  38.432  12.910  1.00  0.00     0.211 HD
ENDBRANCH  12  20
BRANCH  13  22
ATOM     22  N   UNL     1      28.625  35.031  12.396  1.00  0.00    -0.348 N 
ATOM     23  C   UNL     1      27.299  34.677  12.148  1.00  0.00     0.217 C 
ATOM     24  H   UNL     1      29.284  35.074  11.562  1.00  0.00     0.163 HD
ATOM     25  C   UNL     1      26.815  34.362  10.768  1.00  0.00     0.114 C 
ATOM     26  O   UNL     1      26.535  34.631  13.118  1.00  0.00    -0.275 OA
ENDBRANCH  13  22
ENDBRANCH   7   8
BRANCH   7  27
ATOM     27  O   UNL     1      28.347  33.154  15.112  1.00  0.00    -0.388 OA
ATOM     28  H   UNL     1      28.133  33.137  14.145  1.00  0.00     0.211 HD
ENDBRANCH   7  27
ENDBRANCH   6   7
BRANCH   6  29
ATOM     29  O   UNL     1      31.558  32.170  14.816  1.00  0.00    -0.388 OA
ATOM     30  H   UNL     1      31.241  32.192  13.876  1.00  0.00     0.211 HD
ENDBRANCH   6  29
ENDBRANCH   5   6
ENDBRANCH   1   5
BRANCH   2  31
ATOM     31  O   UNL     1      28.067  30.638  19.331  1.00  0.00    -0.443 OA
BRANCH  31  32
ATOM     32  C   UNL     1      27.748  29.289  19.565  1.00  0.00     0.294 C 
BRANCH  32  33
ATOM     33  C   UNL     1      28.845  28.638  20.298  1.00  0.00     0.121 A 
ATOM     34  C   UNL     1      30.027  29.294  20.663  1.00  0.00     0.144 A 
ATOM     35  N   UNL     1      28.986  27.397  20.754  1.00  0.00    -0.131 NA
ATOM     36  N   UNL     1      30.812  28.418  21.318  1.00  0.00    -0.220 N 
ATOM     37  N   UNL     1      30.140  27.271  21.352  1.00  0.00    -0.062 NA
BRANCH  36  38
ATOM     38  C   UNL     1      32.100  28.660  21.866  1.00  0.00     0.067 A 
ATOM     39  C   UNL     1      32.858  29.763  21.543  1.00  0.00     0.032 A 
ATOM     40  C   UNL     1      32.659  27.764  22.779  1.00  0.00     0.032 A 
ATOM     41  C   UNL     1      34.116  29.983  22.092  1.00  0.00     0.048 A 
ATOM     42  C   UNL     1      33.909  27.985  23.323  1.00  0.00     0.048 A 
ATOM     43  C   UNL     1      34.653  29.092  22.990  1.00  0.00     0.119 A 
BRANCH  43  44
ATOM     44  O   UNL     1      35.886  29.313  23.526  1.00  0.00    -0.497 OA
ATOM     45  C   UNL     1      36.648  28.229  24.011  1.00  0.00     0.278 C 
ENDBRANCH  43  44
ENDBRANCH  36  38
ENDBRANCH  32  33
ENDBRANCH  31  32
ENDBRANCH   2  31
TORSDOF 16
BEGIN_RES LYS A 131
REMARK  4 active torsions:
REMARK  status: ('A' for Active; 'I' for Inactive)
REMARK    1  A    between atoms: CA   and  CB  
REMARK    2  A    between atoms: CB   and  CG  
REMARK    3  A    between atoms: CG   and  CD  
REMARK    4  A    between atoms: CD   and  CE  
ROOT
ATOM      1  CA  LYS A 131      29.867  25.555  16.977  1.00 20.52     0.186 C 
ENDROOT
BRANCH   1   2
ATOM      2  CB  LYS A 131      28.345  25.722  17.026  1.00 20.94     0.034 C 
BRANCH   2   3
ATOM      3  CG  LYS A 131      27.601  24.401  16.902  1.00 22.96     0.005 C 
BRANCH   3   4
ATOM      4  CD  LYS A 131      26.644  24.181  18.040  1.00 24.33     0.041 C 
BRANCH   4   5
ATOM      5  CE  LYS A 131      25.394  25.029  17.825  1.00 26.91     0.338 C 
ATOM      6  NZ  LYS A 131      24.465  24.355  16.889  1.00 27.40     0.618 N 
ENDBRANCH   4   5
ENDBRANCH   3   4
ENDBRANCH   2   3
ENDBRANCH   1   2
END_RES LYS A 131
BEGIN_RES LYS A 135
REMARK  4 active torsions:
REMARK  status: ('A' for Active; 'I' for Inactive)
REMARK    5  A    between atoms: CA   and  CB  
REMARK    6  A    between atoms: CB   and  CG  
REMARK    7  A    between atoms: CG   and  CD  
REMARK    8  A    between atoms: CD   and  CE  
ROOT
ATOM      7  CA  LYS A 135      33.193  34.663   9.290  1.00 25.02     0.186 C 
ENDROOT
BRANCH   7   8
ATOM      8  CB  LYS A 135      32.060  35.360  10.034  1.00 26.63     0.034 C 
BRANCH   8   9
ATOM      9  CG  LYS A 135      30.699  34.788   9.731  1.00 29.45     0.005 C 
BRANCH   9  10
ATOM     10  CD  LYS A 135      29.944  35.685   8.763  1.00 32.00     0.041 C 
BRANCH  10  11
ATOM     11  CE  LYS A 135      29.437  34.883   7.579  1.00 34.25     0.338 C 
ATOM     12  NZ  LYS A 135      28.389  35.633   6.832  1.00 35.99     0.618 N 
ENDBRANCH  10  11
ENDBRANCH   9  10
ENDBRANCH   8   9
ENDBRANCH   7   8
END_RES LYS A 135
