REMARK VINA RESULT:    -5.019      4.017      6.946
REMARK INTER + INTRA:         -14.646
REMARK INTER:                  -9.023
REMARK INTRA:                  -5.623
REMARK UNBOUND:                -4.785
REMARK SMILES C=CCCCCn1cc(COC(=O)NC[C@@H](O)C(O)[C@@H]2O[C@@](O)(C(=O)O)C[C@H](O)[C@H]2NC(C)=O)nn1
REMARK SMILES IDX 11 1 12 2 14 3 13 5 15 6 16 7 18 8 20 9 22 10 27 11 21 12
REMARK SMILES IDX 28 13 30 14 23 15 24 17 25 18 26 19 29 21 31 23 32 24 33 26
REMARK SMILES IDX 34 27 19 28 17 30 10 32 9 33 8 34 35 35 7 36 36 37 6 38 5 39
REMARK SMILES IDX 4 40 3 41 2 42 1 43
REMARK H PARENT 14 4 23 16 26 20 29 22 31 25 19 29 17 31
REMARK Flexibility Score: inf
ROOT
ATOM      1  O   UNL     1      30.985  32.338  19.707  1.00  0.00    -0.443 OA
ENDROOT
BRANCH   1   2
ATOM      2  C   UNL     1      31.065  31.351  20.670  1.00  0.00     0.407 C 
ATOM      3  N   UNL     1      30.463  30.086  20.362  1.00  0.00    -0.319 N 
ATOM      4  H   UNL     1      30.001  29.970  19.440  1.00  0.00     0.167 HD
ATOM      5  O   UNL     1      31.646  31.546  21.785  1.00  0.00    -0.225 OA
BRANCH   3   6
ATOM      6  C   UNL     1      30.487  29.000  21.282  1.00  0.00     0.154 C 
BRANCH   6   7
ATOM      7  C   UNL     1      30.137  27.650  20.651  1.00  0.00     0.165 C 
BRANCH   7   8
ATOM      8  C   UNL     1      28.644  27.502  20.802  1.00  0.00     0.176 C 
BRANCH   8   9
ATOM      9  C   UNL     1      27.896  27.527  19.509  1.00  0.00     0.178 C 
ATOM     10  C   UNL     1      27.033  29.207  18.160  1.00  0.00     0.269 C 
ATOM     11  C   UNL     1      26.257  28.074  17.522  1.00  0.00     0.112 C 
ATOM     12  O   UNL     1      28.122  28.708  18.853  1.00  0.00    -0.332 OA
ATOM     13  C   UNL     1      25.549  27.331  18.632  1.00  0.00     0.145 C 
ATOM     14  C   UNL     1      26.415  27.351  19.870  1.00  0.00     0.142 C 
BRANCH  10  15
ATOM     15  O   UNL     1      26.209  29.993  18.959  1.00  0.00    -0.357 OA
ATOM     16  H   UNL     1      26.591  30.894  19.056  1.00  0.00     0.214 HD
ENDBRANCH  10  15
BRANCH  10  17
ATOM     17  C   UNL     1      27.519  30.071  17.054  1.00  0.00     0.364 C 
ATOM     18  O   UNL     1      27.044  31.215  16.837  1.00  0.00    -0.246 OA
BRANCH  17  19
ATOM     19  O   UNL     1      28.542  29.661  16.182  1.00  0.00    -0.477 OA
ATOM     20  H   UNL     1      29.489  29.640  16.551  1.00  0.00     0.296 HD
ENDBRANCH  17  19
ENDBRANCH  10  17
BRANCH  13  21
ATOM     21  O   UNL     1      24.371  27.988  18.932  1.00  0.00    -0.391 OA
ATOM     22  H   UNL     1      24.349  28.863  18.471  1.00  0.00     0.211 HD
ENDBRANCH  13  21
BRANCH  14  23
ATOM     23  N   UNL     1      26.292  26.121  20.632  1.00  0.00    -0.348 N 
ATOM     24  C   UNL     1      25.526  26.017  21.827  1.00  0.00     0.217 C 
ATOM     25  H   UNL     1      26.775  25.228  20.330  1.00  0.00     0.163 HD
ATOM     26  C   UNL     1      25.408  24.746  22.603  1.00  0.00     0.114 C 
ATOM     27  O   UNL     1      24.938  27.065  22.215  1.00  0.00    -0.275 OA
ENDBRANCH  14  23
ENDBRANCH   8   9
BRANCH   8  28
ATOM     28  O   UNL     1      28.240  28.521  21.679  1.00  0.00    -0.388 OA
ATOM     29  H   UNL     1      27.904  28.155  22.536  1.00  0.00     0.211 HD
ENDBRANCH   8  28
ENDBRANCH   7   8
BRANCH   7  30
ATOM     30  O   UNL     1      30.863  26.622  21.214  1.00  0.00    -0.388 OA
ATOM     31  H   UNL     1      30.983  25.836  20.654  1.00  0.00     0.211 HD
ENDBRANCH   7  30
ENDBRANCH   6   7
ENDBRANCH   3   6
ENDBRANCH   1   2
BRANCH   1  32
ATOM     32  C   UNL     1      29.974  32.302  18.735  1.00  0.00     0.294 C 
BRANCH  32  33
ATOM     33  C   UNL     1      30.645  32.490  17.406  1.00  0.00     0.120 A 
ATOM     34  C   UNL     1      31.396  33.606  17.072  1.00  0.00     0.138 A 
ATOM     35  N   UNL     1      30.673  31.699  16.334  1.00  0.00    -0.132 NA
ATOM     36  N   UNL     1      31.849  33.453  15.822  1.00  0.00    -0.252 N 
ATOM     37  N   UNL     1      31.395  32.289  15.398  1.00  0.00    -0.067 NA
BRANCH  36  38
ATOM     38  C   UNL     1      32.676  34.343  15.021  1.00  0.00     0.146 C 
BRANCH  38  39
ATOM     39  C   UNL     1      32.144  35.750  15.104  1.00  0.00     0.024 C 
BRANCH  39  40
ATOM     40  C   UNL     1      31.529  36.185  13.797  1.00  0.00     0.006 C 
BRANCH  40  41
ATOM     41  C   UNL     1      32.463  35.991  12.632  1.00  0.00     0.027 C 
BRANCH  41  42
ATOM     42  C   UNL     1      32.330  37.118  11.681  1.00  0.00    -0.035 C 
ATOM     43  C   UNL     1      31.481  38.106  11.859  1.00  0.00     0.004 C 
ENDBRANCH  41  42
ENDBRANCH  40  41
ENDBRANCH  39  40
ENDBRANCH  38  39
ENDBRANCH  36  38
ENDBRANCH  32  33
ENDBRANCH   1  32
TORSDOF 19
BEGIN_RES LYS A 131
REMARK  4 active torsions:
REMARK  status: ('A' for Active; 'I' for Inactive)
REMARK    1  A    between atoms: CA   and  CB  
REMARK    2  A    between atoms: CB   and  CG  
REMARK    3  A    between atoms: CG   and  CD  
REMARK    4  A    between atoms: CD   and  CE  
ROOT
ATOM      1  CA  LYS A 131      29.867  25.555  16.977  1.00 20.52     0.186 C 
ENDROOT
BRANCH   1   2
ATOM      2  CB  LYS A 131      28.345  25.722  17.026  1.00 20.94     0.034 C 
BRANCH   2   3
ATOM      3  CG  LYS A 131      27.599  24.443  16.677  1.00 22.96     0.005 C 
BRANCH   3   4
ATOM      4  CD  LYS A 131      26.856  23.881  17.858  1.00 24.33     0.041 C 
BRANCH   4   5
ATOM      5  CE  LYS A 131      25.371  23.779  17.523  1.00 26.91     0.338 C 
ATOM      6  NZ  LYS A 131      24.560  23.758  18.763  1.00 27.40     0.618 N 
ENDBRANCH   4   5
ENDBRANCH   3   4
ENDBRANCH   2   3
ENDBRANCH   1   2
END_RES LYS A 131
BEGIN_RES LYS A 135
REMARK  4 active torsions:
REMARK  status: ('A' for Active; 'I' for Inactive)
REMARK    5  A    between atoms: CA   and  CB  
REMARK    6  A    between atoms: CB   and  CG  
REMARK    7  A    between atoms: CG   and  CD  
REMARK    8  A    between atoms: CD   and  CE  
ROOT
ATOM      7  CA  LYS A 135      33.193  34.663   9.290  1.00 25.02     0.186 C 
ENDROOT
BRANCH   7   8
ATOM      8  CB  LYS A 135      32.060  35.360  10.034  1.00 26.63     0.034 C 
BRANCH   8   9
ATOM      9  CG  LYS A 135      30.707  34.743   9.786  1.00 29.45     0.005 C 
BRANCH   9  10
ATOM     10  CD  LYS A 135      30.393  34.718   8.298  1.00 32.00     0.041 C 
BRANCH  10  11
ATOM     11  CE  LYS A 135      28.899  34.595   8.072  1.00 34.25     0.338 C 
ATOM     12  NZ  LYS A 135      28.223  34.002   9.259  1.00 35.99     0.618 N 
ENDBRANCH  10  11
ENDBRANCH   9  10
ENDBRANCH   8   9
ENDBRANCH   7   8
END_RES LYS A 135
