REMARK VINA RESULT:    -5.116      5.276      9.627
REMARK INTER + INTRA:         -16.972
REMARK INTER:                  -9.608
REMARK INTRA:                  -7.363
REMARK UNBOUND:                -6.771
REMARK SMILES CC(=O)N[C@@H]1[C@@H](O)C[C@](O)(C(=O)O)O[C@H]1C(O)[C@H](O)CNC(=O)OCc1cn(CC(O)CCc2ccccc2)nn1
REMARK SMILES IDX 24 1 22 2 21 3 23 5 20 6 18 7 16 8 15 9 9 10 8 11 14 12 6 13
REMARK SMILES IDX 5 14 10 15 11 17 12 18 13 19 7 21 4 23 2 24 1 26 3 27 17 28
REMARK SMILES IDX 19 30 25 32 26 33 27 34 41 35 28 36 40 37 29 38 30 39 31 40
REMARK SMILES IDX 32 42 33 43 34 44 35 45 39 46 36 47 38 48 37 49
REMARK H PARENT 21 4 10 16 13 20 7 22 4 25 17 29 19 31 31 41
REMARK Flexibility Score: inf
ROOT
ATOM      1  O   UNL     1      30.407  35.204  19.345  1.00  0.00    -0.443 OA
ENDROOT
BRANCH   1   2
ATOM      2  C   UNL     1      31.001  36.289  18.725  1.00  0.00     0.407 C 
ATOM      3  N   UNL     1      30.216  37.316  18.162  1.00  0.00    -0.319 N 
ATOM      4  H   UNL     1      29.183  37.251  18.217  1.00  0.00     0.167 HD
ATOM      5  O   UNL     1      32.249  36.366  18.658  1.00  0.00    -0.225 OA
BRANCH   3   6
ATOM      6  C   UNL     1      30.801  38.475  17.502  1.00  0.00     0.154 C 
BRANCH   6   7
ATOM      7  C   UNL     1      30.348  38.560  16.056  1.00  0.00     0.165 C 
BRANCH   7   8
ATOM      8  C   UNL     1      31.230  37.638  15.231  1.00  0.00     0.176 C 
BRANCH   8   9
ATOM      9  C   UNL     1      30.398  36.492  14.648  1.00  0.00     0.178 C 
ATOM     10  C   UNL     1      31.309  34.429  15.253  1.00  0.00     0.269 C 
ATOM     11  C   UNL     1      32.293  34.639  14.156  1.00  0.00     0.112 C 
ATOM     12  O   UNL     1      30.373  35.386  15.421  1.00  0.00    -0.332 OA
ATOM     13  C   UNL     1      31.704  35.205  12.914  1.00  0.00     0.145 C 
ATOM     14  C   UNL     1      30.732  36.319  13.199  1.00  0.00     0.142 C 
BRANCH  10  15
ATOM     15  O   UNL     1      32.050  34.326  16.456  1.00  0.00    -0.357 OA
ATOM     16  H   UNL     1      31.814  35.083  17.051  1.00  0.00     0.214 HD
ENDBRANCH  10  15
BRANCH  10  17
ATOM     17  C   UNL     1      30.683  33.074  15.050  1.00  0.00     0.364 C 
ATOM     18  O   UNL     1      29.480  32.922  14.732  1.00  0.00    -0.246 OA
BRANCH  17  19
ATOM     19  O   UNL     1      31.430  31.903  15.210  1.00  0.00    -0.477 OA
ATOM     20  H   UNL     1      30.979  31.047  15.563  1.00  0.00     0.296 HD
ENDBRANCH  17  19
ENDBRANCH  10  17
BRANCH  13  21
ATOM     21  O   UNL     1      32.758  35.636  12.075  1.00  0.00    -0.391 OA
ATOM     22  H   UNL     1      32.517  35.493  11.112  1.00  0.00     0.211 HD
ENDBRANCH  13  21
BRANCH  14  23
ATOM     23  N   UNL     1      29.510  36.176  12.405  1.00  0.00    -0.348 N 
ATOM     24  C   UNL     1      28.842  37.288  11.870  1.00  0.00     0.217 C 
ATOM     25  H   UNL     1      29.159  35.184  12.260  1.00  0.00     0.163 HD
ATOM     26  C   UNL     1      27.615  37.094  11.079  1.00  0.00     0.114 C 
ATOM     27  O   UNL     1      29.278  38.440  12.059  1.00  0.00    -0.275 OA
ENDBRANCH  14  23
ENDBRANCH   8   9
BRANCH   8  28
ATOM     28  O   UNL     1      31.620  38.400  14.115  1.00  0.00    -0.388 OA
ATOM     29  H   UNL     1      32.557  38.747  14.215  1.00  0.00     0.211 HD
ENDBRANCH   8  28
ENDBRANCH   7   8
BRANCH   7  30
ATOM     30  O   UNL     1      30.459  39.866  15.597  1.00  0.00    -0.388 OA
ATOM     31  H   UNL     1      31.166  40.304  16.129  1.00  0.00     0.211 HD
ENDBRANCH   7  30
ENDBRANCH   6   7
ENDBRANCH   3   6
ENDBRANCH   1   2
BRANCH   1  32
ATOM     32  C   UNL     1      29.159  34.762  18.786  1.00  0.00     0.294 C 
BRANCH  32  33
ATOM     33  C   UNL     1      29.229  33.321  18.461  1.00  0.00     0.120 A 
ATOM     34  C   UNL     1      28.210  32.429  18.225  1.00  0.00     0.138 A 
ATOM     35  N   UNL     1      30.374  32.626  18.336  1.00  0.00    -0.132 NA
ATOM     36  N   UNL     1      28.754  31.230  17.968  1.00  0.00    -0.250 N 
ATOM     37  N   UNL     1      30.040  31.365  18.037  1.00  0.00    -0.067 NA
BRANCH  36  38
ATOM     38  C   UNL     1      28.049  29.966  17.659  1.00  0.00     0.177 C 
BRANCH  38  39
ATOM     39  C   UNL     1      27.842  29.896  16.178  1.00  0.00     0.136 C 
BRANCH  39  40
ATOM     40  O   UNL     1      29.048  30.022  15.474  1.00  0.00    -0.391 OA
ATOM     41  H   UNL     1      28.940  30.788  14.840  1.00  0.00     0.211 HD
ENDBRANCH  39  40
BRANCH  39  42
ATOM     42  C   UNL     1      26.673  30.546  15.631  1.00  0.00     0.038 C 
BRANCH  42  43
ATOM     43  C   UNL     1      25.336  30.114  16.054  1.00  0.00     0.038 C 
BRANCH  43  44
ATOM     44  C   UNL     1      24.394  29.850  14.979  1.00  0.00    -0.048 A 
ATOM     45  C   UNL     1      23.376  28.916  15.208  1.00  0.00     0.004 A 
ATOM     46  C   UNL     1      24.448  30.380  13.728  1.00  0.00     0.004 A 
ATOM     47  C   UNL     1      22.493  28.568  14.213  1.00  0.00     0.000 A 
ATOM     48  C   UNL     1      23.569  30.044  12.714  1.00  0.00     0.000 A 
ATOM     49  C   UNL     1      22.572  29.122  12.957  1.00  0.00     0.000 A 
ENDBRANCH  43  44
ENDBRANCH  42  43
ENDBRANCH  39  42
ENDBRANCH  38  39
ENDBRANCH  36  38
ENDBRANCH  32  33
ENDBRANCH   1  32
TORSDOF 20
BEGIN_RES LYS A 131
REMARK  4 active torsions:
REMARK  status: ('A' for Active; 'I' for Inactive)
REMARK    1  A    between atoms: CA   and  CB  
REMARK    2  A    between atoms: CB   and  CG  
REMARK    3  A    between atoms: CG   and  CD  
REMARK    4  A    between atoms: CD   and  CE  
ROOT
ATOM      1  CA  LYS A 131      29.867  25.555  16.977  1.00 20.52     0.186 C 
ENDROOT
BRANCH   1   2
ATOM      2  CB  LYS A 131      28.345  25.722  17.026  1.00 20.94     0.034 C 
BRANCH   2   3
ATOM      3  CG  LYS A 131      27.602  24.399  16.922  1.00 22.96     0.005 C 
BRANCH   3   4
ATOM      4  CD  LYS A 131      26.151  24.534  17.294  1.00 24.33     0.041 C 
BRANCH   4   5
ATOM      5  CE  LYS A 131      25.936  25.849  18.035  1.00 26.91     0.338 C 
ATOM      6  NZ  LYS A 131      24.628  26.443  17.668  1.00 27.40     0.618 N 
ENDBRANCH   4   5
ENDBRANCH   3   4
ENDBRANCH   2   3
ENDBRANCH   1   2
END_RES LYS A 131
BEGIN_RES LYS A 135
REMARK  4 active torsions:
REMARK  status: ('A' for Active; 'I' for Inactive)
REMARK    5  A    between atoms: CA   and  CB  
REMARK    6  A    between atoms: CB   and  CG  
REMARK    7  A    between atoms: CG   and  CD  
REMARK    8  A    between atoms: CD   and  CE  
ROOT
ATOM      7  CA  LYS A 135      33.193  34.663   9.290  1.00 25.02     0.186 C 
ENDROOT
BRANCH   7   8
ATOM      8  CB  LYS A 135      32.060  35.360  10.034  1.00 26.63     0.034 C 
BRANCH   8   9
ATOM      9  CG  LYS A 135      30.810  35.527   9.209  1.00 29.45     0.005 C 
BRANCH   9  10
ATOM     10  CD  LYS A 135      30.065  34.207   9.090  1.00 32.00     0.041 C 
BRANCH  10  11
ATOM     11  CE  LYS A 135      28.631  34.442   8.655  1.00 34.25     0.338 C 
ATOM     12  NZ  LYS A 135      27.677  33.704   9.528  1.00 35.99     0.618 N 
ENDBRANCH  10  11
ENDBRANCH   9  10
ENDBRANCH   8   9
ENDBRANCH   7   8
END_RES LYS A 135
