REMARK VINA RESULT:    -5.777      1.998      6.058
REMARK INTER + INTRA:         -14.545
REMARK INTER:                  -8.570
REMARK INTRA:                  -5.975
REMARK UNBOUND:                -4.548
REMARK SMILES CC(=O)N[C@@H]1[C@@H](O)C[C@](O)(C(=O)O)O[C@H]1C(O)[C@H](O)CNC(=O)OCc1cn(-c2ccc3c(c2)OCO3)nn1
REMARK SMILES IDX 20 1 18 2 16 3 15 4 9 5 8 6 14 7 6 8 5 9 10 10 11 12 12 13
REMARK SMILES IDX 13 14 7 16 4 18 2 19 1 21 3 22 17 23 19 25 21 27 22 28 23 30
REMARK SMILES IDX 24 31 25 32 26 33 27 34 39 35 28 36 38 37 29 38 30 39 34 40
REMARK SMILES IDX 31 41 33 42 32 43 35 44 37 45 36 46
REMARK H PARENT 10 11 13 15 7 17 4 20 17 24 19 26 21 29
REMARK Flexibility Score: inf
ROOT
ATOM      1  C   UNL     1      28.990  30.627  15.574  1.00  0.00     0.154 C 
ENDROOT
BRANCH   1   2
ATOM      2  C   UNL     1      29.560  31.624  16.527  1.00  0.00     0.165 C 
BRANCH   2   3
ATOM      3  C   UNL     1      30.515  32.591  15.807  1.00  0.00     0.176 C 
BRANCH   3   4
ATOM      4  C   UNL     1      31.152  33.439  16.848  1.00  0.00     0.178 C 
ATOM      5  C   UNL     1      30.841  34.599  18.785  1.00  0.00     0.269 C 
ATOM      6  C   UNL     1      32.339  34.739  18.621  1.00  0.00     0.112 C 
ATOM      7  O   UNL     1      30.258  33.769  17.861  1.00  0.00    -0.332 OA
ATOM      8  C   UNL     1      32.720  35.233  17.239  1.00  0.00     0.145 C 
ATOM      9  C   UNL     1      31.669  34.765  16.290  1.00  0.00     0.142 C 
BRANCH   5  10
ATOM     10  O   UNL     1      30.322  35.895  18.753  1.00  0.00    -0.357 OA
ATOM     11  H   UNL     1      29.918  36.003  17.850  1.00  0.00     0.214 HD
ENDBRANCH   5  10
BRANCH   5  12
ATOM     12  C   UNL     1      30.613  34.007  20.123  1.00  0.00     0.364 C 
ATOM     13  O   UNL     1      30.475  34.763  21.114  1.00  0.00    -0.246 OA
BRANCH  12  14
ATOM     14  O   UNL     1      30.543  32.640  20.335  1.00  0.00    -0.477 OA
ATOM     15  H   UNL     1      30.855  31.951  19.660  1.00  0.00     0.296 HD
ENDBRANCH  12  14
ENDBRANCH   5  12
BRANCH   8  16
ATOM     16  O   UNL     1      32.753  36.641  17.332  1.00  0.00    -0.391 OA
ATOM     17  H   UNL     1      32.733  37.050  16.448  1.00  0.00     0.211 HD
ENDBRANCH   8  16
BRANCH   9  18
ATOM     18  N   UNL     1      32.051  34.695  14.927  1.00  0.00    -0.348 N 
ATOM     19  C   UNL     1      32.172  35.782  14.021  1.00  0.00     0.217 C 
ATOM     20  H   UNL     1      32.271  33.753  14.536  1.00  0.00     0.163 HD
ATOM     21  C   UNL     1      32.584  35.598  12.598  1.00  0.00     0.114 C 
ATOM     22  O   UNL     1      31.915  36.925  14.462  1.00  0.00    -0.275 OA
ENDBRANCH   9  18
ENDBRANCH   3   4
BRANCH   3  23
ATOM     23  O   UNL     1      31.420  31.837  15.111  1.00  0.00    -0.388 OA
ATOM     24  H   UNL     1      32.251  32.243  14.845  1.00  0.00     0.211 HD
ENDBRANCH   3  23
ENDBRANCH   2   3
BRANCH   2  25
ATOM     25  O   UNL     1      30.255  31.024  17.542  1.00  0.00    -0.388 OA
ATOM     26  H   UNL     1      30.474  31.583  18.318  1.00  0.00     0.211 HD
ENDBRANCH   2  25
ENDBRANCH   1   2
BRANCH   1  27
ATOM     27  N   UNL     1      28.474  29.482  16.238  1.00  0.00    -0.319 N 
ATOM     28  C   UNL     1      27.112  29.300  16.528  1.00  0.00     0.407 C 
ATOM     29  H   UNL     1      29.126  28.699  16.547  1.00  0.00     0.167 HD
ATOM     30  O   UNL     1      26.207  30.107  16.259  1.00  0.00    -0.225 OA
BRANCH  28  31
ATOM     31  O   UNL     1      26.712  28.118  17.178  1.00  0.00    -0.443 OA
BRANCH  31  32
ATOM     32  C   UNL     1      26.434  28.150  18.545  1.00  0.00     0.294 C 
BRANCH  32  33
ATOM     33  C   UNL     1      27.581  28.765  19.261  1.00  0.00     0.121 A 
ATOM     34  C   UNL     1      28.594  28.087  19.931  1.00  0.00     0.144 A 
ATOM     35  N   UNL     1      27.876  30.068  19.409  1.00  0.00    -0.131 NA
ATOM     36  N   UNL     1      29.457  28.974  20.457  1.00  0.00    -0.220 N 
ATOM     37  N   UNL     1      28.986  30.161  20.117  1.00  0.00    -0.062 NA
BRANCH  36  38
ATOM     38  C   UNL     1      30.621  28.663  21.212  1.00  0.00     0.070 A 
ATOM     39  C   UNL     1      30.667  27.525  21.992  1.00  0.00     0.032 A 
ATOM     40  C   UNL     1      31.746  29.462  21.209  1.00  0.00     0.079 A 
ATOM     41  C   UNL     1      31.799  27.201  22.740  1.00  0.00     0.053 A 
ATOM     42  C   UNL     1      32.888  29.158  21.949  1.00  0.00     0.167 A 
ATOM     43  C   UNL     1      32.909  28.017  22.719  1.00  0.00     0.165 A 
ATOM     44  O   UNL     1      34.120  29.787  22.109  1.00  0.00    -0.454 OA
ATOM     45  O   UNL     1      34.170  27.976  23.339  1.00  0.00    -0.454 OA
ATOM     46  C   UNL     1      34.741  29.287  23.280  1.00  0.00     0.468 C 
ENDBRANCH  36  38
ENDBRANCH  32  33
ENDBRANCH  31  32
ENDBRANCH  28  31
ENDBRANCH   1  27
TORSDOF 15
BEGIN_RES LYS A 131
REMARK  4 active torsions:
REMARK  status: ('A' for Active; 'I' for Inactive)
REMARK    1  A    between atoms: CA   and  CB  
REMARK    2  A    between atoms: CB   and  CG  
REMARK    3  A    between atoms: CG   and  CD  
REMARK    4  A    between atoms: CD   and  CE  
ROOT
ATOM      1  CA  LYS A 131      29.867  25.555  16.977  1.00 20.52     0.186 C 
ENDROOT
BRANCH   1   2
ATOM      2  CB  LYS A 131      28.345  25.722  17.026  1.00 20.94     0.034 C 
BRANCH   2   3
ATOM      3  CG  LYS A 131      27.601  24.401  16.899  1.00 22.96     0.005 C 
BRANCH   3   4
ATOM      4  CD  LYS A 131      26.222  24.469  17.494  1.00 24.33     0.041 C 
BRANCH   4   5
ATOM      5  CE  LYS A 131      25.662  23.058  17.641  1.00 26.91     0.338 C 
ATOM      6  NZ  LYS A 131      25.178  22.832  19.024  1.00 27.40     0.618 N 
ENDBRANCH   4   5
ENDBRANCH   3   4
ENDBRANCH   2   3
ENDBRANCH   1   2
END_RES LYS A 131
BEGIN_RES LYS A 135
REMARK  4 active torsions:
REMARK  status: ('A' for Active; 'I' for Inactive)
REMARK    5  A    between atoms: CA   and  CB  
REMARK    6  A    between atoms: CB   and  CG  
REMARK    7  A    between atoms: CG   and  CD  
REMARK    8  A    between atoms: CD   and  CE  
ROOT
ATOM      7  CA  LYS A 135      33.193  34.663   9.290  1.00 25.02     0.186 C 
ENDROOT
BRANCH   7   8
ATOM      8  CB  LYS A 135      32.060  35.360  10.034  1.00 26.63     0.034 C 
BRANCH   8   9
ATOM      9  CG  LYS A 135      30.910  35.758   9.145  1.00 29.45     0.005 C 
BRANCH   9  10
ATOM     10  CD  LYS A 135      30.383  34.554   8.379  1.00 32.00     0.041 C 
BRANCH  10  11
ATOM     11  CE  LYS A 135      29.158  34.934   7.569  1.00 34.25     0.338 C 
ATOM     12  NZ  LYS A 135      28.860  36.388   7.695  1.00 35.99     0.618 N 
ENDBRANCH  10  11
ENDBRANCH   9  10
ENDBRANCH   8   9
ENDBRANCH   7   8
END_RES LYS A 135
