REMARK VINA RESULT:    -4.742      7.521     12.525
REMARK INTER + INTRA:         -14.762
REMARK INTER:                  -9.085
REMARK INTRA:                  -5.678
REMARK UNBOUND:                -6.554
REMARK SMILES CC(=O)N[C@@H]1[C@@H](O)C[C@](O)(C(=O)O)O[C@H]1C(O)[C@H](O)CNC(=O)OCc1cn(C23CC4CC(CC(C4)C2)C3)nn1
REMARK SMILES IDX 20 1 18 2 16 3 15 4 9 5 8 6 14 7 6 8 5 9 10 10 11 12 12 13
REMARK SMILES IDX 13 14 7 16 4 18 2 19 1 21 3 22 17 23 19 25 21 27 22 28 23 30
REMARK SMILES IDX 24 31 25 32 26 33 27 34 40 35 28 36 39 37 29 38 38 39 37 40
REMARK SMILES IDX 30 41 33 42 35 43 31 44 32 45 34 46 36 47
REMARK H PARENT 10 11 13 15 7 17 4 20 17 24 19 26 21 29
REMARK Flexibility Score: inf
ROOT
ATOM      1  C   UNL     1      26.142  37.204   7.337  1.00  0.00     0.154 C 
ENDROOT
BRANCH   1   2
ATOM      2  C   UNL     1      27.420  37.288   6.542  1.00  0.00     0.165 C 
BRANCH   2   3
ATOM      3  C   UNL     1      28.095  38.639   6.664  1.00  0.00     0.176 C 
BRANCH   3   4
ATOM      4  C   UNL     1      29.537  38.465   7.151  1.00  0.00     0.178 C 
ATOM      5  C   UNL     1      29.737  38.583   9.484  1.00  0.00     0.269 C 
ATOM      6  C   UNL     1      29.627  40.078   9.324  1.00  0.00     0.112 C 
ATOM      7  O   UNL     1      29.622  37.847   8.357  1.00  0.00    -0.332 OA
ATOM      8  C   UNL     1      30.522  40.530   8.223  1.00  0.00     0.145 C 
ATOM      9  C   UNL     1      30.353  39.694   6.983  1.00  0.00     0.142 C 
BRANCH   5  10
ATOM     10  O   UNL     1      28.657  38.229  10.326  1.00  0.00    -0.357 OA
ATOM     11  H   UNL     1      28.266  37.396   9.951  1.00  0.00     0.214 HD
ENDBRANCH   5  10
BRANCH   5  12
ATOM     12  C   UNL     1      30.980  38.319  10.252  1.00  0.00     0.364 C 
ATOM     13  O   UNL     1      30.986  38.224  11.510  1.00  0.00    -0.246 OA
BRANCH  12  14
ATOM     14  O   UNL     1      32.177  38.168   9.588  1.00  0.00    -0.477 OA
ATOM     15  H   UNL     1      33.067  38.490   9.973  1.00  0.00     0.296 HD
ENDBRANCH  12  14
ENDBRANCH   5  12
BRANCH   8  16
ATOM     16  O   UNL     1      30.241  41.894   7.981  1.00  0.00    -0.391 OA
ATOM     17  H   UNL     1      29.339  42.110   8.300  1.00  0.00     0.211 HD
ENDBRANCH   8  16
BRANCH   9  18
ATOM     18  N   UNL     1      31.662  39.314   6.469  1.00  0.00    -0.348 N 
ATOM     19  C   UNL     1      32.421  40.161   5.620  1.00  0.00     0.217 C 
ATOM     20  H   UNL     1      32.074  38.371   6.733  1.00  0.00     0.163 HD
ATOM     21  C   UNL     1      33.734  39.698   5.148  1.00  0.00     0.114 C 
ATOM     22  O   UNL     1      31.931  41.287   5.304  1.00  0.00    -0.275 OA
ENDBRANCH   9  18
ENDBRANCH   3   4
BRANCH   3  23
ATOM     23  O   UNL     1      28.010  39.392   5.533  1.00  0.00    -0.388 OA
ATOM     24  H   UNL     1      28.842  39.653   5.111  1.00  0.00     0.211 HD
ENDBRANCH   3  23
ENDBRANCH   2   3
BRANCH   2  25
ATOM     25  O   UNL     1      27.116  36.973   5.221  1.00  0.00    -0.388 OA
ATOM     26  H   UNL     1      26.789  36.018   5.190  1.00  0.00     0.211 HD
ENDBRANCH   2  25
ENDBRANCH   1   2
BRANCH   1  27
ATOM     27  N   UNL     1      26.513  37.203   8.741  1.00  0.00    -0.319 N 
ATOM     28  C   UNL     1      25.920  36.295   9.683  1.00  0.00     0.407 C 
ATOM     29  H   UNL     1      27.225  37.856   9.147  1.00  0.00     0.167 HD
ATOM     30  O   UNL     1      25.060  35.490   9.247  1.00  0.00    -0.225 OA
BRANCH  28  31
ATOM     31  O   UNL     1      26.261  36.282  11.014  1.00  0.00    -0.443 OA
BRANCH  31  32
ATOM     32  C   UNL     1      25.592  35.401  11.888  1.00  0.00     0.294 C 
BRANCH  32  33
ATOM     33  C   UNL     1      26.573  34.992  12.943  1.00  0.00     0.120 A 
ATOM     34  C   UNL     1      27.856  35.497  13.045  1.00  0.00     0.138 A 
ATOM     35  N   UNL     1      26.453  34.121  13.941  1.00  0.00    -0.132 NA
ATOM     36  N   UNL     1      28.444  34.918  14.082  1.00  0.00    -0.246 N 
ATOM     37  N   UNL     1      27.579  34.083  14.620  1.00  0.00    -0.066 NA
BRANCH  36  38
ATOM     38  C   UNL     1      29.816  35.190  14.517  1.00  0.00     0.065 C 
ATOM     39  C   UNL     1      30.726  34.618  13.439  1.00  0.00     0.034 C 
ATOM     40  C   UNL     1      30.097  34.541  15.837  1.00  0.00     0.034 C 
ATOM     41  C   UNL     1      30.010  36.680  14.650  1.00  0.00     0.034 C 
ATOM     42  C   UNL     1      32.171  34.890  13.813  1.00  0.00    -0.008 C 
ATOM     43  C   UNL     1      31.553  34.767  16.176  1.00  0.00    -0.008 C 
ATOM     44  C   UNL     1      31.455  36.952  15.009  1.00  0.00    -0.008 C 
ATOM     45  C   UNL     1      32.358  36.374  13.933  1.00  0.00     0.007 C 
ATOM     46  C   UNL     1      32.444  34.186  15.119  1.00  0.00     0.007 C 
ATOM     47  C   UNL     1      31.756  36.259  16.315  1.00  0.00     0.007 C 
ENDBRANCH  36  38
ENDBRANCH  32  33
ENDBRANCH  31  32
ENDBRANCH  28  31
ENDBRANCH   1  27
TORSDOF 15
BEGIN_RES LYS A 131
REMARK  4 active torsions:
REMARK  status: ('A' for Active; 'I' for Inactive)
REMARK    1  A    between atoms: CA   and  CB  
REMARK    2  A    between atoms: CB   and  CG  
REMARK    3  A    between atoms: CG   and  CD  
REMARK    4  A    between atoms: CD   and  CE  
ROOT
ATOM      1  CA  LYS A 131      29.867  25.555  16.977  1.00 20.52     0.186 C 
ENDROOT
BRANCH   1   2
ATOM      2  CB  LYS A 131      28.345  25.722  17.026  1.00 20.94     0.034 C 
BRANCH   2   3
ATOM      3  CG  LYS A 131      27.602  24.399  16.919  1.00 22.96     0.005 C 
BRANCH   3   4
ATOM      4  CD  LYS A 131      26.159  24.526  17.323  1.00 24.33     0.041 C 
BRANCH   4   5
ATOM      5  CE  LYS A 131      25.807  23.416  18.309  1.00 26.91     0.338 C 
ATOM      6  NZ  LYS A 131      25.118  22.304  17.613  1.00 27.40     0.618 N 
ENDBRANCH   4   5
ENDBRANCH   3   4
ENDBRANCH   2   3
ENDBRANCH   1   2
END_RES LYS A 131
BEGIN_RES LYS A 135
REMARK  4 active torsions:
REMARK  status: ('A' for Active; 'I' for Inactive)
REMARK    5  A    between atoms: CA   and  CB  
REMARK    6  A    between atoms: CB   and  CG  
REMARK    7  A    between atoms: CG   and  CD  
REMARK    8  A    between atoms: CD   and  CE  
ROOT
ATOM      7  CA  LYS A 135      33.193  34.663   9.290  1.00 25.02     0.186 C 
ENDROOT
BRANCH   7   8
ATOM      8  CB  LYS A 135      32.060  35.360  10.034  1.00 26.63     0.034 C 
BRANCH   8   9
ATOM      9  CG  LYS A 135      30.747  34.625   9.957  1.00 29.45     0.005 C 
BRANCH   9  10
ATOM     10  CD  LYS A 135      30.322  34.434   8.509  1.00 32.00     0.041 C 
BRANCH  10  11
ATOM     11  CE  LYS A 135      28.810  34.389   8.399  1.00 34.25     0.338 C 
ATOM     12  NZ  LYS A 135      28.206  33.722   9.585  1.00 35.99     0.618 N 
ENDBRANCH  10  11
ENDBRANCH   9  10
ENDBRANCH   8   9
ENDBRANCH   7   8
END_RES LYS A 135
