REMARK VINA RESULT:    -5.903      3.318      8.980
REMARK INTER + INTRA:         -16.296
REMARK INTER:                  -9.380
REMARK INTRA:                  -6.916
REMARK UNBOUND:                -5.216
REMARK SMILES CC(=O)N[C@@H]1[C@@H](O)C[C@](O)(C(=O)O)O[C@H]1C(O)[C@H](O)CNC(=O)OCc1cn(-c2cc(C(=O)O)nc(-c3ccccc3)c2)nn1
REMARK SMILES IDX 21 1 22 2 23 3 20 5 18 6 16 7 15 8 9 9 8 10 14 11 6 12 5 13
REMARK SMILES IDX 10 14 11 16 12 17 13 18 7 20 4 22 2 23 1 25 3 26 17 27 19 29
REMARK SMILES IDX 24 31 25 32 26 33 27 34 45 35 28 36 44 37 29 38 30 39 43 40
REMARK SMILES IDX 31 41 36 42 35 43 32 44 33 45 34 46 37 48 38 49 42 50 39 51
REMARK SMILES IDX 41 52 40 53
REMARK H PARENT 21 4 10 15 13 19 7 21 4 24 17 28 19 30 34 47
REMARK Flexibility Score: inf
ROOT
ATOM      1  N   UNL     1      22.780  41.170   8.685  1.00  0.00    -0.319 N 
ATOM      2  C   UNL     1      24.078  41.323   9.268  1.00  0.00     0.407 C 
ATOM      3  O   UNL     1      24.151  41.712  10.462  1.00  0.00    -0.225 OA
ATOM      4  H   UNL     1      22.789  40.841   7.676  1.00  0.00     0.167 HD
ENDROOT
BRANCH   1   5
ATOM      5  C   UNL     1      21.556  41.436   9.390  1.00  0.00     0.154 C 
BRANCH   5   6
ATOM      6  C   UNL     1      21.086  40.223  10.135  1.00  0.00     0.165 C 
BRANCH   6   7
ATOM      7  C   UNL     1      20.247  39.380   9.183  1.00  0.00     0.176 C 
BRANCH   7   8
ATOM      8  C   UNL     1      20.903  38.064   8.952  1.00  0.00     0.178 C 
ATOM      9  C   UNL     1      22.703  37.125   7.818  1.00  0.00     0.269 C 
ATOM     10  C   UNL     1      22.302  35.930   8.675  1.00  0.00     0.112 C 
ATOM     11  O   UNL     1      22.058  38.282   8.170  1.00  0.00    -0.332 OA
ATOM     12  C   UNL     1      20.848  35.692   8.466  1.00  0.00     0.145 C 
ATOM     13  C   UNL     1      20.112  37.029   8.227  1.00  0.00     0.142 C 
BRANCH   9  14
ATOM     14  O   UNL     1      22.388  36.733   6.494  1.00  0.00    -0.357 OA
ATOM     15  H   UNL     1      22.293  37.583   5.991  1.00  0.00     0.214 HD
ENDBRANCH   9  14
BRANCH   9  16
ATOM     16  C   UNL     1      24.155  37.371   7.890  1.00  0.00     0.364 C 
ATOM     17  O   UNL     1      24.885  36.618   8.560  1.00  0.00    -0.246 OA
BRANCH  16  18
ATOM     18  O   UNL     1      24.719  38.434   7.218  1.00  0.00    -0.477 OA
ATOM     19  H   UNL     1      24.179  39.069   6.635  1.00  0.00     0.296 HD
ENDBRANCH  16  18
ENDBRANCH   9  16
BRANCH  12  20
ATOM     20  O   UNL     1      20.562  34.789   7.466  1.00  0.00    -0.391 OA
ATOM     21  H   UNL     1      21.104  33.976   7.562  1.00  0.00     0.211 HD
ENDBRANCH  12  20
BRANCH  13  22
ATOM     22  N   UNL     1      18.744  36.871   8.641  1.00  0.00    -0.348 N 
ATOM     23  C   UNL     1      17.656  37.396   7.851  1.00  0.00     0.217 C 
ATOM     24  H   UNL     1      18.524  36.372   9.506  1.00  0.00     0.163 HD
ATOM     25  C   UNL     1      16.244  37.256   8.237  1.00  0.00     0.114 C 
ATOM     26  O   UNL     1      17.999  37.994   6.788  1.00  0.00    -0.275 OA
ENDBRANCH  13  22
ENDBRANCH   7   8
BRANCH   7  27
ATOM     27  O   UNL     1      19.888  40.034   8.036  1.00  0.00    -0.388 OA
ATOM     28  H   UNL     1      20.618  40.313   7.455  1.00  0.00     0.211 HD
ENDBRANCH   7  27
ENDBRANCH   6   7
BRANCH   6  29
ATOM     29  O   UNL     1      20.256  40.710  11.165  1.00  0.00    -0.388 OA
ATOM     30  H   UNL     1      19.628  39.984  11.360  1.00  0.00     0.211 HD
ENDBRANCH   6  29
ENDBRANCH   5   6
ENDBRANCH   1   5
BRANCH   2  31
ATOM     31  O   UNL     1      25.219  41.049   8.529  1.00  0.00    -0.443 OA
BRANCH  31  32
ATOM     32  C   UNL     1      26.470  41.178   9.174  1.00  0.00     0.294 C 
BRANCH  32  33
ATOM     33  C   UNL     1      27.021  39.807   9.336  1.00  0.00     0.121 A 
ATOM     34  C   UNL     1      26.986  39.017  10.491  1.00  0.00     0.144 A 
ATOM     35  N   UNL     1      27.662  39.023   8.437  1.00  0.00    -0.131 NA
ATOM     36  N   UNL     1      27.583  37.836  10.253  1.00  0.00    -0.220 N 
ATOM     37  N   UNL     1      27.983  37.866   9.004  1.00  0.00    -0.062 NA
BRANCH  36  38
ATOM     38  C   UNL     1      27.715  36.791  11.238  1.00  0.00     0.071 A 
ATOM     39  C   UNL     1      26.639  36.047  11.649  1.00  0.00     0.064 A 
ATOM     40  C   UNL     1      28.954  36.512  11.803  1.00  0.00     0.057 A 
ATOM     41  C   UNL     1      26.730  35.043  12.590  1.00  0.00     0.151 A 
ATOM     42  C   UNL     1      29.060  35.516  12.740  1.00  0.00     0.073 A 
ATOM     43  N   UNL     1      27.953  34.823  13.096  1.00  0.00    -0.241 NA
BRANCH  41  44
ATOM     44  C   UNL     1      25.575  34.267  13.010  1.00  0.00     0.354 C 
ATOM     45  O   UNL     1      25.665  33.551  14.026  1.00  0.00    -0.245 OA
BRANCH  44  46
ATOM     46  O   UNL     1      24.387  34.305  12.312  1.00  0.00    -0.477 OA
ATOM     47  H   UNL     1      24.018  35.164  11.889  1.00  0.00     0.297 HD
ENDBRANCH  44  46
ENDBRANCH  41  44
BRANCH  42  48
ATOM     48  C   UNL     1      30.361  35.198  13.357  1.00  0.00     0.000 A 
ATOM     49  C   UNL     1      30.378  34.318  14.417  1.00  0.00     0.010 A 
ATOM     50  C   UNL     1      31.508  35.765  12.883  1.00  0.00     0.010 A 
ATOM     51  C   UNL     1      31.590  34.020  14.995  1.00  0.00     0.001 A 
ATOM     52  C   UNL     1      32.705  35.438  13.492  1.00  0.00     0.001 A 
ATOM     53  C   UNL     1      32.777  34.565  14.554  1.00  0.00     0.000 A 
ENDBRANCH  42  48
ENDBRANCH  36  38
ENDBRANCH  32  33
ENDBRANCH  31  32
ENDBRANCH   2  31
TORSDOF 18
BEGIN_RES LYS A 131
REMARK  4 active torsions:
REMARK  status: ('A' for Active; 'I' for Inactive)
REMARK    1  A    between atoms: CA   and  CB  
REMARK    2  A    between atoms: CB   and  CG  
REMARK    3  A    between atoms: CG   and  CD  
REMARK    4  A    between atoms: CD   and  CE  
ROOT
ATOM      1  CA  LYS A 131      29.867  25.555  16.977  1.00 20.52     0.186 C 
ENDROOT
BRANCH   1   2
ATOM      2  CB  LYS A 131      28.345  25.722  17.026  1.00 20.94     0.034 C 
BRANCH   2   3
ATOM      3  CG  LYS A 131      27.601  24.402  16.897  1.00 22.96     0.005 C 
BRANCH   3   4
ATOM      4  CD  LYS A 131      26.148  24.533  17.258  1.00 24.33     0.041 C 
BRANCH   4   5
ATOM      5  CE  LYS A 131      25.632  23.198  17.788  1.00 26.91     0.338 C 
ATOM      6  NZ  LYS A 131      25.553  23.223  19.267  1.00 27.40     0.618 N 
ENDBRANCH   4   5
ENDBRANCH   3   4
ENDBRANCH   2   3
ENDBRANCH   1   2
END_RES LYS A 131
BEGIN_RES LYS A 135
REMARK  4 active torsions:
REMARK  status: ('A' for Active; 'I' for Inactive)
REMARK    5  A    between atoms: CA   and  CB  
REMARK    6  A    between atoms: CB   and  CG  
REMARK    7  A    between atoms: CG   and  CD  
REMARK    8  A    between atoms: CD   and  CE  
ROOT
ATOM      7  CA  LYS A 135      33.193  34.663   9.290  1.00 25.02     0.186 C 
ENDROOT
BRANCH   7   8
ATOM      8  CB  LYS A 135      32.060  35.360  10.034  1.00 26.63     0.034 C 
BRANCH   8   9
ATOM      9  CG  LYS A 135      30.795  35.486   9.225  1.00 29.45     0.005 C 
BRANCH   9  10
ATOM     10  CD  LYS A 135      30.096  34.140   9.109  1.00 32.00     0.041 C 
BRANCH  10  11
ATOM     11  CE  LYS A 135      28.660  34.323   8.656  1.00 34.25     0.338 C 
ATOM     12  NZ  LYS A 135      27.721  33.568   9.532  1.00 35.99     0.618 N 
ENDBRANCH  10  11
ENDBRANCH   9  10
ENDBRANCH   8   9
ENDBRANCH   7   8
END_RES LYS A 135
