REMARK VINA RESULT:    -4.319      2.968      7.340
REMARK INTER + INTRA:         -14.273
REMARK INTER:                  -7.884
REMARK INTRA:                  -6.390
REMARK UNBOUND:                -6.292
REMARK SMILES CC(=O)N[C@@H]1[C@@H](O)C[C@](O)(C(=O)O)O[C@H]1C(O)[C@H](O)CNC(=O)OCc1cn(CCC2OCCO2)nn1
REMARK SMILES IDX 21 1 22 2 23 3 20 5 18 6 16 7 15 8 9 9 8 10 14 11 6 12 5 13
REMARK SMILES IDX 10 14 11 16 12 17 13 18 7 20 4 22 2 23 1 25 3 26 17 27 19 29
REMARK SMILES IDX 24 31 25 32 26 33 27 34 37 35 28 36 36 37 29 38 30 39 31 40
REMARK SMILES IDX 32 41 35 42 33 43 34 44
REMARK H PARENT 21 4 10 15 13 19 7 21 4 24 17 28 19 30
REMARK Flexibility Score: inf
ROOT
ATOM      1  N   UNL     1      31.585  30.823  21.092  1.00  0.00    -0.319 N 
ATOM      2  C   UNL     1      32.374  31.928  21.494  1.00  0.00     0.407 C 
ATOM      3  O   UNL     1      33.599  31.738  21.803  1.00  0.00    -0.225 OA
ATOM      4  H   UNL     1      30.593  30.967  20.840  1.00  0.00     0.167 HD
ENDROOT
BRANCH   1   5
ATOM      5  C   UNL     1      32.167  29.524  21.039  1.00  0.00     0.154 C 
BRANCH   5   6
ATOM      6  C   UNL     1      31.356  28.528  20.256  1.00  0.00     0.165 C 
BRANCH   6   7
ATOM      7  C   UNL     1      30.218  27.951  21.042  1.00  0.00     0.176 C 
BRANCH   7   8
ATOM      8  C   UNL     1      28.896  28.475  20.524  1.00  0.00     0.178 C 
ATOM      9  C   UNL     1      28.056  30.184  19.189  1.00  0.00     0.269 C 
ATOM     10  C   UNL     1      26.934  30.350  20.173  1.00  0.00     0.112 C 
ATOM     11  O   UNL     1      29.151  29.517  19.672  1.00  0.00    -0.332 OA
ATOM     12  C   UNL     1      27.532  30.280  21.563  1.00  0.00     0.145 C 
ATOM     13  C   UNL     1      28.068  28.866  21.739  1.00  0.00     0.142 C 
BRANCH   9  14
ATOM     14  O   UNL     1      28.495  31.483  18.842  1.00  0.00    -0.357 OA
ATOM     15  H   UNL     1      29.358  31.465  18.386  1.00  0.00     0.214 HD
ENDBRANCH   9  14
BRANCH   9  16
ATOM     16  C   UNL     1      27.538  29.596  17.913  1.00  0.00     0.364 C 
ATOM     17  O   UNL     1      26.395  29.103  17.783  1.00  0.00    -0.246 OA
BRANCH  16  18
ATOM     18  O   UNL     1      28.393  29.607  16.820  1.00  0.00    -0.477 OA
ATOM     19  H   UNL     1      28.520  30.406  16.207  1.00  0.00     0.296 HD
ENDBRANCH  16  18
ENDBRANCH   9  16
BRANCH  12  20
ATOM     20  O   UNL     1      28.613  31.172  21.622  1.00  0.00    -0.391 OA
ATOM     21  H   UNL     1      29.455  30.720  21.866  1.00  0.00     0.211 HD
ENDBRANCH  12  20
BRANCH  13  22
ATOM     22  N   UNL     1      26.934  27.972  21.921  1.00  0.00    -0.348 N 
ATOM     23  C   UNL     1      27.053  26.879  22.816  1.00  0.00     0.217 C 
ATOM     24  H   UNL     1      26.028  28.129  21.393  1.00  0.00     0.163 HD
ATOM     25  C   UNL     1      25.955  25.912  23.069  1.00  0.00     0.114 C 
ATOM     26  O   UNL     1      28.152  26.731  23.425  1.00  0.00    -0.275 OA
ENDBRANCH  13  22
ENDBRANCH   7   8
BRANCH   7  27
ATOM     27  O   UNL     1      30.270  26.557  21.058  1.00  0.00    -0.388 OA
ATOM     28  H   UNL     1      30.313  26.173  21.959  1.00  0.00     0.211 HD
ENDBRANCH   7  27
ENDBRANCH   6   7
BRANCH   6  29
ATOM     29  O   UNL     1      32.189  27.507  19.823  1.00  0.00    -0.388 OA
ATOM     30  H   UNL     1      31.858  26.613  20.027  1.00  0.00     0.211 HD
ENDBRANCH   6  29
ENDBRANCH   5   6
ENDBRANCH   1   5
BRANCH   2  31
ATOM     31  O   UNL     1      31.920  33.213  21.582  1.00  0.00    -0.443 OA
BRANCH  31  32
ATOM     32  C   UNL     1      30.943  33.811  20.751  1.00  0.00     0.294 C 
BRANCH  32  33
ATOM     33  C   UNL     1      31.468  34.134  19.403  1.00  0.00     0.120 A 
ATOM     34  C   UNL     1      31.191  33.466  18.233  1.00  0.00     0.138 A 
ATOM     35  N   UNL     1      32.307  35.128  19.072  1.00  0.00    -0.132 NA
ATOM     36  N   UNL     1      31.867  34.070  17.231  1.00  0.00    -0.252 N 
ATOM     37  N   UNL     1      32.534  35.074  17.769  1.00  0.00    -0.067 NA
BRANCH  36  38
ATOM     38  C   UNL     1      31.888  33.729  15.815  1.00  0.00     0.151 C 
BRANCH  38  39
ATOM     39  C   UNL     1      31.201  32.402  15.577  1.00  0.00     0.086 C 
BRANCH  39  40
ATOM     40  C   UNL     1      29.819  32.593  15.050  1.00  0.00     0.251 C 
ATOM     41  O   UNL     1      29.555  33.879  14.599  1.00  0.00    -0.350 OA
ATOM     42  O   UNL     1      28.815  32.273  15.952  1.00  0.00    -0.350 OA
ATOM     43  C   UNL     1      28.171  34.031  14.638  1.00  0.00     0.192 C 
ATOM     44  C   UNL     1      27.697  32.998  15.617  1.00  0.00     0.192 C 
ENDBRANCH  39  40
ENDBRANCH  38  39
ENDBRANCH  36  38
ENDBRANCH  32  33
ENDBRANCH  31  32
ENDBRANCH   2  31
TORSDOF 17
BEGIN_RES LYS A 131
REMARK  4 active torsions:
REMARK  status: ('A' for Active; 'I' for Inactive)
REMARK    1  A    between atoms: CA   and  CB  
REMARK    2  A    between atoms: CB   and  CG  
REMARK    3  A    between atoms: CG   and  CD  
REMARK    4  A    between atoms: CD   and  CE  
ROOT
ATOM      1  CA  LYS A 131      29.867  25.555  16.977  1.00 20.52     0.186 C 
ENDROOT
BRANCH   1   2
ATOM      2  CB  LYS A 131      28.345  25.722  17.026  1.00 20.94     0.034 C 
BRANCH   2   3
ATOM      3  CG  LYS A 131      27.599  24.418  16.784  1.00 22.96     0.005 C 
BRANCH   3   4
ATOM      4  CD  LYS A 131      26.335  24.331  17.592  1.00 24.33     0.041 C 
BRANCH   4   5
ATOM      5  CE  LYS A 131      25.967  25.716  18.115  1.00 26.91     0.338 C 
ATOM      6  NZ  LYS A 131      25.435  25.626  19.495  1.00 27.40     0.618 N 
ENDBRANCH   4   5
ENDBRANCH   3   4
ENDBRANCH   2   3
ENDBRANCH   1   2
END_RES LYS A 131
BEGIN_RES LYS A 135
REMARK  4 active torsions:
REMARK  status: ('A' for Active; 'I' for Inactive)
REMARK    5  A    between atoms: CA   and  CB  
REMARK    6  A    between atoms: CB   and  CG  
REMARK    7  A    between atoms: CG   and  CD  
REMARK    8  A    between atoms: CD   and  CE  
ROOT
ATOM      7  CA  LYS A 135      33.193  34.663   9.290  1.00 25.02     0.186 C 
ENDROOT
BRANCH   7   8
ATOM      8  CB  LYS A 135      32.060  35.360  10.034  1.00 26.63     0.034 C 
BRANCH   8   9
ATOM      9  CG  LYS A 135      30.877  35.688   9.160  1.00 29.45     0.005 C 
BRANCH   9  10
ATOM     10  CD  LYS A 135      30.412  34.455   8.401  1.00 32.00     0.041 C 
BRANCH  10  11
ATOM     11  CE  LYS A 135      28.897  34.402   8.348  1.00 34.25     0.338 C 
ATOM     12  NZ  LYS A 135      28.334  33.889   9.628  1.00 35.99     0.618 N 
ENDBRANCH  10  11
ENDBRANCH   9  10
ENDBRANCH   8   9
ENDBRANCH   7   8
END_RES LYS A 135
