REMARK VINA RESULT:    -6.192      7.390     13.969
REMARK INTER + INTRA:         -15.577
REMARK INTER:                 -10.214
REMARK INTRA:                  -5.362
REMARK UNBOUND:                -3.774
REMARK SMILES CC(=O)N[C@@H]1[C@@H](O)C[C@](O)(C(=O)O)O[C@H]1C(O)[C@H](O)CNC(=O)OCc1cn(COCc2ccccc2)nn1
REMARK SMILES IDX 21 1 22 2 23 3 20 5 18 6 16 7 15 8 9 9 8 10 14 11 6 12 5 13
REMARK SMILES IDX 10 14 11 16 12 17 13 18 7 20 4 22 2 23 1 25 3 26 17 27 19 29
REMARK SMILES IDX 24 31 25 32 26 33 27 34 39 35 28 36 38 37 29 38 30 39 31 40
REMARK SMILES IDX 32 41 33 42 37 43 34 44 36 45 35 46
REMARK H PARENT 21 4 10 15 13 19 7 21 4 24 17 28 19 30
REMARK Flexibility Score: inf
ROOT
ATOM      1  N   UNL     1      30.455  31.257  16.433  1.00  0.00    -0.319 N 
ATOM      2  C   UNL     1      30.569  32.620  16.030  1.00  0.00     0.407 C 
ATOM      3  O   UNL     1      29.749  33.496  16.442  1.00  0.00    -0.225 OA
ATOM      4  H   UNL     1      31.141  30.571  16.079  1.00  0.00     0.167 HD
ENDROOT
BRANCH   1   5
ATOM      5  C   UNL     1      29.368  30.920  17.330  1.00  0.00     0.154 C 
BRANCH   5   6
ATOM      6  C   UNL     1      29.796  30.935  18.772  1.00  0.00     0.165 C 
BRANCH   6   7
ATOM      7  C   UNL     1      29.010  29.906  19.556  1.00  0.00     0.176 C 
BRANCH   7   8
ATOM      8  C   UNL     1      29.799  29.300  20.669  1.00  0.00     0.178 C 
ATOM      9  C   UNL     1      31.929  29.360  21.610  1.00  0.00     0.269 C 
ATOM     10  C   UNL     1      31.573  27.995  22.182  1.00  0.00     0.112 C 
ATOM     11  O   UNL     1      31.117  29.729  20.544  1.00  0.00    -0.332 OA
ATOM     12  C   UNL     1      31.036  27.169  21.034  1.00  0.00     0.145 C 
ATOM     13  C   UNL     1      29.697  27.790  20.671  1.00  0.00     0.142 C 
BRANCH   9  14
ATOM     14  O   UNL     1      33.212  29.221  21.085  1.00  0.00    -0.357 OA
ATOM     15  H   UNL     1      33.610  30.093  20.836  1.00  0.00     0.214 HD
ENDBRANCH   9  14
BRANCH   9  16
ATOM     16  C   UNL     1      31.962  30.373  22.673  1.00  0.00     0.364 C 
ATOM     17  O   UNL     1      32.177  30.018  23.858  1.00  0.00    -0.246 OA
BRANCH  16  18
ATOM     18  O   UNL     1      31.765  31.730  22.446  1.00  0.00    -0.477 OA
ATOM     19  H   UNL     1      32.492  32.371  22.750  1.00  0.00     0.296 HD
ENDBRANCH  16  18
ENDBRANCH   9  16
BRANCH  12  20
ATOM     20  O   UNL     1      31.896  27.191  19.940  1.00  0.00    -0.391 OA
ATOM     21  H   UNL     1      32.721  27.707  20.196  1.00  0.00     0.211 HD
ENDBRANCH  12  20
BRANCH  13  22
ATOM     22  N   UNL     1      28.753  27.381  21.689  1.00  0.00    -0.348 N 
ATOM     23  C   UNL     1      27.435  26.997  21.326  1.00  0.00     0.217 C 
ATOM     24  H   UNL     1      28.985  27.347  22.712  1.00  0.00     0.163 HD
ATOM     25  C   UNL     1      26.425  26.567  22.332  1.00  0.00     0.114 C 
ATOM     26  O   UNL     1      27.073  27.007  20.121  1.00  0.00    -0.275 OA
ENDBRANCH  13  22
ENDBRANCH   7   8
BRANCH   7  27
ATOM     27  O   UNL     1      28.436  29.005  18.693  1.00  0.00    -0.388 OA
ATOM     28  H   UNL     1      29.174  28.470  18.284  1.00  0.00     0.211 HD
ENDBRANCH   7  27
ENDBRANCH   6   7
BRANCH   6  29
ATOM     29  O   UNL     1      29.615  32.214  19.283  1.00  0.00    -0.388 OA
ATOM     30  H   UNL     1      29.102  32.767  18.636  1.00  0.00     0.211 HD
ENDBRANCH   6  29
ENDBRANCH   5   6
ENDBRANCH   1   5
BRANCH   2  31
ATOM     31  O   UNL     1      31.571  33.058  15.175  1.00  0.00    -0.443 OA
BRANCH  31  32
ATOM     32  C   UNL     1      31.804  34.417  14.867  1.00  0.00     0.294 C 
BRANCH  32  33
ATOM     33  C   UNL     1      32.796  35.047  15.765  1.00  0.00     0.120 A 
ATOM     34  C   UNL     1      34.077  35.494  15.520  1.00  0.00     0.141 A 
ATOM     35  N   UNL     1      32.584  35.300  17.068  1.00  0.00    -0.132 NA
ATOM     36  N   UNL     1      34.602  35.999  16.664  1.00  0.00    -0.226 N 
ATOM     37  N   UNL     1      33.659  35.860  17.577  1.00  0.00    -0.065 NA
BRANCH  36  38
ATOM     38  C   UNL     1      35.940  36.582  16.852  1.00  0.00     0.307 C 
BRANCH  38  39
ATOM     39  O   UNL     1      36.896  35.575  16.759  1.00  0.00    -0.355 OA
BRANCH  39  40
ATOM     40  C   UNL     1      38.016  35.971  16.067  1.00  0.00     0.198 C 
BRANCH  40  41
ATOM     41  C   UNL     1      38.306  35.172  14.860  1.00  0.00    -0.022 A 
ATOM     42  C   UNL     1      39.385  35.499  14.064  1.00  0.00     0.006 A 
ATOM     43  C   UNL     1      37.525  34.099  14.512  1.00  0.00     0.006 A 
ATOM     44  C   UNL     1      39.683  34.753  12.921  1.00  0.00     0.000 A 
ATOM     45  C   UNL     1      37.824  33.362  13.377  1.00  0.00     0.000 A 
ATOM     46  C   UNL     1      38.884  33.676  12.587  1.00  0.00     0.000 A 
ENDBRANCH  40  41
ENDBRANCH  39  40
ENDBRANCH  38  39
ENDBRANCH  36  38
ENDBRANCH  32  33
ENDBRANCH  31  32
ENDBRANCH   2  31
TORSDOF 18
BEGIN_RES LYS A 131
REMARK  4 active torsions:
REMARK  status: ('A' for Active; 'I' for Inactive)
REMARK    1  A    between atoms: CA   and  CB  
REMARK    2  A    between atoms: CB   and  CG  
REMARK    3  A    between atoms: CG   and  CD  
REMARK    4  A    between atoms: CD   and  CE  
ROOT
ATOM      1  CA  LYS A 131      29.867  25.555  16.977  1.00 20.52     0.186 C 
ENDROOT
BRANCH   1   2
ATOM      2  CB  LYS A 131      28.345  25.722  17.026  1.00 20.94     0.034 C 
BRANCH   2   3
ATOM      3  CG  LYS A 131      27.601  24.403  16.886  1.00 22.96     0.005 C 
BRANCH   3   4
ATOM      4  CD  LYS A 131      26.614  24.188  18.000  1.00 24.33     0.041 C 
BRANCH   4   5
ATOM      5  CE  LYS A 131      25.587  23.143  17.576  1.00 26.91     0.338 C 
ATOM      6  NZ  LYS A 131      24.418  23.794  16.939  1.00 27.40     0.618 N 
ENDBRANCH   4   5
ENDBRANCH   3   4
ENDBRANCH   2   3
ENDBRANCH   1   2
END_RES LYS A 131
BEGIN_RES LYS A 135
REMARK  4 active torsions:
REMARK  status: ('A' for Active; 'I' for Inactive)
REMARK    5  A    between atoms: CA   and  CB  
REMARK    6  A    between atoms: CB   and  CG  
REMARK    7  A    between atoms: CG   and  CD  
REMARK    8  A    between atoms: CD   and  CE  
ROOT
ATOM      7  CA  LYS A 135      33.193  34.663   9.290  1.00 25.02     0.186 C 
ENDROOT
BRANCH   7   8
ATOM      8  CB  LYS A 135      32.060  35.360  10.034  1.00 26.63     0.034 C 
BRANCH   8   9
ATOM      9  CG  LYS A 135      30.803  35.507   9.216  1.00 29.45     0.005 C 
BRANCH   9  10
ATOM     10  CD  LYS A 135      30.137  34.156   9.008  1.00 32.00     0.041 C 
BRANCH  10  11
ATOM     11  CE  LYS A 135      28.681  34.334   8.622  1.00 34.25     0.338 C 
ATOM     12  NZ  LYS A 135      27.778  33.724   9.636  1.00 35.99     0.618 N 
ENDBRANCH  10  11
ENDBRANCH   9  10
ENDBRANCH   8   9
ENDBRANCH   7   8
END_RES LYS A 135
