REMARK VINA RESULT:    -3.824      2.173      6.033
REMARK INTER + INTRA:         -14.630
REMARK INTER:                  -7.472
REMARK INTRA:                  -7.158
REMARK UNBOUND:                -7.565
REMARK SMILES CC(=O)N[C@@H]1[C@@H](O)C[C@](O)(C(=O)O)O[C@H]1C(O)[C@H](O)CNC(=O)OCc1cn(CC(=O)Nc2ncccn2)nn1
REMARK SMILES IDX 21 1 22 2 23 3 20 5 18 6 16 7 15 8 9 9 8 10 14 11 6 12 5 13
REMARK SMILES IDX 10 14 11 16 12 17 13 18 7 20 4 22 2 23 1 25 3 26 17 27 19 29
REMARK SMILES IDX 24 31 25 32 26 33 27 34 40 35 28 36 39 37 29 38 30 39 31 40
REMARK SMILES IDX 32 41 33 43 34 44 38 45 35 46 37 47 36 48
REMARK H PARENT 21 4 10 15 13 19 7 21 4 24 17 28 19 30 32 42
REMARK Flexibility Score: inf
ROOT
ATOM      1  N   UNL     1      26.496  35.237  11.876  1.00  0.00    -0.319 N 
ATOM      2  C   UNL     1      25.330  35.991  12.246  1.00  0.00     0.407 C 
ATOM      3  O   UNL     1      25.434  37.115  12.798  1.00  0.00    -0.225 OA
ATOM      4  H   UNL     1      26.390  34.315  11.422  1.00  0.00     0.167 HD
ENDROOT
BRANCH   1   5
ATOM      5  C   UNL     1      27.781  35.813  12.160  1.00  0.00     0.154 C 
BRANCH   5   6
ATOM      6  C   UNL     1      28.693  34.893  12.935  1.00  0.00     0.165 C 
BRANCH   6   7
ATOM      7  C   UNL     1      28.112  34.750  14.321  1.00  0.00     0.176 C 
BRANCH   7   8
ATOM      8  C   UNL     1      29.170  34.266  15.316  1.00  0.00     0.178 C 
ATOM      9  C   UNL     1      31.053  33.035  15.498  1.00  0.00     0.269 C 
ATOM     10  C   UNL     1      30.723  32.759  16.919  1.00  0.00     0.112 C 
ATOM     11  O   UNL     1      29.934  33.273  14.753  1.00  0.00    -0.332 OA
ATOM     12  C   UNL     1      29.251  32.680  17.246  1.00  0.00     0.145 C 
ATOM     13  C   UNL     1      28.444  33.733  16.540  1.00  0.00     0.142 C 
BRANCH   9  14
ATOM     14  O   UNL     1      31.623  31.849  14.922  1.00  0.00    -0.357 OA
ATOM     15  H   UNL     1      32.585  31.809  15.178  1.00  0.00     0.214 HD
ENDBRANCH   9  14
BRANCH   9  16
ATOM     16  C   UNL     1      32.123  34.065  15.355  1.00  0.00     0.364 C 
ATOM     17  O   UNL     1      32.586  34.640  16.341  1.00  0.00    -0.246 OA
BRANCH  16  18
ATOM     18  O   UNL     1      32.637  34.417  14.105  1.00  0.00    -0.477 OA
ATOM     19  H   UNL     1      33.241  33.806  13.584  1.00  0.00     0.296 HD
ENDBRANCH  16  18
ENDBRANCH   9  16
BRANCH  12  20
ATOM     20  O   UNL     1      28.829  31.395  16.896  1.00  0.00    -0.391 OA
ATOM     21  H   UNL     1      28.368  31.388  16.010  1.00  0.00     0.211 HD
ENDBRANCH  12  20
BRANCH  13  22
ATOM     22  N   UNL     1      28.042  34.829  17.351  1.00  0.00    -0.348 N 
ATOM     23  C   UNL     1      26.809  34.917  18.046  1.00  0.00     0.217 C 
ATOM     24  H   UNL     1      28.685  35.650  17.463  1.00  0.00     0.163 HD
ATOM     25  C   UNL     1      26.448  36.105  18.879  1.00  0.00     0.114 C 
ATOM     26  O   UNL     1      26.018  33.963  17.940  1.00  0.00    -0.275 OA
ENDBRANCH  13  22
ENDBRANCH   7   8
BRANCH   7  27
ATOM     27  O   UNL     1      27.526  35.921  14.761  1.00  0.00    -0.388 OA
ATOM     28  H   UNL     1      28.189  36.398  15.347  1.00  0.00     0.211 HD
ENDBRANCH   7  27
ENDBRANCH   6   7
BRANCH   6  29
ATOM     29  O   UNL     1      29.957  35.478  12.965  1.00  0.00    -0.388 OA
ATOM     30  H   UNL     1      29.880  36.362  12.515  1.00  0.00     0.211 HD
ENDBRANCH   6  29
ENDBRANCH   5   6
ENDBRANCH   1   5
BRANCH   2  31
ATOM     31  O   UNL     1      24.063  35.509  12.009  1.00  0.00    -0.443 OA
BRANCH  31  32
ATOM     32  C   UNL     1      23.162  35.044  12.971  1.00  0.00     0.294 C 
BRANCH  32  33
ATOM     33  C   UNL     1      23.699  33.836  13.632  1.00  0.00     0.120 A 
ATOM     34  C   UNL     1      23.682  32.529  13.190  1.00  0.00     0.138 A 
ATOM     35  N   UNL     1      24.325  33.832  14.820  1.00  0.00    -0.132 NA
ATOM     36  N   UNL     1      24.290  31.791  14.117  1.00  0.00    -0.243 N 
ATOM     37  N   UNL     1      24.666  32.606  15.086  1.00  0.00    -0.067 NA
BRANCH  36  38
ATOM     38  C   UNL     1      24.492  30.341  14.023  1.00  0.00     0.246 C 
BRANCH  38  39
ATOM     39  C   UNL     1      24.774  29.783  15.379  1.00  0.00     0.248 C 
ATOM     40  O   UNL     1      23.929  29.219  16.093  1.00  0.00    -0.272 OA
ATOM     41  N   UNL     1      26.108  29.907  15.887  1.00  0.00    -0.293 N 
ATOM     42  H   UNL     1      26.840  30.378  15.308  1.00  0.00     0.173 HD
BRANCH  41  43
ATOM     43  C   UNL     1      26.474  29.404  17.157  1.00  0.00     0.229 A 
ATOM     44  N   UNL     1      26.893  28.141  17.363  1.00  0.00    -0.221 NA
ATOM     45  N   UNL     1      26.415  30.203  18.241  1.00  0.00    -0.221 NA
ATOM     46  C   UNL     1      27.237  27.689  18.585  1.00  0.00     0.117 A 
ATOM     47  C   UNL     1      26.741  29.818  19.472  1.00  0.00     0.117 A 
ATOM     48  C   UNL     1      27.170  28.523  19.683  1.00  0.00     0.040 A 
ENDBRANCH  41  43
ENDBRANCH  38  39
ENDBRANCH  36  38
ENDBRANCH  32  33
ENDBRANCH  31  32
ENDBRANCH   2  31
TORSDOF 17
BEGIN_RES LYS A 131
REMARK  4 active torsions:
REMARK  status: ('A' for Active; 'I' for Inactive)
REMARK    1  A    between atoms: CA   and  CB  
REMARK    2  A    between atoms: CB   and  CG  
REMARK    3  A    between atoms: CG   and  CD  
REMARK    4  A    between atoms: CD   and  CE  
ROOT
ATOM      1  CA  LYS A 131      29.867  25.555  16.977  1.00 20.52     0.186 C 
ENDROOT
BRANCH   1   2
ATOM      2  CB  LYS A 131      28.345  25.722  17.026  1.00 20.94     0.034 C 
BRANCH   2   3
ATOM      3  CG  LYS A 131      27.599  24.423  16.763  1.00 22.96     0.005 C 
BRANCH   3   4
ATOM      4  CD  LYS A 131      26.774  23.994  17.944  1.00 24.33     0.041 C 
BRANCH   4   5
ATOM      5  CE  LYS A 131      25.320  23.825  17.515  1.00 26.91     0.338 C 
ATOM      6  NZ  LYS A 131      24.686  25.147  17.298  1.00 27.40     0.618 N 
ENDBRANCH   4   5
ENDBRANCH   3   4
ENDBRANCH   2   3
ENDBRANCH   1   2
END_RES LYS A 131
BEGIN_RES LYS A 135
REMARK  4 active torsions:
REMARK  status: ('A' for Active; 'I' for Inactive)
REMARK    5  A    between atoms: CA   and  CB  
REMARK    6  A    between atoms: CB   and  CG  
REMARK    7  A    between atoms: CG   and  CD  
REMARK    8  A    between atoms: CD   and  CE  
ROOT
ATOM      7  CA  LYS A 135      33.193  34.663   9.290  1.00 25.02     0.186 C 
ENDROOT
BRANCH   7   8
ATOM      8  CB  LYS A 135      32.060  35.360  10.034  1.00 26.63     0.034 C 
BRANCH   8   9
ATOM      9  CG  LYS A 135      30.706  34.751   9.776  1.00 29.45     0.005 C 
BRANCH   9  10
ATOM     10  CD  LYS A 135      30.501  34.509   8.289  1.00 32.00     0.041 C 
BRANCH  10  11
ATOM     11  CE  LYS A 135      29.087  34.875   7.879  1.00 34.25     0.338 C 
ATOM     12  NZ  LYS A 135      28.965  36.338   7.625  1.00 35.99     0.618 N 
ENDBRANCH  10  11
ENDBRANCH   9  10
ENDBRANCH   8   9
ENDBRANCH   7   8
END_RES LYS A 135
