REMARK VINA RESULT:    -3.947      4.219      7.066
REMARK INTER + INTRA:         -14.489
REMARK INTER:                  -8.325
REMARK INTRA:                  -6.164
REMARK UNBOUND:                -7.426
REMARK SMILES CC(=O)N[C@@H]1[C@@H](O)C[C@](O)(C(=O)O)O[C@H]1C(O)[C@H](O)CNC(=O)OCc1cn(Cc2ccccc2Br)nn1
REMARK SMILES IDX 21 1 22 2 23 3 20 5 18 6 16 7 15 8 9 9 8 10 14 11 6 12 5 13
REMARK SMILES IDX 10 14 11 16 12 17 13 18 7 20 4 22 2 23 1 25 3 26 17 27 19 29
REMARK SMILES IDX 24 31 25 32 26 33 27 34 38 35 28 36 37 37 29 38 30 39 31 40
REMARK SMILES IDX 35 41 32 42 34 43 36 44 33 45
REMARK H PARENT 21 4 10 15 13 19 7 21 4 24 17 28 19 30
REMARK Flexibility Score: inf
ROOT
ATOM      1  N   UNL     1      28.620  31.385  16.755  1.00  0.00    -0.319 N 
ATOM      2  C   UNL     1      27.767  30.366  17.192  1.00  0.00     0.407 C 
ATOM      3  O   UNL     1      27.796  29.247  16.609  1.00  0.00    -0.225 OA
ATOM      4  H   UNL     1      28.567  32.308  17.270  1.00  0.00     0.167 HD
ENDROOT
BRANCH   1   5
ATOM      5  C   UNL     1      29.558  31.269  15.659  1.00  0.00     0.154 C 
BRANCH   5   6
ATOM      6  C   UNL     1      30.287  32.583  15.479  1.00  0.00     0.165 C 
BRANCH   6   7
ATOM      7  C   UNL     1      29.496  33.537  14.610  1.00  0.00     0.176 C 
BRANCH   7   8
ATOM      8  C   UNL     1      30.041  34.950  14.673  1.00  0.00     0.178 C 
ATOM      9  C   UNL     1      31.587  36.311  13.578  1.00  0.00     0.269 C 
ATOM     10  C   UNL     1      32.277  36.654  14.843  1.00  0.00     0.112 C 
ATOM     11  O   UNL     1      30.975  35.072  13.689  1.00  0.00    -0.332 OA
ATOM     12  C   UNL     1      31.915  35.885  16.054  1.00  0.00     0.145 C 
ATOM     13  C   UNL     1      30.540  35.282  16.051  1.00  0.00     0.142 C 
BRANCH   9  14
ATOM     14  O   UNL     1      32.563  36.144  12.562  1.00  0.00    -0.357 OA
ATOM     15  H   UNL     1      33.450  36.479  12.861  1.00  0.00     0.214 HD
ENDBRANCH   9  14
BRANCH   9  16
ATOM     16  C   UNL     1      30.680  37.375  13.146  1.00  0.00     0.364 C 
ATOM     17  O   UNL     1      30.489  38.433  13.807  1.00  0.00    -0.246 OA
BRANCH  16  18
ATOM     18  O   UNL     1      29.985  37.233  11.953  1.00  0.00    -0.477 OA
ATOM     19  H   UNL     1      28.981  37.346  11.883  1.00  0.00     0.296 HD
ENDBRANCH  16  18
ENDBRANCH   9  16
BRANCH  12  20
ATOM     20  O   UNL     1      32.889  34.904  16.319  1.00  0.00    -0.391 OA
ATOM     21  H   UNL     1      32.372  34.147  16.741  1.00  0.00     0.211 HD
ENDBRANCH  12  20
BRANCH  13  22
ATOM     22  N   UNL     1      29.604  36.094  16.796  1.00  0.00    -0.348 N 
ATOM     23  C   UNL     1      28.693  35.547  17.734  1.00  0.00     0.217 C 
ATOM     24  H   UNL     1      29.589  37.123  16.649  1.00  0.00     0.163 HD
ATOM     25  C   UNL     1      27.722  36.370  18.510  1.00  0.00     0.114 C 
ATOM     26  O   UNL     1      28.732  34.281  17.898  1.00  0.00    -0.275 OA
ENDBRANCH  13  22
ENDBRANCH   7   8
BRANCH   7  27
ATOM     27  O   UNL     1      28.149  33.479  14.951  1.00  0.00    -0.388 OA
ATOM     28  H   UNL     1      27.753  32.648  14.544  1.00  0.00     0.211 HD
ENDBRANCH   7  27
ENDBRANCH   6   7
BRANCH   6  29
ATOM     29  O   UNL     1      31.508  32.246  14.847  1.00  0.00    -0.388 OA
ATOM     30  H   UNL     1      31.587  32.646  13.967  1.00  0.00     0.211 HD
ENDBRANCH   6  29
ENDBRANCH   5   6
ENDBRANCH   1   5
BRANCH   2  31
ATOM     31  O   UNL     1      26.871  30.489  18.243  1.00  0.00    -0.443 OA
BRANCH  31  32
ATOM     32  C   UNL     1      25.499  30.736  17.985  1.00  0.00     0.294 C 
BRANCH  32  33
ATOM     33  C   UNL     1      25.308  31.451  16.706  1.00  0.00     0.120 A 
ATOM     34  C   UNL     1      24.828  30.910  15.504  1.00  0.00     0.138 A 
ATOM     35  N   UNL     1      25.543  32.733  16.407  1.00  0.00    -0.132 NA
ATOM     36  N   UNL     1      24.787  31.830  14.555  1.00  0.00    -0.248 N 
ATOM     37  N   UNL     1      25.240  32.961  15.147  1.00  0.00    -0.067 NA
BRANCH  36  38
ATOM     38  C   UNL     1      24.402  31.831  13.163  1.00  0.00     0.182 C 
BRANCH  38  39
ATOM     39  C   UNL     1      22.974  31.713  12.900  1.00  0.00    -0.012 A 
ATOM     40  C   UNL     1      22.154  32.843  12.857  1.00  0.00     0.007 A 
ATOM     41  C   UNL     1      22.376  30.511  12.652  1.00  0.00     0.023 A 
ATOM     42  C   UNL     1      20.822  32.717  12.576  1.00  0.00     0.000 A 
ATOM     43  C   UNL     1      21.028  30.387  12.369  1.00  0.00     0.016 A 
ATOM     44  Br  UNL     1      23.381  28.865  12.729  1.00  0.00    -0.050 Br
ATOM     45  C   UNL     1      20.231  31.503  12.327  1.00  0.00     0.001 A 
ENDBRANCH  38  39
ENDBRANCH  36  38
ENDBRANCH  32  33
ENDBRANCH  31  32
ENDBRANCH   2  31
TORSDOF 16
BEGIN_RES LYS A 131
REMARK  4 active torsions:
REMARK  status: ('A' for Active; 'I' for Inactive)
REMARK    1  A    between atoms: CA   and  CB  
REMARK    2  A    between atoms: CB   and  CG  
REMARK    3  A    between atoms: CG   and  CD  
REMARK    4  A    between atoms: CD   and  CE  
ROOT
ATOM      1  CA  LYS A 131      29.867  25.555  16.977  1.00 20.52     0.186 C 
ENDROOT
BRANCH   1   2
ATOM      2  CB  LYS A 131      28.345  25.722  17.026  1.00 20.94     0.034 C 
BRANCH   2   3
ATOM      3  CG  LYS A 131      27.601  24.401  16.905  1.00 22.96     0.005 C 
BRANCH   3   4
ATOM      4  CD  LYS A 131      26.643  24.184  18.043  1.00 24.33     0.041 C 
BRANCH   4   5
ATOM      5  CE  LYS A 131      26.175  25.533  18.578  1.00 26.91     0.338 C 
ATOM      6  NZ  LYS A 131      24.838  25.872  18.034  1.00 27.40     0.618 N 
ENDBRANCH   4   5
ENDBRANCH   3   4
ENDBRANCH   2   3
ENDBRANCH   1   2
END_RES LYS A 131
BEGIN_RES LYS A 135
REMARK  4 active torsions:
REMARK  status: ('A' for Active; 'I' for Inactive)
REMARK    5  A    between atoms: CA   and  CB  
REMARK    6  A    between atoms: CB   and  CG  
REMARK    7  A    between atoms: CG   and  CD  
REMARK    8  A    between atoms: CD   and  CE  
ROOT
ATOM      7  CA  LYS A 135      33.193  34.663   9.290  1.00 25.02     0.186 C 
ENDROOT
BRANCH   7   8
ATOM      8  CB  LYS A 135      32.060  35.360  10.034  1.00 26.63     0.034 C 
BRANCH   8   9
ATOM      9  CG  LYS A 135      30.710  34.732   9.801  1.00 29.45     0.005 C 
BRANCH   9  10
ATOM     10  CD  LYS A 135      30.461  34.533   8.314  1.00 32.00     0.041 C 
BRANCH  10  11
ATOM     11  CE  LYS A 135      29.014  34.831   7.971  1.00 34.25     0.338 C 
ATOM     12  NZ  LYS A 135      28.907  35.547   6.670  1.00 35.99     0.618 N 
ENDBRANCH  10  11
ENDBRANCH   9  10
ENDBRANCH   8   9
ENDBRANCH   7   8
END_RES LYS A 135
