REMARK VINA RESULT:    -5.259      0.000      0.000
REMARK INTER + INTRA:         -15.656
REMARK INTER:                 -10.209
REMARK INTRA:                  -5.447
REMARK UNBOUND:                -6.554
REMARK SMILES CC(=O)N[C@@H]1[C@@H](O)C[C@](O)(C(=O)O)O[C@H]1C(O)[C@H](O)CNC(=O)OCc1cn(C23CC4CC(CC(C4)C2)C3)nn1
REMARK SMILES IDX 20 1 18 2 16 3 15 4 9 5 8 6 14 7 6 8 5 9 10 10 11 12 12 13
REMARK SMILES IDX 13 14 7 16 4 18 2 19 1 21 3 22 17 23 19 25 21 27 22 28 23 30
REMARK SMILES IDX 24 31 25 32 26 33 27 34 40 35 28 36 39 37 29 38 38 39 37 40
REMARK SMILES IDX 30 41 33 42 35 43 31 44 32 45 34 46 36 47
REMARK H PARENT 10 11 13 15 7 17 4 20 17 24 19 26 21 29
REMARK Flexibility Score: inf
ROOT
ATOM      1  C   UNL     1      26.970  28.558  19.988  1.00  0.00     0.154 C 
ENDROOT
BRANCH   1   2
ATOM      2  C   UNL     1      28.325  28.200  20.543  1.00  0.00     0.165 C 
BRANCH   2   3
ATOM      3  C   UNL     1      29.251  29.396  20.637  1.00  0.00     0.176 C 
BRANCH   3   4
ATOM      4  C   UNL     1      29.956  29.411  21.997  1.00  0.00     0.178 C 
ATOM      5  C   UNL     1      32.196  28.726  21.876  1.00  0.00     0.269 C 
ATOM      6  C   UNL     1      31.662  27.317  21.803  1.00  0.00     0.112 C 
ATOM      7  O   UNL     1      31.277  29.716  21.910  1.00  0.00    -0.332 OA
ATOM      8  C   UNL     1      30.617  27.125  22.845  1.00  0.00     0.145 C 
ATOM      9  C   UNL     1      29.607  28.241  22.840  1.00  0.00     0.142 C 
BRANCH   5  10
ATOM     10  O   UNL     1      32.944  28.891  20.686  1.00  0.00    -0.357 OA
ATOM     11  H   UNL     1      32.328  28.691  19.933  1.00  0.00     0.214 HD
ENDBRANCH   5  10
BRANCH   5  12
ATOM     12  C   UNL     1      33.166  28.766  22.998  1.00  0.00     0.364 C 
ATOM     13  O   UNL     1      32.990  29.492  24.015  1.00  0.00    -0.246 OA
BRANCH  12  14
ATOM     14  O   UNL     1      34.305  27.991  22.949  1.00  0.00    -0.477 OA
ATOM     15  H   UNL     1      34.589  27.378  23.714  1.00  0.00     0.296 HD
ENDBRANCH  12  14
ENDBRANCH   5  12
BRANCH   8  16
ATOM     16  O   UNL     1      30.014  25.867  22.614  1.00  0.00    -0.391 OA
ATOM     17  H   UNL     1      30.541  25.360  21.960  1.00  0.00     0.211 HD
ENDBRANCH   8  16
BRANCH   9  18
ATOM     18  N   UNL     1      29.383  28.702  24.204  1.00  0.00    -0.348 N 
ATOM     19  C   UNL     1      28.082  28.869  24.746  1.00  0.00     0.217 C 
ATOM     20  H   UNL     1      30.216  28.925  24.824  1.00  0.00     0.163 HD
ATOM     21  C   UNL     1      27.949  29.339  26.133  1.00  0.00     0.114 C 
ATOM     22  O   UNL     1      27.086  28.604  24.007  1.00  0.00    -0.275 OA
ENDBRANCH   9  18
ENDBRANCH   3   4
BRANCH   3  23
ATOM     23  O   UNL     1      30.121  29.493  19.594  1.00  0.00    -0.388 OA
ATOM     24  H   UNL     1      29.959  28.922  18.828  1.00  0.00     0.211 HD
ENDBRANCH   3  23
ENDBRANCH   2   3
BRANCH   2  25
ATOM     25  O   UNL     1      28.855  27.192  19.744  1.00  0.00    -0.388 OA
ATOM     26  H   UNL     1      29.401  26.577  20.331  1.00  0.00     0.211 HD
ENDBRANCH   2  25
ENDBRANCH   1   2
BRANCH   1  27
ATOM     27  N   UNL     1      27.183  29.551  18.950  1.00  0.00    -0.319 N 
ATOM     28  C   UNL     1      27.247  29.196  17.560  1.00  0.00     0.407 C 
ATOM     29  H   UNL     1      27.301  30.573  19.150  1.00  0.00     0.167 HD
ATOM     30  O   UNL     1      27.110  27.982  17.267  1.00  0.00    -0.225 OA
BRANCH  28  31
ATOM     31  O   UNL     1      27.447  30.124  16.568  1.00  0.00    -0.443 OA
BRANCH  31  32
ATOM     32  C   UNL     1      28.526  29.955  15.674  1.00  0.00     0.294 C 
BRANCH  32  33
ATOM     33  C   UNL     1      29.493  31.070  15.930  1.00  0.00     0.120 A 
ATOM     34  C   UNL     1      29.665  32.154  15.090  1.00  0.00     0.138 A 
ATOM     35  N   UNL     1      30.342  31.261  16.936  1.00  0.00    -0.132 NA
ATOM     36  N   UNL     1      30.595  32.938  15.616  1.00  0.00    -0.246 N 
ATOM     37  N   UNL     1      30.999  32.384  16.740  1.00  0.00    -0.066 NA
BRANCH  36  38
ATOM     38  C   UNL     1      31.059  34.192  15.017  1.00  0.00     0.065 C 
ATOM     39  C   UNL     1      30.505  34.218  13.599  1.00  0.00     0.034 C 
ATOM     40  C   UNL     1      32.555  34.251  14.995  1.00  0.00     0.034 C 
ATOM     41  C   UNL     1      30.533  35.354  15.822  1.00  0.00     0.034 C 
ATOM     42  C   UNL     1      30.928  35.509  12.925  1.00  0.00    -0.008 C 
ATOM     43  C   UNL     1      32.969  35.513  14.271  1.00  0.00    -0.008 C 
ATOM     44  C   UNL     1      30.941  36.642  15.141  1.00  0.00    -0.008 C 
ATOM     45  C   UNL     1      30.391  36.659  13.726  1.00  0.00     0.007 C 
ATOM     46  C   UNL     1      32.435  35.524  12.869  1.00  0.00     0.007 C 
ATOM     47  C   UNL     1      32.449  36.683  15.074  1.00  0.00     0.007 C 
ENDBRANCH  36  38
ENDBRANCH  32  33
ENDBRANCH  31  32
ENDBRANCH  28  31
ENDBRANCH   1  27
TORSDOF 15
BEGIN_RES LYS A 131
REMARK  4 active torsions:
REMARK  status: ('A' for Active; 'I' for Inactive)
REMARK    1  A    between atoms: CA   and  CB  
REMARK    2  A    between atoms: CB   and  CG  
REMARK    3  A    between atoms: CG   and  CD  
REMARK    4  A    between atoms: CD   and  CE  
ROOT
ATOM      1  CA  LYS A 131      29.867  25.555  16.977  1.00 20.52     0.186 C 
ENDROOT
BRANCH   1   2
ATOM      2  CB  LYS A 131      28.345  25.722  17.026  1.00 20.94     0.034 C 
BRANCH   2   3
ATOM      3  CG  LYS A 131      27.601  24.402  16.891  1.00 22.96     0.005 C 
BRANCH   3   4
ATOM      4  CD  LYS A 131      26.154  24.525  17.281  1.00 24.33     0.041 C 
BRANCH   4   5
ATOM      5  CE  LYS A 131      26.053  24.819  18.774  1.00 26.91     0.338 C 
ATOM      6  NZ  LYS A 131      25.540  23.635  19.502  1.00 27.40     0.618 N 
ENDBRANCH   4   5
ENDBRANCH   3   4
ENDBRANCH   2   3
ENDBRANCH   1   2
END_RES LYS A 131
BEGIN_RES LYS A 135
REMARK  4 active torsions:
REMARK  status: ('A' for Active; 'I' for Inactive)
REMARK    5  A    between atoms: CA   and  CB  
REMARK    6  A    between atoms: CB   and  CG  
REMARK    7  A    between atoms: CG   and  CD  
REMARK    8  A    between atoms: CD   and  CE  
ROOT
ATOM      7  CA  LYS A 135      33.193  34.663   9.290  1.00 25.02     0.186 C 
ENDROOT
BRANCH   7   8
ATOM      8  CB  LYS A 135      32.060  35.360  10.034  1.00 26.63     0.034 C 
BRANCH   8   9
ATOM      9  CG  LYS A 135      30.791  35.474   9.229  1.00 29.45     0.005 C 
BRANCH   9  10
ATOM     10  CD  LYS A 135      30.179  34.101   8.996  1.00 32.00     0.041 C 
BRANCH  10  11
ATOM     11  CE  LYS A 135      28.751  34.061   9.506  1.00 34.25     0.338 C 
ATOM     12  NZ  LYS A 135      27.794  34.509   8.457  1.00 35.99     0.618 N 
ENDBRANCH  10  11
ENDBRANCH   9  10
ENDBRANCH   8   9
ENDBRANCH   7   8
END_RES LYS A 135
