REMARK VINA RESULT:    -4.652      4.192      8.256
REMARK INTER + INTRA:         -16.666
REMARK INTER:                  -9.501
REMARK INTRA:                  -7.165
REMARK UNBOUND:                -7.118
REMARK SMILES CC(=O)N[C@@H]1[C@@H](O)C[C@](O)(C(=O)O)O[C@H]1C(O)[C@H](O)CNC(=O)OCc1cn(C[C@H](CC(=O)O)CC(C)C)nn1
REMARK SMILES IDX 24 1 22 2 21 3 23 5 20 6 18 7 16 8 15 9 9 10 8 11 14 12 6 13
REMARK SMILES IDX 5 14 10 15 11 17 12 18 13 19 7 21 4 23 2 24 1 26 3 27 17 28
REMARK SMILES IDX 19 30 25 32 26 33 27 34 40 35 28 36 39 37 29 38 30 39 31 40
REMARK SMILES IDX 32 41 33 42 34 43 35 45 36 46 37 47 38 48
REMARK H PARENT 21 4 10 16 13 20 7 22 4 25 17 29 19 31 34 44
REMARK Flexibility Score: inf
ROOT
ATOM      1  O   UNL     1      32.336  36.397  17.758  1.00  0.00    -0.443 OA
ENDROOT
BRANCH   1   2
ATOM      2  C   UNL     1      31.823  35.098  17.924  1.00  0.00     0.407 C 
ATOM      3  N   UNL     1      31.739  34.196  16.837  1.00  0.00    -0.319 N 
ATOM      4  H   UNL     1      32.089  34.562  15.897  1.00  0.00     0.167 HD
ATOM      5  O   UNL     1      31.441  34.763  19.071  1.00  0.00    -0.225 OA
BRANCH   3   6
ATOM      6  C   UNL     1      31.218  32.852  16.950  1.00  0.00     0.154 C 
BRANCH   6   7
ATOM      7  C   UNL     1      30.649  32.427  15.642  1.00  0.00     0.165 C 
BRANCH   7   8
ATOM      8  C   UNL     1      29.392  33.185  15.247  1.00  0.00     0.176 C 
BRANCH   8   9
ATOM      9  C   UNL     1      29.537  33.834  13.906  1.00  0.00     0.178 C 
ATOM     10  C   UNL     1      31.151  35.452  13.489  1.00  0.00     0.269 C 
ATOM     11  C   UNL     1      30.266  36.254  12.567  1.00  0.00     0.112 C 
ATOM     12  O   UNL     1      30.815  34.107  13.515  1.00  0.00    -0.332 OA
ATOM     13  C   UNL     1      28.910  35.607  12.383  1.00  0.00     0.145 C 
ATOM     14  C   UNL     1      28.568  35.003  13.752  1.00  0.00     0.142 C 
BRANCH  10  15
ATOM     15  O   UNL     1      31.173  36.010  14.771  1.00  0.00    -0.357 OA
ATOM     16  H   UNL     1      31.863  35.632  15.347  1.00  0.00     0.214 HD
ENDBRANCH  10  15
BRANCH  10  17
ATOM     17  C   UNL     1      32.537  35.541  12.958  1.00  0.00     0.364 C 
ATOM     18  O   UNL     1      32.792  36.397  12.057  1.00  0.00    -0.246 OA
BRANCH  17  19
ATOM     19  O   UNL     1      33.573  34.741  13.391  1.00  0.00    -0.477 OA
ATOM     20  H   UNL     1      34.484  35.176  13.608  1.00  0.00     0.296 HD
ENDBRANCH  17  19
ENDBRANCH  10  17
BRANCH  13  21
ATOM     21  O   UNL     1      27.946  36.478  11.942  1.00  0.00    -0.391 OA
ATOM     22  H   UNL     1      28.166  37.377  12.338  1.00  0.00     0.211 HD
ENDBRANCH  13  21
BRANCH  14  23
ATOM     23  N   UNL     1      27.219  34.494  13.765  1.00  0.00    -0.348 N 
ATOM     24  C   UNL     1      26.151  35.275  14.306  1.00  0.00     0.217 C 
ATOM     25  H   UNL     1      26.954  33.551  13.390  1.00  0.00     0.163 HD
ATOM     26  C   UNL     1      24.761  34.785  14.335  1.00  0.00     0.114 C 
ATOM     27  O   UNL     1      26.397  36.415  14.773  1.00  0.00    -0.275 OA
ENDBRANCH  14  23
ENDBRANCH   8   9
BRANCH   8  28
ATOM     28  O   UNL     1      28.997  34.035  16.253  1.00  0.00    -0.388 OA
ATOM     29  H   UNL     1      29.513  33.836  17.061  1.00  0.00     0.211 HD
ENDBRANCH   8  28
ENDBRANCH   7   8
BRANCH   7  30
ATOM     30  O   UNL     1      30.288  31.062  15.740  1.00  0.00    -0.388 OA
ATOM     31  H   UNL     1      31.048  30.477  15.518  1.00  0.00     0.211 HD
ENDBRANCH   7  30
ENDBRANCH   6   7
ENDBRANCH   3   6
ENDBRANCH   1   2
BRANCH   1  32
ATOM     32  C   UNL     1      33.629  36.652  18.244  1.00  0.00     0.294 C 
BRANCH  32  33
ATOM     33  C   UNL     1      34.679  36.208  17.310  1.00  0.00     0.120 A 
ATOM     34  C   UNL     1      36.045  36.065  17.505  1.00  0.00     0.138 A 
ATOM     35  N   UNL     1      34.473  35.846  16.038  1.00  0.00    -0.132 NA
ATOM     36  N   UNL     1      36.606  35.629  16.364  1.00  0.00    -0.252 N 
ATOM     37  N   UNL     1      35.637  35.505  15.494  1.00  0.00    -0.067 NA
BRANCH  36  38
ATOM     38  C   UNL     1      38.058  35.355  16.181  1.00  0.00     0.150 C 
BRANCH  38  39
ATOM     39  C   UNL     1      38.330  35.027  14.755  1.00  0.00     0.022 C 
BRANCH  39  40
ATOM     40  C   UNL     1      38.119  33.534  14.573  1.00  0.00     0.128 C 
BRANCH  40  41
ATOM     41  C   UNL     1      37.520  33.284  13.237  1.00  0.00     0.303 C 
ATOM     42  O   UNL     1      38.189  32.780  12.319  1.00  0.00    -0.252 OA
BRANCH  41  43
ATOM     43  O   UNL     1      36.179  33.638  13.058  1.00  0.00    -0.481 OA
ATOM     44  H   UNL     1      35.586  33.058  12.498  1.00  0.00     0.296 HD
ENDBRANCH  41  43
ENDBRANCH  40  41
ENDBRANCH  39  40
BRANCH  39  45
ATOM     45  C   UNL     1      39.628  35.528  14.271  1.00  0.00     0.009 C 
BRANCH  45  46
ATOM     46  C   UNL     1      39.698  36.096  12.905  1.00  0.00    -0.017 C 
ATOM     47  C   UNL     1      40.008  37.607  13.099  1.00  0.00     0.007 C 
ATOM     48  C   UNL     1      40.745  35.555  11.992  1.00  0.00     0.007 C 
ENDBRANCH  45  46
ENDBRANCH  39  45
ENDBRANCH  38  39
ENDBRANCH  36  38
ENDBRANCH  32  33
ENDBRANCH   1  32
TORSDOF 21
BEGIN_RES LYS A 131
REMARK  4 active torsions:
REMARK  status: ('A' for Active; 'I' for Inactive)
REMARK    1  A    between atoms: CA   and  CB  
REMARK    2  A    between atoms: CB   and  CG  
REMARK    3  A    between atoms: CG   and  CD  
REMARK    4  A    between atoms: CD   and  CE  
ROOT
ATOM      1  CA  LYS A 131      29.867  25.555  16.977  1.00 20.52     0.186 C 
ENDROOT
BRANCH   1   2
ATOM      2  CB  LYS A 131      28.345  25.722  17.026  1.00 20.94     0.034 C 
BRANCH   2   3
ATOM      3  CG  LYS A 131      27.601  24.401  16.898  1.00 22.96     0.005 C 
BRANCH   3   4
ATOM      4  CD  LYS A 131      26.160  24.521  17.311  1.00 24.33     0.041 C 
BRANCH   4   5
ATOM      5  CE  LYS A 131      26.031  25.571  18.410  1.00 26.91     0.338 C 
ATOM      6  NZ  LYS A 131      25.544  24.952  19.665  1.00 27.40     0.618 N 
ENDBRANCH   4   5
ENDBRANCH   3   4
ENDBRANCH   2   3
ENDBRANCH   1   2
END_RES LYS A 131
BEGIN_RES LYS A 135
REMARK  4 active torsions:
REMARK  status: ('A' for Active; 'I' for Inactive)
REMARK    5  A    between atoms: CA   and  CB  
REMARK    6  A    between atoms: CB   and  CG  
REMARK    7  A    between atoms: CG   and  CD  
REMARK    8  A    between atoms: CD   and  CE  
ROOT
ATOM      7  CA  LYS A 135      33.193  34.663   9.290  1.00 25.02     0.186 C 
ENDROOT
BRANCH   7   8
ATOM      8  CB  LYS A 135      32.060  35.360  10.034  1.00 26.63     0.034 C 
BRANCH   8   9
ATOM      9  CG  LYS A 135      30.817  35.545   9.202  1.00 29.45     0.005 C 
BRANCH   9  10
ATOM     10  CD  LYS A 135      30.038  34.242   9.104  1.00 32.00     0.041 C 
BRANCH  10  11
ATOM     11  CE  LYS A 135      28.700  34.471   8.427  1.00 34.25     0.338 C 
ATOM     12  NZ  LYS A 135      28.859  35.276   7.184  1.00 35.99     0.618 N 
ENDBRANCH  10  11
ENDBRANCH   9  10
ENDBRANCH   8   9
ENDBRANCH   7   8
END_RES LYS A 135
