REMARK VINA RESULT:    -5.459      1.966      2.942
REMARK INTER + INTRA:         -13.945
REMARK INTER:                  -7.467
REMARK INTRA:                  -6.478
REMARK UNBOUND:                -4.497
REMARK SMILES CC(=O)N[C@@H]1[C@@H](O)C[C@](O)(C(=O)O)O[C@H]1C(O)[C@H](O)CNC(=O)OCc1cn(-c2cccc(Cl)c2)nn1
REMARK SMILES IDX 20 1 18 2 16 3 15 4 9 5 8 6 14 7 6 8 5 9 10 10 11 12 12 13
REMARK SMILES IDX 13 14 7 16 4 18 2 19 1 21 3 22 17 23 19 25 21 27 22 28 23 30
REMARK SMILES IDX 24 31 25 32 26 33 27 34 37 35 28 36 36 37 29 38 30 39 35 40
REMARK SMILES IDX 31 41 33 42 32 43 34 44
REMARK H PARENT 10 11 13 15 7 17 4 20 17 24 19 26 21 29
REMARK Flexibility Score: inf
ROOT
ATOM      1  C   UNL     1      28.447  27.352  20.544  1.00  0.00     0.154 C 
ENDROOT
BRANCH   1   2
ATOM      2  C   UNL     1      29.591  28.250  20.916  1.00  0.00     0.165 C 
BRANCH   2   3
ATOM      3  C   UNL     1      29.354  29.688  20.558  1.00  0.00     0.176 C 
BRANCH   3   4
ATOM      4  C   UNL     1      30.039  30.620  21.561  1.00  0.00     0.178 C 
ATOM      5  C   UNL     1      28.979  32.714  21.710  1.00  0.00     0.269 C 
ATOM      6  C   UNL     1      30.344  33.381  21.608  1.00  0.00     0.112 C 
ATOM      7  O   UNL     1      29.112  31.424  22.093  1.00  0.00    -0.332 OA
ATOM      8  C   UNL     1      31.019  32.656  20.445  1.00  0.00     0.145 C 
ATOM      9  C   UNL     1      31.216  31.232  20.888  1.00  0.00     0.142 C 
BRANCH   5  10
ATOM     10  O   UNL     1      28.377  32.889  20.471  1.00  0.00    -0.357 OA
ATOM     11  H   UNL     1      28.212  33.855  20.336  1.00  0.00     0.214 HD
ENDBRANCH   5  10
BRANCH   5  12
ATOM     12  C   UNL     1      28.166  33.420  22.727  1.00  0.00     0.364 C 
ATOM     13  O   UNL     1      27.699  32.770  23.690  1.00  0.00    -0.246 OA
BRANCH  12  14
ATOM     14  O   UNL     1      27.896  34.779  22.662  1.00  0.00    -0.477 OA
ATOM     15  H   UNL     1      26.933  35.090  22.829  1.00  0.00     0.296 HD
ENDBRANCH  12  14
ENDBRANCH   5  12
BRANCH   8  16
ATOM     16  O   UNL     1      30.210  32.645  19.313  1.00  0.00    -0.391 OA
ATOM     17  H   UNL     1      29.776  33.530  19.150  1.00  0.00     0.211 HD
ENDBRANCH   8  16
BRANCH   9  18
ATOM     18  N   UNL     1      32.374  31.220  21.757  1.00  0.00    -0.348 N 
ATOM     19  C   UNL     1      33.266  30.117  21.721  1.00  0.00     0.217 C 
ATOM     20  H   UNL     1      32.572  32.020  22.426  1.00  0.00     0.163 HD
ATOM     21  C   UNL     1      34.452  30.111  22.615  1.00  0.00     0.114 C 
ATOM     22  O   UNL     1      33.048  29.159  20.935  1.00  0.00    -0.275 OA
ENDBRANCH   9  18
ENDBRANCH   3   4
BRANCH   3  23
ATOM     23  O   UNL     1      27.957  29.884  20.615  1.00  0.00    -0.388 OA
ATOM     24  H   UNL     1      27.591  30.049  19.735  1.00  0.00     0.211 HD
ENDBRANCH   3  23
ENDBRANCH   2   3
BRANCH   2  25
ATOM     25  O   UNL     1      30.748  27.805  20.253  1.00  0.00    -0.388 OA
ATOM     26  H   UNL     1      31.247  27.221  20.852  1.00  0.00     0.211 HD
ENDBRANCH   2  25
ENDBRANCH   1   2
BRANCH   1  27
ATOM     27  N   UNL     1      28.172  27.468  19.116  1.00  0.00    -0.319 N 
ATOM     28  C   UNL     1      26.866  27.765  18.652  1.00  0.00     0.407 C 
ATOM     29  H   UNL     1      28.961  27.324  18.455  1.00  0.00     0.167 HD
ATOM     30  O   UNL     1      25.942  27.930  19.488  1.00  0.00    -0.225 OA
BRANCH  28  31
ATOM     31  O   UNL     1      26.561  27.882  17.305  1.00  0.00    -0.443 OA
BRANCH  31  32
ATOM     32  C   UNL     1      25.910  29.055  16.868  1.00  0.00     0.294 C 
BRANCH  32  33
ATOM     33  C   UNL     1      26.850  30.202  16.963  1.00  0.00     0.121 A 
ATOM     34  C   UNL     1      27.722  30.641  15.983  1.00  0.00     0.144 A 
ATOM     35  N   UNL     1      27.046  31.039  17.999  1.00  0.00    -0.131 NA
ATOM     36  N   UNL     1      28.413  31.712  16.440  1.00  0.00    -0.220 N 
ATOM     37  N   UNL     1      27.975  31.924  17.670  1.00  0.00    -0.062 NA
BRANCH  36  38
ATOM     38  C   UNL     1      29.405  32.451  15.738  1.00  0.00     0.068 A 
ATOM     39  C   UNL     1      30.732  32.266  16.058  1.00  0.00     0.028 A 
ATOM     40  C   UNL     1      29.110  33.355  14.739  1.00  0.00     0.049 A 
ATOM     41  C   UNL     1      31.734  32.963  15.403  1.00  0.00     0.004 A 
ATOM     42  C   UNL     1      30.081  34.065  14.067  1.00  0.00     0.043 A 
ATOM     43  C   UNL     1      31.401  33.858  14.411  1.00  0.00     0.020 A 
ATOM     44  Cl  UNL     1      29.659  35.218  12.791  1.00  0.00    -0.084 Cl
ENDBRANCH  36  38
ENDBRANCH  32  33
ENDBRANCH  31  32
ENDBRANCH  28  31
ENDBRANCH   1  27
TORSDOF 15
BEGIN_RES LYS A 131
REMARK  4 active torsions:
REMARK  status: ('A' for Active; 'I' for Inactive)
REMARK    1  A    between atoms: CA   and  CB  
REMARK    2  A    between atoms: CB   and  CG  
REMARK    3  A    between atoms: CG   and  CD  
REMARK    4  A    between atoms: CD   and  CE  
ROOT
ATOM      1  CA  LYS A 131      29.867  25.555  16.977  1.00 20.52     0.186 C 
ENDROOT
BRANCH   1   2
ATOM      2  CB  LYS A 131      28.345  25.722  17.026  1.00 20.94     0.034 C 
BRANCH   2   3
ATOM      3  CG  LYS A 131      27.600  24.417  16.791  1.00 22.96     0.005 C 
BRANCH   3   4
ATOM      4  CD  LYS A 131      26.597  24.134  17.876  1.00 24.33     0.041 C 
BRANCH   4   5
ATOM      5  CE  LYS A 131      25.199  24.061  17.270  1.00 26.91     0.338 C 
ATOM      6  NZ  LYS A 131      24.554  22.771  17.611  1.00 27.40     0.618 N 
ENDBRANCH   4   5
ENDBRANCH   3   4
ENDBRANCH   2   3
ENDBRANCH   1   2
END_RES LYS A 131
BEGIN_RES LYS A 135
REMARK  4 active torsions:
REMARK  status: ('A' for Active; 'I' for Inactive)
REMARK    5  A    between atoms: CA   and  CB  
REMARK    6  A    between atoms: CB   and  CG  
REMARK    7  A    between atoms: CG   and  CD  
REMARK    8  A    between atoms: CD   and  CE  
ROOT
ATOM      7  CA  LYS A 135      33.193  34.663   9.290  1.00 25.02     0.186 C 
ENDROOT
BRANCH   7   8
ATOM      8  CB  LYS A 135      32.060  35.360  10.034  1.00 26.63     0.034 C 
BRANCH   8   9
ATOM      9  CG  LYS A 135      30.802  35.503   9.218  1.00 29.45     0.005 C 
BRANCH   9  10
ATOM     10  CD  LYS A 135      30.127  34.153   9.030  1.00 32.00     0.041 C 
BRANCH  10  11
ATOM     11  CE  LYS A 135      28.668  34.335   8.656  1.00 34.25     0.338 C 
ATOM     12  NZ  LYS A 135      27.772  33.726   9.679  1.00 35.99     0.618 N 
ENDBRANCH  10  11
ENDBRANCH   9  10
ENDBRANCH   8   9
ENDBRANCH   7   8
END_RES LYS A 135
