REMARK VINA RESULT:    -4.263      6.472     11.869
REMARK INTER + INTRA:         -13.645
REMARK INTER:                  -8.351
REMARK INTRA:                  -5.294
REMARK UNBOUND:                -5.644
REMARK SMILES CC(=O)N[C@@H]1[C@@H](O)C[C@](O)(C(=O)O)O[C@H]1C(O)[C@H](O)CNC(=O)OCc1cn(CCC(=O)O)nn1
REMARK SMILES IDX 21 1 22 2 23 3 20 5 18 6 16 7 15 8 9 9 8 10 14 11 6 12 5 13
REMARK SMILES IDX 10 14 11 16 12 17 13 18 7 20 4 22 2 23 1 25 3 26 17 27 19 29
REMARK SMILES IDX 24 31 25 32 26 33 27 34 35 35 28 36 34 37 29 38 30 39 31 40
REMARK SMILES IDX 32 41 33 42
REMARK H PARENT 21 4 10 15 13 19 7 21 4 24 17 28 19 30 33 43
REMARK Flexibility Score: inf
ROOT
ATOM      1  N   UNL     1      23.781  35.880  12.640  1.00  0.00    -0.319 N 
ATOM      2  C   UNL     1      24.839  35.053  13.095  1.00  0.00     0.407 C 
ATOM      3  O   UNL     1      24.646  33.831  13.371  1.00  0.00    -0.225 OA
ATOM      4  H   UNL     1      23.979  36.875  12.424  1.00  0.00     0.167 HD
ENDROOT
BRANCH   1   5
ATOM      5  C   UNL     1      22.440  35.375  12.474  1.00  0.00     0.154 C 
BRANCH   5   6
ATOM      6  C   UNL     1      22.203  34.708  11.146  1.00  0.00     0.165 C 
BRANCH   6   7
ATOM      7  C   UNL     1      21.834  35.735  10.076  1.00  0.00     0.176 C 
BRANCH   7   8
ATOM      8  C   UNL     1      23.017  35.963   9.151  1.00  0.00     0.178 C 
ATOM      9  C   UNL     1      25.338  35.995   9.407  1.00  0.00     0.269 C 
ATOM     10  C   UNL     1      25.466  36.765   8.122  1.00  0.00     0.112 C 
ATOM     11  O   UNL     1      24.146  35.319   9.540  1.00  0.00    -0.332 OA
ATOM     12  C   UNL     1      24.221  37.435   7.662  1.00  0.00     0.145 C 
ATOM     13  C   UNL     1      23.231  37.420   8.837  1.00  0.00     0.142 C 
BRANCH   9  14
ATOM     14  O   UNL     1      25.587  36.862  10.465  1.00  0.00    -0.357 OA
ATOM     15  H   UNL     1      24.726  37.336  10.635  1.00  0.00     0.214 HD
ENDBRANCH   9  14
BRANCH   9  16
ATOM     16  C   UNL     1      26.412  34.976   9.397  1.00  0.00     0.364 C 
ATOM     17  O   UNL     1      26.726  34.310   8.387  1.00  0.00    -0.246 OA
BRANCH  16  18
ATOM     18  O   UNL     1      27.119  34.731  10.561  1.00  0.00    -0.477 OA
ATOM     19  H   UNL     1      27.665  35.435  11.042  1.00  0.00     0.296 HD
ENDBRANCH  16  18
ENDBRANCH   9  16
BRANCH  12  20
ATOM     20  O   UNL     1      24.429  38.737   7.217  1.00  0.00    -0.391 OA
ATOM     21  H   UNL     1      25.026  38.772   6.420  1.00  0.00     0.211 HD
ENDBRANCH  12  20
BRANCH  13  22
ATOM     22  N   UNL     1      21.994  38.077   8.462  1.00  0.00    -0.348 N 
ATOM     23  C   UNL     1      21.750  39.426   8.844  1.00  0.00     0.217 C 
ATOM     24  H   UNL     1      21.248  37.592   7.909  1.00  0.00     0.163 HD
ATOM     25  C   UNL     1      20.484  40.147   8.478  1.00  0.00     0.114 C 
ATOM     26  O   UNL     1      22.619  40.066   9.518  1.00  0.00    -0.275 OA
ENDBRANCH  13  22
ENDBRANCH   7   8
BRANCH   7  27
ATOM     27  O   UNL     1      20.771  35.222   9.337  1.00  0.00    -0.388 OA
ATOM     28  H   UNL     1      20.690  34.234   9.424  1.00  0.00     0.211 HD
ENDBRANCH   7  27
ENDBRANCH   6   7
BRANCH   6  29
ATOM     29  O   UNL     1      21.159  33.797  11.325  1.00  0.00    -0.388 OA
ATOM     30  H   UNL     1      21.328  33.005  10.755  1.00  0.00     0.211 HD
ENDBRANCH   6  29
ENDBRANCH   5   6
ENDBRANCH   1   5
BRANCH   2  31
ATOM     31  O   UNL     1      26.098  35.591  13.237  1.00  0.00    -0.443 OA
BRANCH  31  32
ATOM     32  C   UNL     1      26.794  35.633  14.471  1.00  0.00     0.294 C 
BRANCH  32  33
ATOM     33  C   UNL     1      28.257  35.373  14.248  1.00  0.00     0.120 A 
ATOM     34  C   UNL     1      29.295  35.745  15.060  1.00  0.00     0.138 A 
ATOM     35  N   UNL     1      28.777  34.727  13.186  1.00  0.00    -0.132 NA
ATOM     36  N   UNL     1      30.436  35.313  14.471  1.00  0.00    -0.252 N 
ATOM     37  N   UNL     1      30.090  34.704  13.345  1.00  0.00    -0.067 NA
BRANCH  36  38
ATOM     38  C   UNL     1      31.759  35.508  15.024  1.00  0.00     0.158 C 
BRANCH  38  39
ATOM     39  C   UNL     1      32.532  34.203  14.851  1.00  0.00     0.146 C 
BRANCH  39  40
ATOM     40  C   UNL     1      31.785  33.161  15.618  1.00  0.00     0.305 C 
ATOM     41  O   UNL     1      31.586  33.231  16.838  1.00  0.00    -0.252 OA
BRANCH  40  42
ATOM     42  O   UNL     1      31.306  32.074  14.887  1.00  0.00    -0.481 OA
ATOM     43  H   UNL     1      31.760  31.167  14.978  1.00  0.00     0.296 HD
ENDBRANCH  40  42
ENDBRANCH  39  40
ENDBRANCH  38  39
ENDBRANCH  36  38
ENDBRANCH  32  33
ENDBRANCH  31  32
ENDBRANCH   2  31
TORSDOF 18
BEGIN_RES LYS A 131
REMARK  4 active torsions:
REMARK  status: ('A' for Active; 'I' for Inactive)
REMARK    1  A    between atoms: CA   and  CB  
REMARK    2  A    between atoms: CB   and  CG  
REMARK    3  A    between atoms: CG   and  CD  
REMARK    4  A    between atoms: CD   and  CE  
ROOT
ATOM      1  CA  LYS A 131      29.867  25.555  16.977  1.00 20.52     0.186 C 
ENDROOT
BRANCH   1   2
ATOM      2  CB  LYS A 131      28.345  25.722  17.026  1.00 20.94     0.034 C 
BRANCH   2   3
ATOM      3  CG  LYS A 131      27.601  24.400  16.908  1.00 22.96     0.005 C 
BRANCH   3   4
ATOM      4  CD  LYS A 131      26.164  24.519  17.331  1.00 24.33     0.041 C 
BRANCH   4   5
ATOM      5  CE  LYS A 131      25.967  23.811  18.668  1.00 26.91     0.338 C 
ATOM      6  NZ  LYS A 131      25.539  24.776  19.708  1.00 27.40     0.618 N 
ENDBRANCH   4   5
ENDBRANCH   3   4
ENDBRANCH   2   3
ENDBRANCH   1   2
END_RES LYS A 131
BEGIN_RES LYS A 135
REMARK  4 active torsions:
REMARK  status: ('A' for Active; 'I' for Inactive)
REMARK    5  A    between atoms: CA   and  CB  
REMARK    6  A    between atoms: CB   and  CG  
REMARK    7  A    between atoms: CG   and  CD  
REMARK    8  A    between atoms: CD   and  CE  
ROOT
ATOM      7  CA  LYS A 135      33.193  34.663   9.290  1.00 25.02     0.186 C 
ENDROOT
BRANCH   7   8
ATOM      8  CB  LYS A 135      32.060  35.360  10.034  1.00 26.63     0.034 C 
BRANCH   8   9
ATOM      9  CG  LYS A 135      30.699  34.791   9.729  1.00 29.45     0.005 C 
BRANCH   9  10
ATOM     10  CD  LYS A 135      30.088  35.479   8.517  1.00 32.00     0.041 C 
BRANCH  10  11
ATOM     11  CE  LYS A 135      30.139  36.986   8.680  1.00 34.25     0.338 C 
ATOM     12  NZ  LYS A 135      28.995  37.477   9.497  1.00 35.99     0.618 N 
ENDBRANCH  10  11
ENDBRANCH   9  10
ENDBRANCH   8   9
ENDBRANCH   7   8
END_RES LYS A 135
