REMARK VINA RESULT:    -5.412      1.936      3.365
REMARK INTER + INTRA:         -14.527
REMARK INTER:                  -9.033
REMARK INTRA:                  -5.494
REMARK UNBOUND:                -5.161
REMARK SMILES CC(=O)N[C@@H]1[C@@H](O)C[C@](O)(C(=O)O)O[C@H]1C(O)[C@H](O)CNC(=O)OCc1cn(-c2ccc(Br)cc2)nn1
REMARK SMILES IDX 20 1 18 2 16 3 15 4 9 5 8 6 14 7 6 8 5 9 10 10 11 12 12 13
REMARK SMILES IDX 13 14 7 16 4 18 2 19 1 21 3 22 17 23 19 25 21 27 22 28 23 30
REMARK SMILES IDX 24 31 25 32 26 33 27 34 37 35 28 36 36 37 29 38 30 39 35 40
REMARK SMILES IDX 31 41 34 42 32 43 33 44
REMARK H PARENT 10 11 13 15 7 17 4 20 17 24 19 26 21 29
REMARK Flexibility Score: inf
ROOT
ATOM      1  C   UNL     1      27.514  26.993  22.218  1.00  0.00     0.154 C 
ENDROOT
BRANCH   1   2
ATOM      2  C   UNL     1      28.238  27.696  23.327  1.00  0.00     0.165 C 
BRANCH   2   3
ATOM      3  C   UNL     1      29.669  27.325  23.494  1.00  0.00     0.176 C 
BRANCH   3   4
ATOM      4  C   UNL     1      30.645  28.350  22.953  1.00  0.00     0.178 C 
ATOM      5  C   UNL     1      31.726  28.736  20.906  1.00  0.00     0.269 C 
ATOM      6  C   UNL     1      32.872  29.243  21.737  1.00  0.00     0.112 C 
ATOM      7  O   UNL     1      30.878  27.978  21.634  1.00  0.00    -0.332 OA
ATOM      8  C   UNL     1      33.123  28.243  22.842  1.00  0.00     0.145 C 
ATOM      9  C   UNL     1      31.903  28.284  23.773  1.00  0.00     0.142 C 
BRANCH   5  10
ATOM     10  O   UNL     1      32.243  27.900  19.878  1.00  0.00    -0.357 OA
ATOM     11  H   UNL     1      32.500  28.525  19.151  1.00  0.00     0.214 HD
ENDBRANCH   5  10
BRANCH   5  12
ATOM     12  C   UNL     1      30.978  29.853  20.266  1.00  0.00     0.364 C 
ATOM     13  O   UNL     1      31.333  31.043  20.333  1.00  0.00    -0.246 OA
BRANCH  12  14
ATOM     14  O   UNL     1      29.824  29.563  19.559  1.00  0.00    -0.477 OA
ATOM     15  H   UNL     1      29.270  30.277  19.083  1.00  0.00     0.296 HD
ENDBRANCH  12  14
ENDBRANCH   5  12
BRANCH   8  16
ATOM     16  O   UNL     1      33.126  26.974  22.265  1.00  0.00    -0.391 OA
ATOM     17  H   UNL     1      33.500  26.283  22.844  1.00  0.00     0.211 HD
ENDBRANCH   8  16
BRANCH   9  18
ATOM     18  N   UNL     1      32.043  29.500  24.525  1.00  0.00    -0.348 N 
ATOM     19  C   UNL     1      31.630  29.656  25.869  1.00  0.00     0.217 C 
ATOM     20  H   UNL     1      32.479  30.347  24.076  1.00  0.00     0.163 HD
ATOM     21  C   UNL     1      31.795  30.943  26.609  1.00  0.00     0.114 C 
ATOM     22  O   UNL     1      31.111  28.687  26.459  1.00  0.00    -0.275 OA
ENDBRANCH   9  18
ENDBRANCH   3   4
BRANCH   3  23
ATOM     23  O   UNL     1      29.875  26.081  22.848  1.00  0.00    -0.388 OA
ATOM     24  H   UNL     1      30.833  25.878  22.913  1.00  0.00     0.211 HD
ENDBRANCH   3  23
ENDBRANCH   2   3
BRANCH   2  25
ATOM     25  O   UNL     1      27.555  27.403  24.527  1.00  0.00    -0.388 OA
ATOM     26  H   UNL     1      28.049  26.731  25.058  1.00  0.00     0.211 HD
ENDBRANCH   2  25
ENDBRANCH   1   2
BRANCH   1  27
ATOM     27  N   UNL     1      27.989  27.263  20.901  1.00  0.00    -0.319 N 
ATOM     28  C   UNL     1      27.057  27.612  19.856  1.00  0.00     0.407 C 
ATOM     29  H   UNL     1      28.979  27.232  20.587  1.00  0.00     0.167 HD
ATOM     30  O   UNL     1      25.841  27.663  20.155  1.00  0.00    -0.225 OA
BRANCH  28  31
ATOM     31  O   UNL     1      27.490  27.881  18.567  1.00  0.00    -0.443 OA
BRANCH  31  32
ATOM     32  C   UNL     1      26.473  28.112  17.601  1.00  0.00     0.294 C 
BRANCH  32  33
ATOM     33  C   UNL     1      26.879  29.322  16.829  1.00  0.00     0.121 A 
ATOM     34  C   UNL     1      28.122  29.927  16.838  1.00  0.00     0.144 A 
ATOM     35  N   UNL     1      26.134  30.056  15.981  1.00  0.00    -0.131 NA
ATOM     36  N   UNL     1      28.095  30.988  16.014  1.00  0.00    -0.220 N 
ATOM     37  N   UNL     1      26.880  31.029  15.519  1.00  0.00    -0.062 NA
BRANCH  36  38
ATOM     38  C   UNL     1      29.127  31.917  15.694  1.00  0.00     0.066 A 
ATOM     39  C   UNL     1      28.861  33.154  15.139  1.00  0.00     0.029 A 
ATOM     40  C   UNL     1      30.452  31.612  15.932  1.00  0.00     0.029 A 
ATOM     41  C   UNL     1      29.873  34.046  14.836  1.00  0.00     0.018 A 
ATOM     42  C   UNL     1      31.472  32.505  15.628  1.00  0.00     0.018 A 
ATOM     43  C   UNL     1      31.199  33.735  15.076  1.00  0.00     0.018 A 
ATOM     44  Br  UNL     1      32.554  35.001  14.638  1.00  0.00    -0.051 Br
ENDBRANCH  36  38
ENDBRANCH  32  33
ENDBRANCH  31  32
ENDBRANCH  28  31
ENDBRANCH   1  27
TORSDOF 15
BEGIN_RES LYS A 131
REMARK  4 active torsions:
REMARK  status: ('A' for Active; 'I' for Inactive)
REMARK    1  A    between atoms: CA   and  CB  
REMARK    2  A    between atoms: CB   and  CG  
REMARK    3  A    between atoms: CG   and  CD  
REMARK    4  A    between atoms: CD   and  CE  
ROOT
ATOM      1  CA  LYS A 131      29.867  25.555  16.977  1.00 20.52     0.186 C 
ENDROOT
BRANCH   1   2
ATOM      2  CB  LYS A 131      28.345  25.722  17.026  1.00 20.94     0.034 C 
BRANCH   2   3
ATOM      3  CG  LYS A 131      27.599  24.461  16.618  1.00 22.96     0.005 C 
BRANCH   3   4
ATOM      4  CD  LYS A 131      27.026  23.734  17.803  1.00 24.33     0.041 C 
BRANCH   4   5
ATOM      5  CE  LYS A 131      25.886  24.553  18.400  1.00 26.91     0.338 C 
ATOM      6  NZ  LYS A 131      25.446  23.967  19.688  1.00 27.40     0.618 N 
ENDBRANCH   4   5
ENDBRANCH   3   4
ENDBRANCH   2   3
ENDBRANCH   1   2
END_RES LYS A 131
BEGIN_RES LYS A 135
REMARK  4 active torsions:
REMARK  status: ('A' for Active; 'I' for Inactive)
REMARK    5  A    between atoms: CA   and  CB  
REMARK    6  A    between atoms: CB   and  CG  
REMARK    7  A    between atoms: CG   and  CD  
REMARK    8  A    between atoms: CD   and  CE  
ROOT
ATOM      7  CA  LYS A 135      33.193  34.663   9.290  1.00 25.02     0.186 C 
ENDROOT
BRANCH   7   8
ATOM      8  CB  LYS A 135      32.060  35.360  10.034  1.00 26.63     0.034 C 
BRANCH   8   9
ATOM      9  CG  LYS A 135      30.813  35.535   9.206  1.00 29.45     0.005 C 
BRANCH   9  10
ATOM     10  CD  LYS A 135      30.149  34.191   8.947  1.00 32.00     0.041 C 
BRANCH  10  11
ATOM     11  CE  LYS A 135      28.679  34.378   8.620  1.00 34.25     0.338 C 
ATOM     12  NZ  LYS A 135      27.816  33.682   9.614  1.00 35.99     0.618 N 
ENDBRANCH  10  11
ENDBRANCH   9  10
ENDBRANCH   8   9
ENDBRANCH   7   8
END_RES LYS A 135
