REMARK VINA RESULT:    -6.024      6.840     12.187
REMARK INTER + INTRA:         -14.958
REMARK INTER:                 -10.907
REMARK INTRA:                  -4.051
REMARK UNBOUND:                -4.533
REMARK SMILES CC(=O)N[C@@H]1[C@@H](O)C[C@](O)(C(=O)O)O[C@H]1C(O)[C@H](O)CNC(=O)OCc1cn(-c2cnc3ccccc3c2)nn1
REMARK SMILES IDX 20 1 18 2 16 3 15 4 9 5 8 6 14 7 6 8 5 9 10 10 11 12 12 13
REMARK SMILES IDX 13 14 7 16 4 18 2 19 1 21 3 22 17 23 19 25 21 27 22 28 23 30
REMARK SMILES IDX 24 31 25 32 26 33 27 34 40 35 28 36 39 37 29 38 30 39 38 40
REMARK SMILES IDX 31 41 37 42 32 43 36 44 33 45 35 46 34 47
REMARK H PARENT 10 11 13 15 7 17 4 20 17 24 19 26 21 29
REMARK Flexibility Score: inf
ROOT
ATOM      1  C   UNL     1      24.734  36.639  10.566  1.00  0.00     0.154 C 
ENDROOT
BRANCH   1   2
ATOM      2  C   UNL     1      24.541  36.239   9.131  1.00  0.00     0.165 C 
BRANCH   2   3
ATOM      3  C   UNL     1      25.221  37.152   8.148  1.00  0.00     0.176 C 
BRANCH   3   4
ATOM      4  C   UNL     1      26.448  36.572   7.507  1.00  0.00     0.178 C 
ATOM      5  C   UNL     1      28.437  35.602   8.205  1.00  0.00     0.269 C 
ATOM      6  C   UNL     1      28.921  35.624   6.777  1.00  0.00     0.112 C 
ATOM      7  O   UNL     1      27.069  35.627   8.312  1.00  0.00    -0.332 OA
ATOM      8  C   UNL     1      28.369  36.807   6.053  1.00  0.00     0.145 C 
ATOM      9  C   UNL     1      27.370  37.591   6.932  1.00  0.00     0.142 C 
BRANCH   5  10
ATOM     10  O   UNL     1      29.079  36.631   8.889  1.00  0.00    -0.357 OA
ATOM     11  H   UNL     1      30.050  36.608   8.798  1.00  0.00     0.214 HD
ENDBRANCH   5  10
BRANCH   5  12
ATOM     12  C   UNL     1      28.910  34.321   8.808  1.00  0.00     0.364 C 
ATOM     13  O   UNL     1      30.120  34.013   8.663  1.00  0.00    -0.246 OA
BRANCH  12  14
ATOM     14  O   UNL     1      28.073  33.473   9.511  1.00  0.00    -0.477 OA
ATOM     15  H   UNL     1      28.278  33.253  10.490  1.00  0.00     0.296 HD
ENDBRANCH  12  14
ENDBRANCH   5  12
BRANCH   8  16
ATOM     16  O   UNL     1      29.402  37.671   5.646  1.00  0.00    -0.391 OA
ATOM     17  H   UNL     1      30.255  37.175   5.608  1.00  0.00     0.211 HD
ENDBRANCH   8  16
BRANCH   9  18
ATOM     18  N   UNL     1      26.588  38.462   6.050  1.00  0.00    -0.348 N 
ATOM     19  C   UNL     1      26.686  39.877   6.070  1.00  0.00     0.217 C 
ATOM     20  H   UNL     1      25.924  38.044   5.373  1.00  0.00     0.163 HD
ATOM     21  C   UNL     1      25.879  40.745   5.170  1.00  0.00     0.114 C 
ATOM     22  O   UNL     1      27.473  40.448   6.865  1.00  0.00    -0.275 OA
ENDBRANCH   9  18
ENDBRANCH   3   4
BRANCH   3  23
ATOM     23  O   UNL     1      24.258  37.496   7.178  1.00  0.00    -0.388 OA
ATOM     24  H   UNL     1      24.496  36.994   6.359  1.00  0.00     0.211 HD
ENDBRANCH   3  23
ENDBRANCH   2   3
BRANCH   2  25
ATOM     25  O   UNL     1      23.170  36.107   8.830  1.00  0.00    -0.388 OA
ATOM     26  H   UNL     1      22.738  36.880   9.316  1.00  0.00     0.211 HD
ENDBRANCH   2  25
ENDBRANCH   1   2
BRANCH   1  27
ATOM     27  N   UNL     1      25.577  35.670  11.226  1.00  0.00    -0.319 N 
ATOM     28  C   UNL     1      26.917  35.925  11.582  1.00  0.00     0.407 C 
ATOM     29  H   UNL     1      25.217  34.708  11.476  1.00  0.00     0.167 HD
ATOM     30  O   UNL     1      27.463  37.022  11.343  1.00  0.00    -0.225 OA
BRANCH  28  31
ATOM     31  O   UNL     1      27.719  34.971  12.224  1.00  0.00    -0.443 OA
BRANCH  31  32
ATOM     32  C   UNL     1      28.643  35.382  13.244  1.00  0.00     0.294 C 
BRANCH  32  33
ATOM     33  C   UNL     1      29.061  34.220  14.055  1.00  0.00     0.121 A 
ATOM     34  C   UNL     1      28.331  33.519  14.963  1.00  0.00     0.144 A 
ATOM     35  N   UNL     1      30.278  33.668  14.009  1.00  0.00    -0.131 NA
ATOM     36  N   UNL     1      29.156  32.544  15.443  1.00  0.00    -0.219 N 
ATOM     37  N   UNL     1      30.325  32.652  14.855  1.00  0.00    -0.062 NA
BRANCH  36  38
ATOM     38  C   UNL     1      28.820  31.573  16.414  1.00  0.00     0.085 A 
ATOM     39  C   UNL     1      29.486  31.576  17.627  1.00  0.00     0.140 A 
ATOM     40  C   UNL     1      27.841  30.647  16.133  1.00  0.00     0.040 A 
ATOM     41  N   UNL     1      29.167  30.653  18.549  1.00  0.00    -0.254 NA
ATOM     42  C   UNL     1      27.525  29.699  17.101  1.00  0.00     0.002 A 
ATOM     43  C   UNL     1      28.203  29.723  18.303  1.00  0.00     0.070 A 
ATOM     44  C   UNL     1      26.561  28.772  16.849  1.00  0.00     0.010 A 
ATOM     45  C   UNL     1      27.891  28.784  19.265  1.00  0.00     0.029 A 
ATOM     46  C   UNL     1      26.240  27.820  17.816  1.00  0.00     0.001 A 
ATOM     47  C   UNL     1      26.908  27.833  19.018  1.00  0.00     0.002 A 
ENDBRANCH  36  38
ENDBRANCH  32  33
ENDBRANCH  31  32
ENDBRANCH  28  31
ENDBRANCH   1  27
TORSDOF 15
BEGIN_RES LYS A 131
REMARK  4 active torsions:
REMARK  status: ('A' for Active; 'I' for Inactive)
REMARK    1  A    between atoms: CA   and  CB  
REMARK    2  A    between atoms: CB   and  CG  
REMARK    3  A    between atoms: CG   and  CD  
REMARK    4  A    between atoms: CD   and  CE  
ROOT
ATOM      1  CA  LYS A 131      29.867  25.555  16.977  1.00 20.52     0.186 C 
ENDROOT
BRANCH   1   2
ATOM      2  CB  LYS A 131      28.345  25.722  17.026  1.00 20.94     0.034 C 
BRANCH   2   3
ATOM      3  CG  LYS A 131      27.600  24.407  16.853  1.00 22.96     0.005 C 
BRANCH   3   4
ATOM      4  CD  LYS A 131      26.760  24.070  18.054  1.00 24.33     0.041 C 
BRANCH   4   5
ATOM      5  CE  LYS A 131      25.464  23.407  17.598  1.00 26.91     0.338 C 
ATOM      6  NZ  LYS A 131      24.618  24.374  16.859  1.00 27.40     0.618 N 
ENDBRANCH   4   5
ENDBRANCH   3   4
ENDBRANCH   2   3
ENDBRANCH   1   2
END_RES LYS A 131
BEGIN_RES LYS A 135
REMARK  4 active torsions:
REMARK  status: ('A' for Active; 'I' for Inactive)
REMARK    5  A    between atoms: CA   and  CB  
REMARK    6  A    between atoms: CB   and  CG  
REMARK    7  A    between atoms: CG   and  CD  
REMARK    8  A    between atoms: CD   and  CE  
ROOT
ATOM      7  CA  LYS A 135      33.193  34.663   9.290  1.00 25.02     0.186 C 
ENDROOT
BRANCH   7   8
ATOM      8  CB  LYS A 135      32.060  35.360  10.034  1.00 26.63     0.034 C 
BRANCH   8   9
ATOM      9  CG  LYS A 135      32.530  36.448  10.965  1.00 29.45     0.005 C 
BRANCH   9  10
ATOM     10  CD  LYS A 135      32.474  35.978  12.411  1.00 32.00     0.041 C 
BRANCH  10  11
ATOM     11  CE  LYS A 135      31.870  37.051  13.296  1.00 34.25     0.338 C 
ATOM     12  NZ  LYS A 135      32.051  36.723  14.737  1.00 35.99     0.618 N 
ENDBRANCH  10  11
ENDBRANCH   9  10
ENDBRANCH   8   9
ENDBRANCH   7   8
END_RES LYS A 135
