REMARK VINA RESULT:    -4.403      3.048      6.270
REMARK INTER + INTRA:         -14.986
REMARK INTER:                  -8.674
REMARK INTRA:                  -6.312
REMARK UNBOUND:                -7.109
REMARK SMILES CC(=O)N[C@@H]1[C@@H](O)C[C@](O)(C(=O)O)O[C@H]1C(O)[C@H](O)CNC(=O)OCc1cn(-c2ncn3c2c(=O)n(C(C)C)c2ccccc23)nn1
REMARK SMILES IDX 21 1 22 2 23 3 20 5 18 6 16 7 15 8 9 9 8 10 14 11 6 12 5 13
REMARK SMILES IDX 10 14 11 16 12 17 13 18 7 20 4 22 2 23 1 25 3 26 17 27 19 29
REMARK SMILES IDX 24 31 25 32 26 33 27 34 47 35 28 36 46 37 29 38 30 39 33 40
REMARK SMILES IDX 31 41 32 42 34 43 45 44 36 45 35 46 44 47 40 48 43 49 41 50
REMARK SMILES IDX 42 51 37 52 38 53 39 54
REMARK H PARENT 21 4 10 15 13 19 7 21 4 24 17 28 19 30
REMARK Flexibility Score: inf
ROOT
ATOM      1  N   UNL     1      31.279  34.173  18.258  1.00  0.00    -0.319 N 
ATOM      2  C   UNL     1      31.906  34.684  17.122  1.00  0.00     0.407 C 
ATOM      3  O   UNL     1      33.000  35.252  17.136  1.00  0.00    -0.225 OA
ATOM      4  H   UNL     1      30.324  33.666  18.082  1.00  0.00     0.167 HD
ENDROOT
BRANCH   1   5
ATOM      5  C   UNL     1      31.747  34.245  19.589  1.00  0.00     0.154 C 
BRANCH   5   6
ATOM      6  C   UNL     1      31.516  33.076  20.438  1.00  0.00     0.165 C 
BRANCH   6   7
ATOM      7  C   UNL     1      30.239  32.341  20.469  1.00  0.00     0.176 C 
BRANCH   7   8
ATOM      8  C   UNL     1      30.521  30.975  19.776  1.00  0.00     0.178 C 
ATOM      9  C   UNL     1      29.437  31.139  17.699  1.00  0.00     0.269 C 
ATOM     10  C   UNL     1      28.604  29.947  18.033  1.00  0.00     0.112 C 
ATOM     11  O   UNL     1      30.567  31.180  18.448  1.00  0.00    -0.332 OA
ATOM     12  C   UNL     1      28.354  29.757  19.507  1.00  0.00     0.145 C 
ATOM     13  C   UNL     1      29.626  29.920  20.309  1.00  0.00     0.142 C 
BRANCH   9  14
ATOM     14  O   UNL     1      28.700  32.326  17.942  1.00  0.00    -0.357 OA
ATOM     15  H   UNL     1      28.916  32.922  17.176  1.00  0.00     0.214 HD
ENDBRANCH   9  14
BRANCH   9  16
ATOM     16  C   UNL     1      29.732  31.049  16.230  1.00  0.00     0.364 C 
ATOM     17  O   UNL     1      30.797  31.502  15.790  1.00  0.00    -0.246 OA
BRANCH  16  18
ATOM     18  O   UNL     1      28.822  30.464  15.381  1.00  0.00    -0.477 OA
ATOM     19  H   UNL     1      28.703  29.447  15.364  1.00  0.00     0.296 HD
ENDBRANCH  16  18
ENDBRANCH   9  16
BRANCH  12  20
ATOM     20  O   UNL     1      27.360  30.607  19.996  1.00  0.00    -0.391 OA
ATOM     21  H   UNL     1      27.690  31.538  19.980  1.00  0.00     0.211 HD
ENDBRANCH  12  20
BRANCH  13  22
ATOM     22  N   UNL     1      30.283  28.606  20.332  1.00  0.00    -0.348 N 
ATOM     23  C   UNL     1      31.008  28.139  21.447  1.00  0.00     0.217 C 
ATOM     24  H   UNL     1      30.229  27.962  19.493  1.00  0.00     0.163 HD
ATOM     25  C   UNL     1      31.672  26.810  21.465  1.00  0.00     0.114 C 
ATOM     26  O   UNL     1      31.112  28.863  22.483  1.00  0.00    -0.275 OA
ENDBRANCH  13  22
ENDBRANCH   7   8
BRANCH   7  27
ATOM     27  O   UNL     1      29.731  32.084  21.744  1.00  0.00    -0.388 OA
ATOM     28  H   UNL     1      29.476  32.947  22.198  1.00  0.00     0.211 HD
ENDBRANCH   7  27
ENDBRANCH   6   7
BRANCH   6  29
ATOM     29  O   UNL     1      31.833  33.507  21.782  1.00  0.00    -0.388 OA
ATOM     30  H   UNL     1      32.529  34.187  21.768  1.00  0.00     0.211 HD
ENDBRANCH   6  29
ENDBRANCH   5   6
ENDBRANCH   1   5
BRANCH   2  31
ATOM     31  O   UNL     1      31.298  34.576  15.851  1.00  0.00    -0.443 OA
BRANCH  31  32
ATOM     32  C   UNL     1      30.343  35.499  15.412  1.00  0.00     0.294 C 
BRANCH  32  33
ATOM     33  C   UNL     1      28.983  34.930  15.582  1.00  0.00     0.121 A 
ATOM     34  C   UNL     1      28.171  34.391  14.588  1.00  0.00     0.146 A 
ATOM     35  N   UNL     1      28.257  34.807  16.708  1.00  0.00    -0.131 NA
ATOM     36  N   UNL     1      26.994  33.965  15.128  1.00  0.00    -0.200 N 
ATOM     37  N   UNL     1      27.106  34.241  16.402  1.00  0.00    -0.060 NA
BRANCH  36  38
ATOM     38  C   UNL     1      25.952  33.361  14.368  1.00  0.00     0.186 A 
ATOM     39  N   UNL     1      25.443  33.841  13.194  1.00  0.00    -0.216 NA
ATOM     40  C   UNL     1      25.251  32.212  14.625  1.00  0.00     0.158 A 
ATOM     41  C   UNL     1      24.481  33.011  12.772  1.00  0.00     0.207 A 
ATOM     42  N   UNL     1      24.333  31.989  13.635  1.00  0.00    -0.291 N 
ATOM     43  C   UNL     1      25.311  31.308  15.639  1.00  0.00     0.279 A 
ATOM     44  C   UNL     1      23.513  30.922  13.646  1.00  0.00     0.071 A 
ATOM     45  N   UNL     1      24.519  30.240  15.689  1.00  0.00    -0.302 N 
ATOM     46  O   UNL     1      26.128  31.448  16.583  1.00  0.00    -0.267 OA
ATOM     47  C   UNL     1      22.599  30.730  12.630  1.00  0.00     0.029 A 
ATOM     48  C   UNL     1      23.622  30.041  14.701  1.00  0.00     0.068 A 
ATOM     49  C   UNL     1      21.742  29.641  12.615  1.00  0.00     0.002 A 
ATOM     50  C   UNL     1      22.753  28.960  14.664  1.00  0.00     0.028 A 
ATOM     51  C   UNL     1      21.834  28.755  13.653  1.00  0.00     0.002 A 
BRANCH  45  52
ATOM     52  C   UNL     1      24.534  29.241  16.735  1.00  0.00     0.085 C 
ATOM     53  C   UNL     1      24.197  29.948  18.031  1.00  0.00     0.031 C 
ATOM     54  C   UNL     1      25.847  28.550  16.921  1.00  0.00     0.031 C 
ENDBRANCH  45  52
ENDBRANCH  36  38
ENDBRANCH  32  33
ENDBRANCH  31  32
ENDBRANCH   2  31
TORSDOF 16
BEGIN_RES LYS A 131
REMARK  4 active torsions:
REMARK  status: ('A' for Active; 'I' for Inactive)
REMARK    1  A    between atoms: CA   and  CB  
REMARK    2  A    between atoms: CB   and  CG  
REMARK    3  A    between atoms: CG   and  CD  
REMARK    4  A    between atoms: CD   and  CE  
ROOT
ATOM      1  CA  LYS A 131      29.867  25.555  16.977  1.00 20.52     0.186 C 
ENDROOT
BRANCH   1   2
ATOM      2  CB  LYS A 131      28.345  25.722  17.026  1.00 20.94     0.034 C 
BRANCH   2   3
ATOM      3  CG  LYS A 131      27.602  24.399  16.928  1.00 22.96     0.005 C 
BRANCH   3   4
ATOM      4  CD  LYS A 131      26.159  24.527  17.332  1.00 24.33     0.041 C 
BRANCH   4   5
ATOM      5  CE  LYS A 131      25.913  23.720  18.602  1.00 26.91     0.338 C 
ATOM      6  NZ  LYS A 131      24.461  23.633  18.888  1.00 27.40     0.618 N 
ENDBRANCH   4   5
ENDBRANCH   3   4
ENDBRANCH   2   3
ENDBRANCH   1   2
END_RES LYS A 131
BEGIN_RES LYS A 135
REMARK  4 active torsions:
REMARK  status: ('A' for Active; 'I' for Inactive)
REMARK    5  A    between atoms: CA   and  CB  
REMARK    6  A    between atoms: CB   and  CG  
REMARK    7  A    between atoms: CG   and  CD  
REMARK    8  A    between atoms: CD   and  CE  
ROOT
ATOM      7  CA  LYS A 135      33.193  34.663   9.290  1.00 25.02     0.186 C 
ENDROOT
BRANCH   7   8
ATOM      8  CB  LYS A 135      32.060  35.360  10.034  1.00 26.63     0.034 C 
BRANCH   8   9
ATOM      9  CG  LYS A 135      30.705  34.756   9.771  1.00 29.45     0.005 C 
BRANCH   9  10
ATOM     10  CD  LYS A 135      30.511  34.500   8.284  1.00 32.00     0.041 C 
BRANCH  10  11
ATOM     11  CE  LYS A 135      29.124  34.929   7.847  1.00 34.25     0.338 C 
ATOM     12  NZ  LYS A 135      28.917  36.387   8.072  1.00 35.99     0.618 N 
ENDBRANCH  10  11
ENDBRANCH   9  10
ENDBRANCH   8   9
ENDBRANCH   7   8
END_RES LYS A 135
