REMARK VINA RESULT:    -5.302      3.563      9.462
REMARK INTER + INTRA:         -17.181
REMARK INTER:                 -12.609
REMARK INTRA:                  -4.572
REMARK UNBOUND:                -6.299
REMARK SMILES CC(=O)N[C@@H]1[C@@H](O)C[C@](O)(C(=O)O)O[C@H]1C(O)[C@H](O)CNC(=O)OCc1cn(C[C@@H](C(=O)O)C(c2ccccc2)c2ccccc2)nn1
REMARK SMILES IDX 21 1 22 2 23 3 20 5 18 6 16 7 15 8 9 9 8 10 14 11 6 12 5 13
REMARK SMILES IDX 10 14 11 16 12 17 13 18 7 20 4 22 2 23 1 25 3 26 17 27 19 29
REMARK SMILES IDX 24 31 25 32 26 33 27 34 48 35 28 36 47 37 29 38 30 39 31 40
REMARK SMILES IDX 32 41 33 42 34 44 35 45 36 46 40 47 37 48 39 49 38 50 41 51
REMARK SMILES IDX 42 52 46 53 43 54 45 55 44 56
REMARK H PARENT 21 4 10 15 13 19 7 21 4 24 17 28 19 30 33 43
REMARK Flexibility Score: inf
ROOT
ATOM      1  N   UNL     1      24.222  36.978  10.423  1.00  0.00    -0.319 N 
ATOM      2  C   UNL     1      23.816  35.731  10.965  1.00  0.00     0.407 C 
ATOM      3  O   UNL     1      22.761  35.177  10.538  1.00  0.00    -0.225 OA
ATOM      4  H   UNL     1      25.117  37.377  10.835  1.00  0.00     0.167 HD
ENDROOT
BRANCH   1   5
ATOM      5  C   UNL     1      23.494  37.673   9.388  1.00  0.00     0.154 C 
BRANCH   5   6
ATOM      6  C   UNL     1      23.923  37.247   7.983  1.00  0.00     0.165 C 
BRANCH   6   7
ATOM      7  C   UNL     1      25.299  37.803   7.778  1.00  0.00     0.176 C 
BRANCH   7   8
ATOM      8  C   UNL     1      26.359  36.745   7.657  1.00  0.00     0.178 C 
ATOM      9  C   UNL     1      28.032  35.760   8.924  1.00  0.00     0.269 C 
ATOM     10  C   UNL     1      28.413  35.040   7.656  1.00  0.00     0.112 C 
ATOM     11  O   UNL     1      26.811  36.375   8.893  1.00  0.00    -0.332 OA
ATOM     12  C   UNL     1      28.269  35.880   6.433  1.00  0.00     0.145 C 
ATOM     13  C   UNL     1      27.524  37.165   6.791  1.00  0.00     0.142 C 
BRANCH   9  14
ATOM     14  O   UNL     1      29.050  36.674   9.214  1.00  0.00    -0.357 OA
ATOM     15  H   UNL     1      29.806  36.581   8.573  1.00  0.00     0.214 HD
ENDBRANCH   9  14
BRANCH   9  16
ATOM     16  C   UNL     1      28.010  34.747  10.007  1.00  0.00     0.364 C 
ATOM     17  O   UNL     1      29.074  34.476  10.615  1.00  0.00    -0.246 OA
BRANCH  16  18
ATOM     18  O   UNL     1      26.852  34.092  10.369  1.00  0.00    -0.477 OA
ATOM     19  H   UNL     1      26.811  33.065  10.319  1.00  0.00     0.296 HD
ENDBRANCH  16  18
ENDBRANCH   9  16
BRANCH  12  20
ATOM     20  O   UNL     1      29.434  36.121   5.750  1.00  0.00    -0.391 OA
ATOM     21  H   UNL     1      30.088  36.602   6.321  1.00  0.00     0.211 HD
ENDBRANCH  12  20
BRANCH  13  22
ATOM     22  N   UNL     1      27.066  37.824   5.576  1.00  0.00    -0.348 N 
ATOM     23  C   UNL     1      27.800  38.931   5.090  1.00  0.00     0.217 C 
ATOM     24  H   UNL     1      26.222  37.469   5.101  1.00  0.00     0.163 HD
ATOM     25  C   UNL     1      27.381  39.638   3.861  1.00  0.00     0.114 C 
ATOM     26  O   UNL     1      28.824  39.334   5.697  1.00  0.00    -0.275 OA
ENDBRANCH  13  22
ENDBRANCH   7   8
BRANCH   7  27
ATOM     27  O   UNL     1      25.581  38.762   8.729  1.00  0.00    -0.388 OA
ATOM     28  H   UNL     1      25.492  38.423   9.664  1.00  0.00     0.211 HD
ENDBRANCH   7  27
ENDBRANCH   6   7
BRANCH   6  29
ATOM     29  O   UNL     1      23.002  37.845   7.105  1.00  0.00    -0.388 OA
ATOM     30  H   UNL     1      22.105  37.567   7.459  1.00  0.00     0.211 HD
ENDBRANCH   6  29
ENDBRANCH   5   6
ENDBRANCH   1   5
BRANCH   2  31
ATOM     31  O   UNL     1      24.547  35.104  11.953  1.00  0.00    -0.443 OA
BRANCH  31  32
ATOM     32  C   UNL     1      24.754  35.716  13.233  1.00  0.00     0.294 C 
BRANCH  32  33
ATOM     33  C   UNL     1      26.089  35.368  13.770  1.00  0.00     0.120 A 
ATOM     34  C   UNL     1      26.699  35.978  14.876  1.00  0.00     0.138 A 
ATOM     35  N   UNL     1      26.978  34.454  13.366  1.00  0.00    -0.132 NA
ATOM     36  N   UNL     1      27.895  35.433  15.099  1.00  0.00    -0.251 N 
ATOM     37  N   UNL     1      28.045  34.486  14.145  1.00  0.00    -0.067 NA
BRANCH  36  38
ATOM     38  C   UNL     1      28.912  35.655  16.086  1.00  0.00     0.162 C 
BRANCH  38  39
ATOM     39  C   UNL     1      29.021  34.639  17.174  1.00  0.00     0.132 C 
BRANCH  39  40
ATOM     40  C   UNL     1      27.724  34.026  17.466  1.00  0.00     0.309 C 
ATOM     41  O   UNL     1      26.903  34.418  18.313  1.00  0.00    -0.252 OA
BRANCH  40  42
ATOM     42  O   UNL     1      27.324  32.880  16.745  1.00  0.00    -0.481 OA
ATOM     43  H   UNL     1      26.391  32.867  16.324  1.00  0.00     0.296 HD
ENDBRANCH  40  42
ENDBRANCH  39  40
BRANCH  39  44
ATOM     44  C   UNL     1      30.094  33.605  16.881  1.00  0.00     0.065 C 
BRANCH  44  45
ATOM     45  C   UNL     1      30.408  32.792  18.079  1.00  0.00    -0.040 A 
ATOM     46  C   UNL     1      30.256  31.400  18.074  1.00  0.00     0.004 A 
ATOM     47  C   UNL     1      30.864  33.360  19.253  1.00  0.00     0.004 A 
ATOM     48  C   UNL     1      30.549  30.643  19.187  1.00  0.00     0.000 A 
ATOM     49  C   UNL     1      31.160  32.621  20.368  1.00  0.00     0.000 A 
ATOM     50  C   UNL     1      31.008  31.258  20.353  1.00  0.00     0.000 A 
ENDBRANCH  44  45
BRANCH  44  51
ATOM     51  C   UNL     1      31.340  34.176  16.360  1.00  0.00    -0.040 A 
ATOM     52  C   UNL     1      32.063  35.031  17.202  1.00  0.00     0.004 A 
ATOM     53  C   UNL     1      31.835  33.920  15.100  1.00  0.00     0.004 A 
ATOM     54  C   UNL     1      33.237  35.585  16.750  1.00  0.00     0.000 A 
ATOM     55  C   UNL     1      33.011  34.474  14.645  1.00  0.00     0.000 A 
ATOM     56  C   UNL     1      33.735  35.324  15.474  1.00  0.00     0.000 A 
ENDBRANCH  44  51
ENDBRANCH  39  44
ENDBRANCH  38  39
ENDBRANCH  36  38
ENDBRANCH  32  33
ENDBRANCH  31  32
ENDBRANCH   2  31
TORSDOF 21
BEGIN_RES LYS A 131
REMARK  4 active torsions:
REMARK  status: ('A' for Active; 'I' for Inactive)
REMARK    1  A    between atoms: CA   and  CB  
REMARK    2  A    between atoms: CB   and  CG  
REMARK    3  A    between atoms: CG   and  CD  
REMARK    4  A    between atoms: CD   and  CE  
ROOT
ATOM      1  CA  LYS A 131      29.867  25.555  16.977  1.00 20.52     0.186 C 
ENDROOT
BRANCH   1   2
ATOM      2  CB  LYS A 131      28.345  25.722  17.026  1.00 20.94     0.034 C 
BRANCH   2   3
ATOM      3  CG  LYS A 131      27.602  24.400  16.909  1.00 22.96     0.005 C 
BRANCH   3   4
ATOM      4  CD  LYS A 131      26.163  24.521  17.329  1.00 24.33     0.041 C 
BRANCH   4   5
ATOM      5  CE  LYS A 131      25.941  23.734  18.617  1.00 26.91     0.338 C 
ATOM      6  NZ  LYS A 131      24.589  23.127  18.628  1.00 27.40     0.618 N 
ENDBRANCH   4   5
ENDBRANCH   3   4
ENDBRANCH   2   3
ENDBRANCH   1   2
END_RES LYS A 131
BEGIN_RES LYS A 135
REMARK  4 active torsions:
REMARK  status: ('A' for Active; 'I' for Inactive)
REMARK    5  A    between atoms: CA   and  CB  
REMARK    6  A    between atoms: CB   and  CG  
REMARK    7  A    between atoms: CG   and  CD  
REMARK    8  A    between atoms: CD   and  CE  
ROOT
ATOM      7  CA  LYS A 135      33.193  34.663   9.290  1.00 25.02     0.186 C 
ENDROOT
BRANCH   7   8
ATOM      8  CB  LYS A 135      32.060  35.360  10.034  1.00 26.63     0.034 C 
BRANCH   8   9
ATOM      9  CG  LYS A 135      32.489  35.982  11.338  1.00 29.45     0.005 C 
BRANCH   9  10
ATOM     10  CD  LYS A 135      31.592  37.159  11.691  1.00 32.00     0.041 C 
BRANCH  10  11
ATOM     11  CE  LYS A 135      30.601  36.768  12.771  1.00 34.25     0.338 C 
ATOM     12  NZ  LYS A 135      29.280  37.417  12.548  1.00 35.99     0.618 N 
ENDBRANCH  10  11
ENDBRANCH   9  10
ENDBRANCH   8   9
ENDBRANCH   7   8
END_RES LYS A 135
