REMARK VINA RESULT:    -5.280      3.860      8.421
REMARK INTER + INTRA:         -14.861
REMARK INTER:                  -7.243
REMARK INTRA:                  -7.618
REMARK UNBOUND:                -5.414
REMARK SMILES CC(=O)N[C@@H]1[C@@H](O)C[C@](O)(C(=O)O)O[C@H]1C(O)[C@H](O)CNC(=O)OCc1cn(-c2ccccc2C(N)=O)nn1
REMARK SMILES IDX 21 1 22 2 23 3 20 5 18 6 16 7 15 8 9 9 8 10 14 11 6 12 5 13
REMARK SMILES IDX 10 14 11 16 12 17 13 18 7 20 4 22 2 23 1 25 3 26 17 27 19 29
REMARK SMILES IDX 24 31 25 32 26 33 27 34 39 35 28 36 38 37 29 38 34 39 30 40
REMARK SMILES IDX 33 41 31 42 32 43 35 44 37 45 36 46
REMARK H PARENT 21 4 10 15 13 19 7 21 4 24 17 28 19 30 36 47 36 48
REMARK Flexibility Score: inf
ROOT
ATOM      1  N   UNL     1      30.181  37.061  17.848  1.00  0.00    -0.319 N 
ATOM      2  C   UNL     1      29.225  36.863  18.878  1.00  0.00     0.407 C 
ATOM      3  O   UNL     1      28.512  37.818  19.233  1.00  0.00    -0.225 OA
ATOM      4  H   UNL     1      30.756  36.206  17.595  1.00  0.00     0.167 HD
ENDROOT
BRANCH   1   5
ATOM      5  C   UNL     1      30.402  38.307  17.158  1.00  0.00     0.154 C 
BRANCH   5   6
ATOM      6  C   UNL     1      29.998  38.241  15.695  1.00  0.00     0.165 C 
BRANCH   6   7
ATOM      7  C   UNL     1      31.059  37.602  14.849  1.00  0.00     0.176 C 
BRANCH   7   8
ATOM      8  C   UNL     1      30.837  36.167  14.554  1.00  0.00     0.178 C 
ATOM      9  C   UNL     1      29.133  34.583  14.793  1.00  0.00     0.269 C 
ATOM     10  C   UNL     1      30.079  33.764  13.966  1.00  0.00     0.112 C 
ATOM     11  O   UNL     1      29.513  35.874  14.976  1.00  0.00    -0.332 OA
ATOM     12  C   UNL     1      31.504  33.856  14.392  1.00  0.00     0.145 C 
ATOM     13  C   UNL     1      31.706  35.149  15.174  1.00  0.00     0.142 C 
BRANCH   9  14
ATOM     14  O   UNL     1      28.887  33.910  16.013  1.00  0.00    -0.357 OA
ATOM     15  H   UNL     1      29.676  33.320  16.193  1.00  0.00     0.214 HD
ENDBRANCH   9  14
BRANCH   9  16
ATOM     16  C   UNL     1      27.826  34.588  14.072  1.00  0.00     0.364 C 
ATOM     17  O   UNL     1      27.733  35.281  13.013  1.00  0.00    -0.246 OA
BRANCH  16  18
ATOM     18  O   UNL     1      26.718  33.884  14.489  1.00  0.00    -0.477 OA
ATOM     19  H   UNL     1      26.323  33.149  13.924  1.00  0.00     0.296 HD
ENDBRANCH  16  18
ENDBRANCH   9  16
BRANCH  12  20
ATOM     20  O   UNL     1      31.819  32.746  15.160  1.00  0.00    -0.391 OA
ATOM     21  H   UNL     1      31.428  32.768  16.069  1.00  0.00     0.211 HD
ENDBRANCH  12  20
BRANCH  13  22
ATOM     22  N   UNL     1      33.067  35.447  15.404  1.00  0.00    -0.348 N 
ATOM     23  C   UNL     1      33.566  35.738  16.691  1.00  0.00     0.217 C 
ATOM     24  H   UNL     1      33.755  35.440  14.625  1.00  0.00     0.163 HD
ATOM     25  C   UNL     1      34.979  36.056  16.988  1.00  0.00     0.114 C 
ATOM     26  O   UNL     1      32.759  35.725  17.645  1.00  0.00    -0.275 OA
ENDBRANCH  13  22
ENDBRANCH   7   8
BRANCH   7  27
ATOM     27  O   UNL     1      31.563  38.385  13.838  1.00  0.00    -0.388 OA
ATOM     28  H   UNL     1      31.183  39.313  13.903  1.00  0.00     0.211 HD
ENDBRANCH   7  27
ENDBRANCH   6   7
BRANCH   6  29
ATOM     29  O   UNL     1      29.497  39.426  15.235  1.00  0.00    -0.388 OA
ATOM     30  H   UNL     1      28.504  39.394  15.157  1.00  0.00     0.211 HD
ENDBRANCH   6  29
ENDBRANCH   5   6
ENDBRANCH   1   5
BRANCH   2  31
ATOM     31  O   UNL     1      29.054  35.635  19.508  1.00  0.00    -0.443 OA
BRANCH  31  32
ATOM     32  C   UNL     1      30.149  34.803  19.850  1.00  0.00     0.294 C 
BRANCH  32  33
ATOM     33  C   UNL     1      30.058  33.501  19.122  1.00  0.00     0.121 A 
ATOM     34  C   UNL     1      29.088  32.537  19.323  1.00  0.00     0.144 A 
ATOM     35  N   UNL     1      30.869  33.028  18.164  1.00  0.00    -0.131 NA
ATOM     36  N   UNL     1      29.356  31.505  18.466  1.00  0.00    -0.220 N 
ATOM     37  N   UNL     1      30.420  31.829  17.792  1.00  0.00    -0.062 NA
BRANCH  36  38
ATOM     38  C   UNL     1      28.585  30.302  18.369  1.00  0.00     0.079 A 
ATOM     39  C   UNL     1      27.984  29.913  17.195  1.00  0.00     0.065 A 
ATOM     40  C   UNL     1      28.454  29.518  19.510  1.00  0.00     0.029 A 
ATOM     41  C   UNL     1      27.249  28.724  17.180  1.00  0.00     0.016 A 
ATOM     42  C   UNL     1      27.727  28.353  19.476  1.00  0.00     0.002 A 
ATOM     43  C   UNL     1      27.128  27.967  18.306  1.00  0.00     0.001 A 
BRANCH  39  44
ATOM     44  C   UNL     1      28.083  30.685  15.966  1.00  0.00     0.250 C 
ATOM     45  O   UNL     1      27.041  31.311  15.583  1.00  0.00    -0.269 OA
ATOM     46  N   UNL     1      29.274  30.764  15.196  1.00  0.00    -0.366 N 
ATOM     47  H   UNL     1      30.104  31.293  15.509  1.00  0.00     0.159 HD
ATOM     48  H   UNL     1      29.267  30.250  14.264  1.00  0.00     0.159 HD
ENDBRANCH  39  44
ENDBRANCH  36  38
ENDBRANCH  32  33
ENDBRANCH  31  32
ENDBRANCH   2  31
TORSDOF 16
BEGIN_RES LYS A 131
REMARK  4 active torsions:
REMARK  status: ('A' for Active; 'I' for Inactive)
REMARK    1  A    between atoms: CA   and  CB  
REMARK    2  A    between atoms: CB   and  CG  
REMARK    3  A    between atoms: CG   and  CD  
REMARK    4  A    between atoms: CD   and  CE  
ROOT
ATOM      1  CA  LYS A 131      29.867  25.555  16.977  1.00 20.52     0.186 C 
ENDROOT
BRANCH   1   2
ATOM      2  CB  LYS A 131      28.345  25.722  17.026  1.00 20.94     0.034 C 
BRANCH   2   3
ATOM      3  CG  LYS A 131      27.601  24.403  16.887  1.00 22.96     0.005 C 
BRANCH   3   4
ATOM      4  CD  LYS A 131      26.154  24.524  17.279  1.00 24.33     0.041 C 
BRANCH   4   5
ATOM      5  CE  LYS A 131      25.971  24.031  18.710  1.00 26.91     0.338 C 
ATOM      6  NZ  LYS A 131      25.123  24.973  19.479  1.00 27.40     0.618 N 
ENDBRANCH   4   5
ENDBRANCH   3   4
ENDBRANCH   2   3
ENDBRANCH   1   2
END_RES LYS A 131
BEGIN_RES LYS A 135
REMARK  4 active torsions:
REMARK  status: ('A' for Active; 'I' for Inactive)
REMARK    5  A    between atoms: CA   and  CB  
REMARK    6  A    between atoms: CB   and  CG  
REMARK    7  A    between atoms: CG   and  CD  
REMARK    8  A    between atoms: CD   and  CE  
ROOT
ATOM      7  CA  LYS A 135      33.193  34.663   9.290  1.00 25.02     0.186 C 
ENDROOT
BRANCH   7   8
ATOM      8  CB  LYS A 135      32.060  35.360  10.034  1.00 26.63     0.034 C 
BRANCH   8   9
ATOM      9  CG  LYS A 135      30.705  34.755   9.771  1.00 29.45     0.005 C 
BRANCH   9  10
ATOM     10  CD  LYS A 135      30.540  34.427   8.295  1.00 32.00     0.041 C 
BRANCH  10  11
ATOM     11  CE  LYS A 135      29.230  34.982   7.769  1.00 34.25     0.338 C 
ATOM     12  NZ  LYS A 135      28.125  34.761   8.743  1.00 35.99     0.618 N 
ENDBRANCH  10  11
ENDBRANCH   9  10
ENDBRANCH   8   9
ENDBRANCH   7   8
END_RES LYS A 135
