REMARK VINA RESULT:    -3.567      0.000      0.000
REMARK INTER + INTRA:         -14.059
REMARK INTER:                  -8.611
REMARK INTRA:                  -5.448
REMARK UNBOUND:                -7.572
REMARK SMILES CC(=O)N[C@@H]1[C@@H](O)C[C@](O)(C(=O)O)O[C@H]1C(O)[C@H](O)CNC(=O)OCc1cn(CCO)nn1
REMARK SMILES IDX 21 1 22 2 23 3 20 5 18 6 16 7 15 8 9 9 8 10 14 11 6 12 5 13
REMARK SMILES IDX 10 14 11 16 12 17 13 18 7 20 4 22 2 23 1 25 3 26 17 27 19 29
REMARK SMILES IDX 24 31 25 32 26 33 27 34 33 35 28 36 32 37 29 38 30 39 31 40
REMARK H PARENT 21 4 10 15 13 19 7 21 4 24 17 28 19 30 31 41
REMARK Flexibility Score: inf
ROOT
ATOM      1  N   UNL     1      29.632  38.217   5.604  1.00  0.00    -0.319 N 
ATOM      2  C   UNL     1      29.564  39.614   5.640  1.00  0.00     0.407 C 
ATOM      3  O   UNL     1      28.519  40.188   5.347  1.00  0.00    -0.225 OA
ATOM      4  H   UNL     1      30.590  37.810   5.874  1.00  0.00     0.167 HD
ENDROOT
BRANCH   1   5
ATOM      5  C   UNL     1      28.639  37.271   5.267  1.00  0.00     0.154 C 
BRANCH   5   6
ATOM      6  C   UNL     1      28.368  36.168   6.240  1.00  0.00     0.165 C 
BRANCH   6   7
ATOM      7  C   UNL     1      27.464  36.599   7.356  1.00  0.00     0.176 C 
BRANCH   7   8
ATOM      8  C   UNL     1      27.910  37.662   8.266  1.00  0.00     0.178 C 
ATOM      9  C   UNL     1      29.665  38.567   9.455  1.00  0.00     0.269 C 
ATOM     10  C   UNL     1      28.786  39.798   9.405  1.00  0.00     0.112 C 
ATOM     11  O   UNL     1      29.232  37.542   8.614  1.00  0.00    -0.332 OA
ATOM     12  C   UNL     1      27.362  39.449   9.816  1.00  0.00     0.145 C 
ATOM     13  C   UNL     1      27.089  37.971   9.471  1.00  0.00     0.142 C 
BRANCH   9  14
ATOM     14  O   UNL     1      29.692  38.037  10.742  1.00  0.00    -0.357 OA
ATOM     15  H   UNL     1      30.181  37.186  10.795  1.00  0.00     0.214 HD
ENDBRANCH   9  14
BRANCH   9  16
ATOM     16  C   UNL     1      31.051  38.882   9.040  1.00  0.00     0.364 C 
ATOM     17  O   UNL     1      31.755  39.751   9.616  1.00  0.00    -0.246 OA
BRANCH  16  18
ATOM     18  O   UNL     1      31.606  38.198   7.974  1.00  0.00    -0.477 OA
ATOM     19  H   UNL     1      31.451  37.184   7.883  1.00  0.00     0.296 HD
ENDBRANCH  16  18
ENDBRANCH   9  16
BRANCH  12  20
ATOM     20  O   UNL     1      27.216  39.668  11.179  1.00  0.00    -0.391 OA
ATOM     21  H   UNL     1      27.887  39.096  11.636  1.00  0.00     0.211 HD
ENDBRANCH  12  20
BRANCH  13  22
ATOM     22  N   UNL     1      25.662  37.801   9.286  1.00  0.00    -0.348 N 
ATOM     23  C   UNL     1      24.895  37.275  10.357  1.00  0.00     0.217 C 
ATOM     24  H   UNL     1      25.185  38.053   8.386  1.00  0.00     0.163 HD
ATOM     25  C   UNL     1      23.426  37.063  10.258  1.00  0.00     0.114 C 
ATOM     26  O   UNL     1      25.464  36.974  11.431  1.00  0.00    -0.275 OA
ENDBRANCH  13  22
ENDBRANCH   7   8
BRANCH   7  27
ATOM     27  O   UNL     1      26.267  37.019   6.665  1.00  0.00    -0.388 OA
ATOM     28  H   UNL     1      26.140  36.437   5.896  1.00  0.00     0.211 HD
ENDBRANCH   7  27
ENDBRANCH   6   7
BRANCH   6  29
ATOM     29  O   UNL     1      29.508  35.569   6.661  1.00  0.00    -0.388 OA
ATOM     30  H   UNL     1      30.276  36.156   6.810  1.00  0.00     0.211 HD
ENDBRANCH   6  29
ENDBRANCH   5   6
ENDBRANCH   1   5
BRANCH   2  31
ATOM     31  O   UNL     1      30.663  40.388   6.004  1.00  0.00    -0.443 OA
BRANCH  31  32
ATOM     32  C   UNL     1      31.542  40.933   5.043  1.00  0.00     0.294 C 
BRANCH  32  33
ATOM     33  C   UNL     1      32.818  40.179   5.055  1.00  0.00     0.120 A 
ATOM     34  C   UNL     1      33.623  39.884   3.983  1.00  0.00     0.138 A 
ATOM     35  N   UNL     1      33.403  39.657   6.124  1.00  0.00    -0.132 NA
ATOM     36  N   UNL     1      34.663  39.189   4.480  1.00  0.00    -0.250 N 
ATOM     37  N   UNL     1      34.535  39.046   5.788  1.00  0.00    -0.067 NA
BRANCH  36  38
ATOM     38  C   UNL     1      35.757  38.678   3.679  1.00  0.00     0.174 C 
BRANCH  38  39
ATOM     39  C   UNL     1      36.611  37.761   4.550  1.00  0.00     0.179 C 
BRANCH  39  40
ATOM     40  O   UNL     1      37.413  36.964   3.709  1.00  0.00    -0.394 OA
ATOM     41  H   UNL     1      38.269  36.730   4.180  1.00  0.00     0.210 HD
ENDBRANCH  39  40
ENDBRANCH  38  39
ENDBRANCH  36  38
ENDBRANCH  32  33
ENDBRANCH  31  32
ENDBRANCH   2  31
TORSDOF 17
BEGIN_RES LYS A 131
REMARK  4 active torsions:
REMARK  status: ('A' for Active; 'I' for Inactive)
REMARK    1  A    between atoms: CA   and  CB  
REMARK    2  A    between atoms: CB   and  CG  
REMARK    3  A    between atoms: CG   and  CD  
REMARK    4  A    between atoms: CD   and  CE  
ROOT
ATOM      1  CA  LYS A 131      29.867  25.555  16.977  1.00 20.52     0.186 C 
ENDROOT
BRANCH   1   2
ATOM      2  CB  LYS A 131      28.345  25.722  17.026  1.00 20.94     0.034 C 
BRANCH   2   3
ATOM      3  CG  LYS A 131      27.599  24.438  16.696  1.00 22.96     0.005 C 
BRANCH   3   4
ATOM      4  CD  LYS A 131      26.595  24.078  17.757  1.00 24.33     0.041 C 
BRANCH   4   5
ATOM      5  CE  LYS A 131      25.185  24.264  17.207  1.00 26.91     0.338 C 
ATOM      6  NZ  LYS A 131      24.385  23.032  17.401  1.00 27.40     0.618 N 
ENDBRANCH   4   5
ENDBRANCH   3   4
ENDBRANCH   2   3
ENDBRANCH   1   2
END_RES LYS A 131
BEGIN_RES LYS A 135
REMARK  4 active torsions:
REMARK  status: ('A' for Active; 'I' for Inactive)
REMARK    5  A    between atoms: CA   and  CB  
REMARK    6  A    between atoms: CB   and  CG  
REMARK    7  A    between atoms: CG   and  CD  
REMARK    8  A    between atoms: CD   and  CE  
ROOT
ATOM      7  CA  LYS A 135      33.193  34.663   9.290  1.00 25.02     0.186 C 
ENDROOT
BRANCH   7   8
ATOM      8  CB  LYS A 135      32.060  35.360  10.034  1.00 26.63     0.034 C 
BRANCH   8   9
ATOM      9  CG  LYS A 135      30.713  34.721   9.815  1.00 29.45     0.005 C 
BRANCH   9  10
ATOM     10  CD  LYS A 135      29.862  34.819  11.072  1.00 32.00     0.041 C 
BRANCH  10  11
ATOM     11  CE  LYS A 135      28.405  34.546  10.752  1.00 34.25     0.338 C 
ATOM     12  NZ  LYS A 135      28.268  33.806   9.466  1.00 35.99     0.618 N 
ENDBRANCH  10  11
ENDBRANCH   9  10
ENDBRANCH   8   9
ENDBRANCH   7   8
END_RES LYS A 135
