REMARK VINA RESULT:    -5.130      4.425      8.003
REMARK INTER + INTRA:         -16.155
REMARK INTER:                 -12.344
REMARK INTRA:                  -3.811
REMARK UNBOUND:                -6.527
REMARK SMILES CC(=O)N[C@@H]1[C@@H](O)C[C@](O)(C(=O)O)O[C@H]1C(O)[C@H](O)CNC(=O)OCc1cn(-c2ccc(S(=O)(=O)c3ccc(N)cc3)cc2)nn1
REMARK SMILES IDX 21 1 22 2 23 3 20 5 18 6 16 7 15 8 9 9 8 10 14 11 6 12 5 13
REMARK SMILES IDX 10 14 11 16 12 17 13 18 7 20 4 22 2 23 1 25 3 26 17 27 19 29
REMARK SMILES IDX 24 31 25 32 26 33 27 34 46 35 28 36 45 37 29 38 30 39 44 40
REMARK SMILES IDX 31 41 43 42 32 43 33 44 34 45 35 46 36 47 37 48 42 49 38 50
REMARK SMILES IDX 41 51 39 52 40 53
REMARK H PARENT 21 4 10 15 13 19 7 21 4 24 17 28 19 30 40 54 40 55
REMARK Flexibility Score: inf
ROOT
ATOM      1  N   UNL     1      29.288  30.447  16.076  1.00  0.00    -0.319 N 
ATOM      2  C   UNL     1      28.180  29.974  16.819  1.00  0.00     0.407 C 
ATOM      3  O   UNL     1      28.159  30.100  18.048  1.00  0.00    -0.225 OA
ATOM      4  H   UNL     1      29.218  30.298  15.022  1.00  0.00     0.167 HD
ENDROOT
BRANCH   1   5
ATOM      5  C   UNL     1      30.455  31.089  16.636  1.00  0.00     0.154 C 
BRANCH   5   6
ATOM      6  C   UNL     1      30.793  32.292  15.823  1.00  0.00     0.165 C 
BRANCH   6   7
ATOM      7  C   UNL     1      30.196  33.567  16.378  1.00  0.00     0.176 C 
BRANCH   7   8
ATOM      8  C   UNL     1      30.660  34.815  15.706  1.00  0.00     0.178 C 
ATOM      9  C   UNL     1      32.522  35.559  14.546  1.00  0.00     0.269 C 
ATOM     10  C   UNL     1      32.012  36.961  14.670  1.00  0.00     0.112 C 
ATOM     11  O   UNL     1      31.531  34.600  14.663  1.00  0.00    -0.332 OA
ATOM     12  C   UNL     1      31.094  37.190  15.816  1.00  0.00     0.145 C 
ATOM     13  C   UNL     1      31.076  35.905  16.662  1.00  0.00     0.142 C 
BRANCH   9  14
ATOM     14  O   UNL     1      33.587  35.317  15.442  1.00  0.00    -0.357 OA
ATOM     15  H   UNL     1      34.338  35.881  15.188  1.00  0.00     0.214 HD
ENDBRANCH   9  14
BRANCH   9  16
ATOM     16  C   UNL     1      33.108  35.414  13.181  1.00  0.00     0.364 C 
ATOM     17  O   UNL     1      32.762  36.241  12.281  1.00  0.00    -0.246 OA
BRANCH  16  18
ATOM     18  O   UNL     1      34.005  34.437  12.830  1.00  0.00    -0.477 OA
ATOM     19  H   UNL     1      35.006  34.618  12.863  1.00  0.00     0.296 HD
ENDBRANCH  16  18
ENDBRANCH   9  16
BRANCH  12  20
ATOM     20  O   UNL     1      31.434  38.284  16.596  1.00  0.00    -0.391 OA
ATOM     21  H   UNL     1      30.986  39.108  16.223  1.00  0.00     0.211 HD
ENDBRANCH  12  20
BRANCH  13  22
ATOM     22  N   UNL     1      30.027  36.037  17.665  1.00  0.00    -0.348 N 
ATOM     23  C   UNL     1      30.330  35.856  19.037  1.00  0.00     0.217 C 
ATOM     24  H   UNL     1      29.041  36.262  17.414  1.00  0.00     0.163 HD
ATOM     25  C   UNL     1      29.269  35.981  20.099  1.00  0.00     0.114 C 
ATOM     26  O   UNL     1      31.479  35.583  19.446  1.00  0.00    -0.275 OA
ENDBRANCH  13  22
ENDBRANCH   7   8
BRANCH   7  27
ATOM     27  O   UNL     1      28.808  33.404  16.288  1.00  0.00    -0.388 OA
ATOM     28  H   UNL     1      28.525  33.720  15.404  1.00  0.00     0.211 HD
ENDBRANCH   7  27
ENDBRANCH   6   7
BRANCH   6  29
ATOM     29  O   UNL     1      30.498  32.090  14.483  1.00  0.00    -0.388 OA
ATOM     30  H   UNL     1      30.939  31.255  14.185  1.00  0.00     0.211 HD
ENDBRANCH   6  29
ENDBRANCH   5   6
ENDBRANCH   1   5
BRANCH   2  31
ATOM     31  O   UNL     1      27.083  29.358  16.226  1.00  0.00    -0.443 OA
BRANCH  31  32
ATOM     32  C   UNL     1      25.765  29.866  16.372  1.00  0.00     0.294 C 
BRANCH  32  33
ATOM     33  C   UNL     1      25.668  31.287  15.931  1.00  0.00     0.121 A 
ATOM     34  C   UNL     1      25.398  31.677  14.648  1.00  0.00     0.144 A 
ATOM     35  N   UNL     1      25.816  32.400  16.662  1.00  0.00    -0.131 NA
ATOM     36  N   UNL     1      25.388  33.030  14.623  1.00  0.00    -0.220 N 
ATOM     37  N   UNL     1      25.641  33.417  15.842  1.00  0.00    -0.062 NA
BRANCH  36  38
ATOM     38  C   UNL     1      25.139  33.785  13.448  1.00  0.00     0.066 A 
ATOM     39  C   UNL     1      23.876  33.817  12.898  1.00  0.00     0.030 A 
ATOM     40  C   UNL     1      26.125  34.508  12.813  1.00  0.00     0.030 A 
ATOM     41  C   UNL     1      23.589  34.541  11.753  1.00  0.00     0.023 A 
ATOM     42  C   UNL     1      25.846  35.243  11.657  1.00  0.00     0.023 A 
ATOM     43  C   UNL     1      24.579  35.259  11.127  1.00  0.00     0.072 A 
BRANCH  43  44
ATOM     44  S   UNL     1      24.220  36.163   9.698  1.00  0.00     0.206 S 
ATOM     45  O   UNL     1      23.852  37.562  10.061  1.00  0.00    -0.219 OA
ATOM     46  O   UNL     1      23.085  35.576   8.913  1.00  0.00    -0.219 OA
BRANCH  44  47
ATOM     47  C   UNL     1      25.648  36.123   8.669  1.00  0.00     0.072 A 
ATOM     48  C   UNL     1      26.258  34.920   8.433  1.00  0.00     0.023 A 
ATOM     49  C   UNL     1      26.162  37.281   8.094  1.00  0.00     0.023 A 
ATOM     50  C   UNL     1      27.387  34.842   7.627  1.00  0.00     0.027 A 
ATOM     51  C   UNL     1      27.286  37.238   7.284  1.00  0.00     0.027 A 
ATOM     52  C   UNL     1      27.870  36.012   7.073  1.00  0.00     0.031 A 
BRANCH  52  53
ATOM     53  N   UNL     1      29.017  35.946   6.251  1.00  0.00    -0.399 N 
ATOM     54  H   UNL     1      29.502  35.046   6.100  1.00  0.00     0.156 HD
ATOM     55  H   UNL     1      29.370  36.808   5.802  1.00  0.00     0.156 HD
ENDBRANCH  52  53
ENDBRANCH  44  47
ENDBRANCH  43  44
ENDBRANCH  36  38
ENDBRANCH  32  33
ENDBRANCH  31  32
ENDBRANCH   2  31
TORSDOF 18
BEGIN_RES LYS A 131
REMARK  4 active torsions:
REMARK  status: ('A' for Active; 'I' for Inactive)
REMARK    1  A    between atoms: CA   and  CB  
REMARK    2  A    between atoms: CB   and  CG  
REMARK    3  A    between atoms: CG   and  CD  
REMARK    4  A    between atoms: CD   and  CE  
ROOT
ATOM      1  CA  LYS A 131      29.867  25.555  16.977  1.00 20.52     0.186 C 
ENDROOT
BRANCH   1   2
ATOM      2  CB  LYS A 131      28.345  25.722  17.026  1.00 20.94     0.034 C 
BRANCH   2   3
ATOM      3  CG  LYS A 131      27.856  26.303  18.344  1.00 22.96     0.005 C 
BRANCH   3   4
ATOM      4  CD  LYS A 131      26.387  26.619  18.314  1.00 24.33     0.041 C 
BRANCH   4   5
ATOM      5  CE  LYS A 131      25.617  25.411  17.790  1.00 26.91     0.338 C 
ATOM      6  NZ  LYS A 131      24.209  25.454  18.249  1.00 27.40     0.618 N 
ENDBRANCH   4   5
ENDBRANCH   3   4
ENDBRANCH   2   3
ENDBRANCH   1   2
END_RES LYS A 131
BEGIN_RES LYS A 135
REMARK  4 active torsions:
REMARK  status: ('A' for Active; 'I' for Inactive)
REMARK    5  A    between atoms: CA   and  CB  
REMARK    6  A    between atoms: CB   and  CG  
REMARK    7  A    between atoms: CG   and  CD  
REMARK    8  A    between atoms: CD   and  CE  
ROOT
ATOM      7  CA  LYS A 135      33.193  34.663   9.290  1.00 25.02     0.186 C 
ENDROOT
BRANCH   7   8
ATOM      8  CB  LYS A 135      32.060  35.360  10.034  1.00 26.63     0.034 C 
BRANCH   8   9
ATOM      9  CG  LYS A 135      30.701  35.109   9.434  1.00 29.45     0.005 C 
BRANCH   9  10
ATOM     10  CD  LYS A 135      29.614  35.761  10.274  1.00 32.00     0.041 C 
BRANCH  10  11
ATOM     11  CE  LYS A 135      29.619  35.197  11.682  1.00 34.25     0.338 C 
ATOM     12  NZ  LYS A 135      29.244  36.239  12.678  1.00 35.99     0.618 N 
ENDBRANCH  10  11
ENDBRANCH   9  10
ENDBRANCH   8   9
ENDBRANCH   7   8
END_RES LYS A 135
