REMARK VINA RESULT:    -3.617      8.660     15.137
REMARK INTER + INTRA:         -15.658
REMARK INTER:                  -7.830
REMARK INTRA:                  -7.828
REMARK UNBOUND:                -8.446
REMARK SMILES CC(=O)N[C@@H]1[C@@H](O)C[C@](O)(C(=O)O)O[C@H]1C(O)[C@H](O)CNC(=O)OCc1cn(CC(O)Cn2ccnc2[N+](=O)[O-])nn1
REMARK SMILES IDX 24 1 22 2 21 3 23 5 20 6 18 7 16 8 15 9 9 10 8 11 14 12 6 13
REMARK SMILES IDX 5 14 10 15 11 17 12 18 13 19 7 21 4 23 2 24 1 26 3 27 17 28
REMARK SMILES IDX 19 30 25 32 26 33 27 34 42 35 28 36 41 37 29 38 30 39 31 40
REMARK SMILES IDX 32 42 33 43 34 44 37 45 35 46 36 47 38 48 39 49 40 50
REMARK H PARENT 21 4 10 16 13 20 7 22 4 25 17 29 19 31 31 41
REMARK Flexibility Score: inf
ROOT
ATOM      1  O   UNL     1      26.436  42.098   4.908  1.00  0.00    -0.443 OA
ENDROOT
BRANCH   1   2
ATOM      2  C   UNL     1      27.300  40.991   4.938  1.00  0.00     0.407 C 
ATOM      3  N   UNL     1      26.852  39.672   4.808  1.00  0.00    -0.319 N 
ATOM      4  H   UNL     1      25.806  39.523   4.684  1.00  0.00     0.167 HD
ATOM      5  O   UNL     1      28.504  41.241   5.088  1.00  0.00    -0.225 OA
BRANCH   3   6
ATOM      6  C   UNL     1      27.705  38.508   4.831  1.00  0.00     0.154 C 
BRANCH   6   7
ATOM      7  C   UNL     1      27.896  38.090   6.264  1.00  0.00     0.165 C 
BRANCH   7   8
ATOM      8  C   UNL     1      29.376  37.917   6.510  1.00  0.00     0.176 C 
BRANCH   8   9
ATOM      9  C   UNL     1      29.766  38.440   7.886  1.00  0.00     0.178 C 
ATOM     10  C   UNL     1      28.731  39.052   9.881  1.00  0.00     0.269 C 
ATOM     11  C   UNL     1      29.811  40.114   9.960  1.00  0.00     0.112 C 
ATOM     12  O   UNL     1      28.603  38.618   8.584  1.00  0.00    -0.332 OA
ATOM     13  C   UNL     1      29.968  40.772   8.608  1.00  0.00     0.145 C 
ATOM     14  C   UNL     1      30.565  39.715   7.685  1.00  0.00     0.142 C 
BRANCH  10  15
ATOM     15  O   UNL     1      27.486  39.595  10.254  1.00  0.00    -0.357 OA
ATOM     16  H   UNL     1      27.393  40.446   9.768  1.00  0.00     0.214 HD
ENDBRANCH  10  15
BRANCH  10  17
ATOM     17  C   UNL     1      29.012  37.903  10.752  1.00  0.00     0.364 C 
ATOM     18  O   UNL     1      28.151  37.030  10.945  1.00  0.00    -0.246 OA
BRANCH  17  19
ATOM     19  O   UNL     1      30.244  37.781  11.369  1.00  0.00    -0.477 OA
ATOM     20  H   UNL     1      30.587  36.884  11.660  1.00  0.00     0.296 HD
ENDBRANCH  17  19
ENDBRANCH  10  17
BRANCH  13  21
ATOM     21  O   UNL     1      28.762  41.152   8.041  1.00  0.00    -0.391 OA
ATOM     22  H   UNL     1      28.213  40.367   7.846  1.00  0.00     0.211 HD
ENDBRANCH  13  21
BRANCH  14  23
ATOM     23  N   UNL     1      31.951  39.541   8.013  1.00  0.00    -0.348 N 
ATOM     24  C   UNL     1      32.958  39.854   7.077  1.00  0.00     0.217 C 
ATOM     25  H   UNL     1      32.284  39.178   8.945  1.00  0.00     0.163 HD
ATOM     26  C   UNL     1      34.400  39.669   7.425  1.00  0.00     0.114 C 
ATOM     27  O   UNL     1      32.665  40.293   5.935  1.00  0.00    -0.275 OA
ENDBRANCH  14  23
ENDBRANCH   8   9
BRANCH   8  28
ATOM     28  O   UNL     1      30.062  38.680   5.586  1.00  0.00    -0.388 OA
ATOM     29  H   UNL     1      30.663  38.146   5.016  1.00  0.00     0.211 HD
ENDBRANCH   8  28
ENDBRANCH   7   8
BRANCH   7  30
ATOM     30  O   UNL     1      27.177  36.940   6.579  1.00  0.00    -0.388 OA
ATOM     31  H   UNL     1      26.768  36.623   5.735  1.00  0.00     0.211 HD
ENDBRANCH   7  30
ENDBRANCH   6   7
ENDBRANCH   3   6
ENDBRANCH   1   2
BRANCH   1  32
ATOM     32  C   UNL     1      25.851  42.569   6.132  1.00  0.00     0.294 C 
BRANCH  32  33
ATOM     33  C   UNL     1      25.316  41.470   6.929  1.00  0.00     0.120 A 
ATOM     34  C   UNL     1      24.082  40.888   6.777  1.00  0.00     0.138 A 
ATOM     35  N   UNL     1      25.949  40.854   7.939  1.00  0.00    -0.132 NA
ATOM     36  N   UNL     1      24.001  39.927   7.708  1.00  0.00    -0.249 N 
ATOM     37  N   UNL     1      25.122  39.924   8.389  1.00  0.00    -0.067 NA
BRANCH  36  38
ATOM     38  C   UNL     1      22.830  39.053   7.893  1.00  0.00     0.181 C 
BRANCH  38  39
ATOM     39  C   UNL     1      23.277  37.615   8.031  1.00  0.00     0.170 C 
BRANCH  39  40
ATOM     40  O   UNL     1      24.342  37.466   7.115  1.00  0.00    -0.388 OA
ATOM     41  H   UNL     1      25.143  37.098   7.532  1.00  0.00     0.211 HD
ENDBRANCH  39  40
BRANCH  39  42
ATOM     42  C   UNL     1      22.139  36.708   7.687  1.00  0.00     0.239 C 
BRANCH  42  43
ATOM     43  N   UNL     1      21.684  36.060   8.921  1.00  0.00    -0.227 N 
ATOM     44  C   UNL     1      22.422  35.854  10.036  1.00  0.00     0.204 A 
ATOM     45  C   UNL     1      20.462  35.594   9.111  1.00  0.00     0.434 A 
ATOM     46  C   UNL     1      21.623  35.239  10.944  1.00  0.00     0.245 A 
ATOM     47  N   UNL     1      20.430  35.084  10.373  1.00  0.00    -0.074 NA
BRANCH  45  48
ATOM     48  N   UNL     1      19.352  35.598   8.197  1.00  0.00    -0.047 N 
ATOM     49  O   UNL     1      19.158  34.701   7.361  1.00  0.00    -0.390 OA
ATOM     50  O   UNL     1      18.453  36.644   8.244  1.00  0.00    -0.390 OA
ENDBRANCH  45  48
ENDBRANCH  42  43
ENDBRANCH  39  42
ENDBRANCH  38  39
ENDBRANCH  36  38
ENDBRANCH  32  33
ENDBRANCH   1  32
TORSDOF 20
BEGIN_RES LYS A 131
REMARK  4 active torsions:
REMARK  status: ('A' for Active; 'I' for Inactive)
REMARK    1  A    between atoms: CA   and  CB  
REMARK    2  A    between atoms: CB   and  CG  
REMARK    3  A    between atoms: CG   and  CD  
REMARK    4  A    between atoms: CD   and  CE  
ROOT
ATOM      1  CA  LYS A 131      29.867  25.555  16.977  1.00 20.52     0.186 C 
ENDROOT
BRANCH   1   2
ATOM      2  CB  LYS A 131      28.345  25.722  17.026  1.00 20.94     0.034 C 
BRANCH   2   3
ATOM      3  CG  LYS A 131      27.599  24.476  16.575  1.00 22.96     0.005 C 
BRANCH   3   4
ATOM      4  CD  LYS A 131      27.144  23.636  17.737  1.00 24.33     0.041 C 
BRANCH   4   5
ATOM      5  CE  LYS A 131      25.702  23.988  18.085  1.00 26.91     0.338 C 
ATOM      6  NZ  LYS A 131      25.514  24.013  19.555  1.00 27.40     0.618 N 
ENDBRANCH   4   5
ENDBRANCH   3   4
ENDBRANCH   2   3
ENDBRANCH   1   2
END_RES LYS A 131
BEGIN_RES LYS A 135
REMARK  4 active torsions:
REMARK  status: ('A' for Active; 'I' for Inactive)
REMARK    5  A    between atoms: CA   and  CB  
REMARK    6  A    between atoms: CB   and  CG  
REMARK    7  A    between atoms: CG   and  CD  
REMARK    8  A    between atoms: CD   and  CE  
ROOT
ATOM      7  CA  LYS A 135      33.193  34.663   9.290  1.00 25.02     0.186 C 
ENDROOT
BRANCH   7   8
ATOM      8  CB  LYS A 135      32.060  35.360  10.034  1.00 26.63     0.034 C 
BRANCH   8   9
ATOM      9  CG  LYS A 135      30.726  34.676   9.879  1.00 29.45     0.005 C 
BRANCH   9  10
ATOM     10  CD  LYS A 135      30.246  34.758   8.438  1.00 32.00     0.041 C 
BRANCH  10  11
ATOM     11  CE  LYS A 135      28.765  34.439   8.351  1.00 34.25     0.338 C 
ATOM     12  NZ  LYS A 135      28.274  33.828   9.618  1.00 35.99     0.618 N 
ENDBRANCH  10  11
ENDBRANCH   9  10
ENDBRANCH   8   9
ENDBRANCH   7   8
END_RES LYS A 135
