REMARK VINA RESULT:    -5.400      9.536     15.345
REMARK INTER + INTRA:         -14.951
REMARK INTER:                  -8.691
REMARK INTRA:                  -6.261
REMARK UNBOUND:                -5.290
REMARK SMILES CC(=O)N[C@@H]1[C@@H](O)C[C@](O)(C(=O)O)O[C@H]1C(O)[C@H](O)CNC(=O)OCc1cn(Cc2ccccc2)nn1
REMARK SMILES IDX 21 1 22 2 23 3 20 5 18 6 16 7 15 8 9 9 8 10 14 11 6 12 5 13
REMARK SMILES IDX 10 14 11 16 12 17 13 18 7 20 4 22 2 23 1 25 3 26 17 27 19 29
REMARK SMILES IDX 24 31 25 32 26 33 27 34 37 35 28 36 36 37 29 38 30 39 31 40
REMARK SMILES IDX 35 41 32 42 34 43 33 44
REMARK H PARENT 21 4 10 15 13 19 7 21 4 24 17 28 19 30
REMARK Flexibility Score: inf
ROOT
ATOM      1  N   UNL     1      29.367  27.005  20.288  1.00  0.00    -0.319 N 
ATOM      2  C   UNL     1      28.007  27.358  20.397  1.00  0.00     0.407 C 
ATOM      3  O   UNL     1      27.490  27.684  21.478  1.00  0.00    -0.225 OA
ATOM      4  H   UNL     1      29.692  26.751  19.318  1.00  0.00     0.167 HD
ENDROOT
BRANCH   1   5
ATOM      5  C   UNL     1      30.263  26.983  21.402  1.00  0.00     0.154 C 
BRANCH   5   6
ATOM      6  C   UNL     1      31.547  27.694  21.039  1.00  0.00     0.165 C 
BRANCH   6   7
ATOM      7  C   UNL     1      31.323  29.166  20.838  1.00  0.00     0.176 C 
BRANCH   7   8
ATOM      8  C   UNL     1      32.536  30.008  21.158  1.00  0.00     0.178 C 
ATOM      9  C   UNL     1      34.149  29.907  22.846  1.00  0.00     0.269 C 
ATOM     10  C   UNL     1      34.535  31.322  22.385  1.00  0.00     0.112 C 
ATOM     11  O   UNL     1      33.522  29.315  21.790  1.00  0.00    -0.332 OA
ATOM     12  C   UNL     1      33.213  32.084  22.430  1.00  0.00     0.145 C 
ATOM     13  C   UNL     1      32.107  31.300  21.760  1.00  0.00     0.142 C 
BRANCH   9  14
ATOM     14  O   UNL     1      33.426  29.961  24.019  1.00  0.00    -0.357 OA
ATOM     15  H   UNL     1      33.840  29.356  24.670  1.00  0.00     0.214 HD
ENDBRANCH   9  14
BRANCH   9  16
ATOM     16  C   UNL     1      35.445  29.170  23.061  1.00  0.00     0.364 C 
ATOM     17  O   UNL     1      35.469  27.951  23.327  1.00  0.00    -0.246 OA
BRANCH  16  18
ATOM     18  O   UNL     1      36.648  29.844  22.968  1.00  0.00    -0.477 OA
ATOM     19  H   UNL     1      36.946  30.177  22.066  1.00  0.00     0.296 HD
ENDBRANCH  16  18
ENDBRANCH   9  16
BRANCH  12  20
ATOM     20  O   UNL     1      32.946  32.299  23.782  1.00  0.00    -0.391 OA
ATOM     21  H   UNL     1      32.660  33.230  23.910  1.00  0.00     0.211 HD
ENDBRANCH  12  20
BRANCH  13  22
ATOM     22  N   UNL     1      31.531  32.105  20.667  1.00  0.00    -0.348 N 
ATOM     23  C   UNL     1      30.298  32.790  20.792  1.00  0.00     0.217 C 
ATOM     24  H   UNL     1      32.055  32.178  19.748  1.00  0.00     0.163 HD
ATOM     25  C   UNL     1      29.679  33.610  19.722  1.00  0.00     0.114 C 
ATOM     26  O   UNL     1      29.682  32.700  21.884  1.00  0.00    -0.275 OA
ENDBRANCH  13  22
ENDBRANCH   7   8
BRANCH   7  27
ATOM     27  O   UNL     1      30.201  29.557  21.541  1.00  0.00    -0.388 OA
ATOM     28  H   UNL     1      30.092  30.532  21.436  1.00  0.00     0.211 HD
ENDBRANCH   7  27
ENDBRANCH   6   7
BRANCH   6  29
ATOM     29  O   UNL     1      32.013  27.065  19.884  1.00  0.00    -0.388 OA
ATOM     30  H   UNL     1      31.319  26.964  19.196  1.00  0.00     0.211 HD
ENDBRANCH   6  29
ENDBRANCH   5   6
ENDBRANCH   1   5
BRANCH   2  31
ATOM     31  O   UNL     1      27.183  27.355  19.273  1.00  0.00    -0.443 OA
BRANCH  31  32
ATOM     32  C   UNL     1      26.614  28.561  18.825  1.00  0.00     0.294 C 
BRANCH  32  33
ATOM     33  C   UNL     1      27.621  29.434  18.173  1.00  0.00     0.120 A 
ATOM     34  C   UNL     1      27.710  29.703  16.834  1.00  0.00     0.138 A 
ATOM     35  N   UNL     1      28.609  30.097  18.781  1.00  0.00    -0.132 NA
ATOM     36  N   UNL     1      28.756  30.529  16.663  1.00  0.00    -0.248 N 
ATOM     37  N   UNL     1      29.286  30.752  17.870  1.00  0.00    -0.067 NA
BRANCH  36  38
ATOM     38  C   UNL     1      29.265  31.102  15.442  1.00  0.00     0.181 C 
BRANCH  38  39
ATOM     39  C   UNL     1      29.924  32.411  15.698  1.00  0.00    -0.026 A 
ATOM     40  C   UNL     1      31.308  32.529  15.721  1.00  0.00     0.005 A 
ATOM     41  C   UNL     1      29.202  33.557  15.921  1.00  0.00     0.005 A 
ATOM     42  C   UNL     1      31.910  33.740  15.958  1.00  0.00     0.000 A 
ATOM     43  C   UNL     1      29.799  34.782  16.160  1.00  0.00     0.000 A 
ATOM     44  C   UNL     1      31.171  34.883  16.180  1.00  0.00     0.000 A 
ENDBRANCH  38  39
ENDBRANCH  36  38
ENDBRANCH  32  33
ENDBRANCH  31  32
ENDBRANCH   2  31
TORSDOF 16
BEGIN_RES LYS A 131
REMARK  4 active torsions:
REMARK  status: ('A' for Active; 'I' for Inactive)
REMARK    1  A    between atoms: CA   and  CB  
REMARK    2  A    between atoms: CB   and  CG  
REMARK    3  A    between atoms: CG   and  CD  
REMARK    4  A    between atoms: CD   and  CE  
ROOT
ATOM      1  CA  LYS A 131      29.867  25.555  16.977  1.00 20.52     0.186 C 
ENDROOT
BRANCH   1   2
ATOM      2  CB  LYS A 131      28.345  25.722  17.026  1.00 20.94     0.034 C 
BRANCH   2   3
ATOM      3  CG  LYS A 131      27.599  24.442  16.682  1.00 22.96     0.005 C 
BRANCH   3   4
ATOM      4  CD  LYS A 131      27.014  23.783  17.901  1.00 24.33     0.041 C 
BRANCH   4   5
ATOM      5  CE  LYS A 131      25.609  23.282  17.584  1.00 26.91     0.338 C 
ATOM      6  NZ  LYS A 131      24.784  24.375  17.016  1.00 27.40     0.618 N 
ENDBRANCH   4   5
ENDBRANCH   3   4
ENDBRANCH   2   3
ENDBRANCH   1   2
END_RES LYS A 131
BEGIN_RES LYS A 135
REMARK  4 active torsions:
REMARK  status: ('A' for Active; 'I' for Inactive)
REMARK    5  A    between atoms: CA   and  CB  
REMARK    6  A    between atoms: CB   and  CG  
REMARK    7  A    between atoms: CG   and  CD  
REMARK    8  A    between atoms: CD   and  CE  
ROOT
ATOM      7  CA  LYS A 135      33.193  34.663   9.290  1.00 25.02     0.186 C 
ENDROOT
BRANCH   7   8
ATOM      8  CB  LYS A 135      32.060  35.360  10.034  1.00 26.63     0.034 C 
BRANCH   8   9
ATOM      9  CG  LYS A 135      30.717  34.707   9.834  1.00 29.45     0.005 C 
BRANCH   9  10
ATOM     10  CD  LYS A 135      30.443  34.483   8.355  1.00 32.00     0.041 C 
BRANCH  10  11
ATOM     11  CE  LYS A 135      28.994  34.789   8.029  1.00 34.25     0.338 C 
ATOM     12  NZ  LYS A 135      28.075  34.123   8.993  1.00 35.99     0.618 N 
ENDBRANCH  10  11
ENDBRANCH   9  10
ENDBRANCH   8   9
ENDBRANCH   7   8
END_RES LYS A 135
