REMARK VINA RESULT:    -5.009      6.160     10.220
REMARK INTER + INTRA:         -15.749
REMARK INTER:                 -10.139
REMARK INTRA:                  -5.610
REMARK UNBOUND:                -5.909
REMARK SMILES CC(=O)N[C@@H]1[C@@H](O)C[C@](O)(C(=O)O)O[C@H]1C(O)[C@H](O)CNC(=O)OCc1cn(CCNC(=O)NCc2ccco2)nn1
REMARK SMILES IDX 24 1 22 2 21 3 23 5 20 6 18 7 16 8 15 9 9 10 8 11 14 12 6 13
REMARK SMILES IDX 5 14 10 15 11 17 12 18 13 19 7 21 4 23 2 24 1 26 3 27 17 28
REMARK SMILES IDX 19 30 25 32 26 33 27 34 42 35 28 36 41 37 29 38 30 39 31 40
REMARK SMILES IDX 32 41 33 43 34 44 35 46 36 47 37 48 40 49 38 50 39 51
REMARK H PARENT 21 4 10 16 13 20 7 22 4 25 17 29 19 31 31 42 34 45
REMARK Flexibility Score: inf
ROOT
ATOM      1  O   UNL     1      26.873  37.531  11.030  1.00  0.00    -0.443 OA
ENDROOT
BRANCH   1   2
ATOM      2  C   UNL     1      27.247  36.435  11.800  1.00  0.00     0.407 C 
ATOM      3  N   UNL     1      26.354  35.628  12.519  1.00  0.00    -0.319 N 
ATOM      4  H   UNL     1      25.345  35.832  12.497  1.00  0.00     0.167 HD
ATOM      5  O   UNL     1      28.474  36.157  11.849  1.00  0.00    -0.225 OA
BRANCH   3   6
ATOM      6  C   UNL     1      26.858  34.494  13.300  1.00  0.00     0.154 C 
BRANCH   6   7
ATOM      7  C   UNL     1      26.766  34.834  14.764  1.00  0.00     0.165 C 
BRANCH   7   8
ATOM      8  C   UNL     1      28.099  35.200  15.355  1.00  0.00     0.176 C 
BRANCH   8   9
ATOM      9  C   UNL     1      29.073  34.058  15.345  1.00  0.00     0.178 C 
ATOM     10  C   UNL     1      29.840  32.395  16.796  1.00  0.00     0.269 C 
ATOM     11  C   UNL     1      31.126  32.278  16.046  1.00  0.00     0.112 C 
ATOM     12  O   UNL     1      29.186  33.577  16.662  1.00  0.00    -0.332 OA
ATOM     13  C   UNL     1      31.257  33.142  14.857  1.00  0.00     0.145 C 
ATOM     14  C   UNL     1      30.483  34.442  14.970  1.00  0.00     0.142 C 
BRANCH  10  15
ATOM     15  O   UNL     1      30.196  32.295  18.167  1.00  0.00    -0.357 OA
ATOM     16  H   UNL     1      31.174  32.387  18.282  1.00  0.00     0.214 HD
ENDBRANCH  10  15
BRANCH  10  17
ATOM     17  C   UNL     1      28.908  31.274  16.525  1.00  0.00     0.364 C 
ATOM     18  O   UNL     1      27.707  31.303  16.916  1.00  0.00    -0.246 OA
BRANCH  17  19
ATOM     19  O   UNL     1      29.290  30.131  15.832  1.00  0.00    -0.477 OA
ATOM     20  H   UNL     1      28.624  29.657  15.230  1.00  0.00     0.296 HD
ENDBRANCH  17  19
ENDBRANCH  10  17
BRANCH  13  21
ATOM     21  O   UNL     1      32.619  33.422  14.618  1.00  0.00    -0.391 OA
ATOM     22  H   UNL     1      33.078  32.666  14.201  1.00  0.00     0.211 HD
ENDBRANCH  13  21
BRANCH  14  23
ATOM     23  N   UNL     1      30.621  35.216  13.784  1.00  0.00    -0.348 N 
ATOM     24  C   UNL     1      31.619  36.238  13.741  1.00  0.00     0.217 C 
ATOM     25  H   UNL     1      30.047  35.089  12.924  1.00  0.00     0.163 HD
ATOM     26  C   UNL     1      31.842  37.095  12.557  1.00  0.00     0.114 C 
ATOM     27  O   UNL     1      32.358  36.435  14.750  1.00  0.00    -0.275 OA
ENDBRANCH  14  23
ENDBRANCH   8   9
BRANCH   8  28
ATOM     28  O   UNL     1      28.615  36.388  14.869  1.00  0.00    -0.388 OA
ATOM     29  H   UNL     1      28.148  37.195  15.203  1.00  0.00     0.211 HD
ENDBRANCH   8  28
ENDBRANCH   7   8
BRANCH   7  30
ATOM     30  O   UNL     1      26.393  33.624  15.410  1.00  0.00    -0.388 OA
ATOM     31  H   UNL     1      25.484  33.829  15.791  1.00  0.00     0.211 HD
ENDBRANCH   7  30
ENDBRANCH   6   7
ENDBRANCH   3   6
ENDBRANCH   1   2
BRANCH   1  32
ATOM     32  C   UNL     1      26.819  37.458   9.621  1.00  0.00     0.294 C 
BRANCH  32  33
ATOM     33  C   UNL     1      25.479  36.963   9.234  1.00  0.00     0.120 A 
ATOM     34  C   UNL     1      24.585  37.570   8.396  1.00  0.00     0.138 A 
ATOM     35  N   UNL     1      24.909  35.819   9.645  1.00  0.00    -0.132 NA
ATOM     36  N   UNL     1      23.498  36.782   8.320  1.00  0.00    -0.250 N 
ATOM     37  N   UNL     1      23.699  35.717   9.080  1.00  0.00    -0.067 NA
BRANCH  36  38
ATOM     38  C   UNL     1      22.282  37.027   7.539  1.00  0.00     0.167 C 
BRANCH  38  39
ATOM     39  C   UNL     1      21.118  36.502   8.338  1.00  0.00     0.141 C 
BRANCH  39  40
ATOM     40  N   UNL     1      20.462  35.456   7.596  1.00  0.00    -0.336 N 
ATOM     41  C   UNL     1      19.126  35.043   7.812  1.00  0.00     0.315 C 
ATOM     42  H   UNL     1      20.990  34.945   6.833  1.00  0.00     0.165 HD
ATOM     43  O   UNL     1      18.456  35.629   8.715  1.00  0.00    -0.249 OA
ATOM     44  N   UNL     1      18.570  33.998   7.029  1.00  0.00    -0.331 N 
ATOM     45  H   UNL     1      19.095  33.503   6.286  1.00  0.00     0.165 HD
BRANCH  44  46
ATOM     46  C   UNL     1      17.202  33.604   7.279  1.00  0.00     0.193 C 
BRANCH  46  47
ATOM     47  C   UNL     1      17.195  32.194   7.724  1.00  0.00     0.122 A 
ATOM     48  C   UNL     1      17.119  31.802   9.057  1.00  0.00     0.047 A 
ATOM     49  O   UNL     1      17.258  31.134   6.981  1.00  0.00    -0.467 OA
ATOM     50  C   UNL     1      17.141  30.424   9.036  1.00  0.00     0.042 A 
ATOM     51  C   UNL     1      17.229  30.059   7.708  1.00  0.00     0.195 A 
ENDBRANCH  46  47
ENDBRANCH  44  46
ENDBRANCH  39  40
ENDBRANCH  38  39
ENDBRANCH  36  38
ENDBRANCH  32  33
ENDBRANCH   1  32
TORSDOF 19
BEGIN_RES LYS A 131
REMARK  4 active torsions:
REMARK  status: ('A' for Active; 'I' for Inactive)
REMARK    1  A    between atoms: CA   and  CB  
REMARK    2  A    between atoms: CB   and  CG  
REMARK    3  A    between atoms: CG   and  CD  
REMARK    4  A    between atoms: CD   and  CE  
ROOT
ATOM      1  CA  LYS A 131      29.867  25.555  16.977  1.00 20.52     0.186 C 
ENDROOT
BRANCH   1   2
ATOM      2  CB  LYS A 131      28.345  25.722  17.026  1.00 20.94     0.034 C 
BRANCH   2   3
ATOM      3  CG  LYS A 131      27.599  24.423  16.763  1.00 22.96     0.005 C 
BRANCH   3   4
ATOM      4  CD  LYS A 131      26.885  23.922  17.987  1.00 24.33     0.041 C 
BRANCH   4   5
ATOM      5  CE  LYS A 131      25.921  24.993  18.488  1.00 26.91     0.338 C 
ATOM      6  NZ  LYS A 131      24.747  25.095  17.589  1.00 27.40     0.618 N 
ENDBRANCH   4   5
ENDBRANCH   3   4
ENDBRANCH   2   3
ENDBRANCH   1   2
END_RES LYS A 131
BEGIN_RES LYS A 135
REMARK  4 active torsions:
REMARK  status: ('A' for Active; 'I' for Inactive)
REMARK    5  A    between atoms: CA   and  CB  
REMARK    6  A    between atoms: CB   and  CG  
REMARK    7  A    between atoms: CG   and  CD  
REMARK    8  A    between atoms: CD   and  CE  
ROOT
ATOM      7  CA  LYS A 135      33.193  34.663   9.290  1.00 25.02     0.186 C 
ENDROOT
BRANCH   7   8
ATOM      8  CB  LYS A 135      32.060  35.360  10.034  1.00 26.63     0.034 C 
BRANCH   8   9
ATOM      9  CG  LYS A 135      30.800  35.500   9.219  1.00 29.45     0.005 C 
BRANCH   9  10
ATOM     10  CD  LYS A 135      30.092  34.160   9.092  1.00 32.00     0.041 C 
BRANCH  10  11
ATOM     11  CE  LYS A 135      28.639  34.360   8.706  1.00 34.25     0.338 C 
ATOM     12  NZ  LYS A 135      27.732  33.624   9.630  1.00 35.99     0.618 N 
ENDBRANCH  10  11
ENDBRANCH   9  10
ENDBRANCH   8   9
ENDBRANCH   7   8
END_RES LYS A 135
