REMARK VINA RESULT:    -5.337      2.215      6.164
REMARK INTER + INTRA:         -17.251
REMARK INTER:                  -9.835
REMARK INTRA:                  -7.417
REMARK UNBOUND:                -6.299
REMARK SMILES CC(=O)N[C@@H]1[C@@H](O)C[C@](O)(C(=O)O)O[C@H]1C(O)[C@H](O)CNC(=O)OCc1cn(C[C@@H](C(=O)O)C(c2ccccc2)c2ccccc2)nn1
REMARK SMILES IDX 21 1 22 2 23 3 20 5 18 6 16 7 15 8 9 9 8 10 14 11 6 12 5 13
REMARK SMILES IDX 10 14 11 16 12 17 13 18 7 20 4 22 2 23 1 25 3 26 17 27 19 29
REMARK SMILES IDX 24 31 25 32 26 33 27 34 48 35 28 36 47 37 29 38 30 39 31 40
REMARK SMILES IDX 32 41 33 42 34 44 35 45 36 46 40 47 37 48 39 49 38 50 41 51
REMARK SMILES IDX 42 52 46 53 43 54 45 55 44 56
REMARK H PARENT 21 4 10 15 13 19 7 21 4 24 17 28 19 30 33 43
REMARK Flexibility Score: inf
ROOT
ATOM      1  N   UNL     1      24.589  32.864  14.984  1.00  0.00    -0.319 N 
ATOM      2  C   UNL     1      24.564  33.742  13.869  1.00  0.00     0.407 C 
ATOM      3  O   UNL     1      24.638  33.269  12.697  1.00  0.00    -0.225 OA
ATOM      4  H   UNL     1      24.523  33.340  15.931  1.00  0.00     0.167 HD
ENDROOT
BRANCH   1   5
ATOM      5  C   UNL     1      24.695  31.429  14.866  1.00  0.00     0.154 C 
BRANCH   5   6
ATOM      6  C   UNL     1      24.989  30.751  16.205  1.00  0.00     0.165 C 
BRANCH   6   7
ATOM      7  C   UNL     1      25.939  31.653  16.932  1.00  0.00     0.176 C 
BRANCH   7   8
ATOM      8  C   UNL     1      27.072  30.921  17.593  1.00  0.00     0.178 C 
ATOM      9  C   UNL     1      27.444  29.428  19.326  1.00  0.00     0.269 C 
ATOM     10  C   UNL     1      28.909  29.633  19.039  1.00  0.00     0.112 C 
ATOM     11  O   UNL     1      26.596  29.895  18.361  1.00  0.00    -0.332 OA
ATOM     12  C   UNL     1      29.247  31.036  18.665  1.00  0.00     0.145 C 
ATOM     13  C   UNL     1      27.955  31.818  18.428  1.00  0.00     0.142 C 
BRANCH   9  14
ATOM     14  O   UNL     1      27.169  30.015  20.566  1.00  0.00    -0.357 OA
ATOM     15  H   UNL     1      26.782  30.925  20.451  1.00  0.00     0.214 HD
ENDBRANCH   9  14
BRANCH   9  16
ATOM     16  C   UNL     1      27.230  27.966  19.461  1.00  0.00     0.364 C 
ATOM     17  O   UNL     1      26.083  27.536  19.733  1.00  0.00    -0.246 OA
BRANCH  16  18
ATOM     18  O   UNL     1      28.257  27.062  19.294  1.00  0.00    -0.477 OA
ATOM     19  H   UNL     1      28.548  26.470  20.084  1.00  0.00     0.296 HD
ENDBRANCH  16  18
ENDBRANCH   9  16
BRANCH  12  20
ATOM     20  O   UNL     1      30.101  31.680  19.524  1.00  0.00    -0.391 OA
ATOM     21  H   UNL     1      30.502  31.043  20.170  1.00  0.00     0.211 HD
ENDBRANCH  12  20
BRANCH  13  22
ATOM     22  N   UNL     1      28.253  33.061  17.730  1.00  0.00    -0.348 N 
ATOM     23  C   UNL     1      28.381  34.247  18.489  1.00  0.00     0.217 C 
ATOM     24  H   UNL     1      28.363  33.046  16.704  1.00  0.00     0.163 HD
ATOM     25  C   UNL     1      28.683  35.538  17.833  1.00  0.00     0.114 C 
ATOM     26  O   UNL     1      28.239  34.224  19.737  1.00  0.00    -0.275 OA
ENDBRANCH  13  22
ENDBRANCH   7   8
BRANCH   7  27
ATOM     27  O   UNL     1      25.253  32.496  17.782  1.00  0.00    -0.388 OA
ATOM     28  H   UNL     1      25.230  33.441  17.459  1.00  0.00     0.211 HD
ENDBRANCH   7  27
ENDBRANCH   6   7
BRANCH   6  29
ATOM     29  O   UNL     1      25.600  29.526  15.887  1.00  0.00    -0.388 OA
ATOM     30  H   UNL     1      24.871  28.847  16.007  1.00  0.00     0.211 HD
ENDBRANCH   6  29
ENDBRANCH   5   6
ENDBRANCH   1   5
BRANCH   2  31
ATOM     31  O   UNL     1      24.461  35.109  14.032  1.00  0.00    -0.443 OA
BRANCH  31  32
ATOM     32  C   UNL     1      25.515  35.873  14.631  1.00  0.00     0.294 C 
BRANCH  32  33
ATOM     33  C   UNL     1      26.811  35.575  13.983  1.00  0.00     0.120 A 
ATOM     34  C   UNL     1      27.832  34.789  14.539  1.00  0.00     0.138 A 
ATOM     35  N   UNL     1      27.298  35.953  12.796  1.00  0.00    -0.132 NA
ATOM     36  N   UNL     1      28.865  34.717  13.700  1.00  0.00    -0.251 N 
ATOM     37  N   UNL     1      28.507  35.450  12.621  1.00  0.00    -0.067 NA
BRANCH  36  38
ATOM     38  C   UNL     1      30.132  34.046  13.750  1.00  0.00     0.162 C 
BRANCH  38  39
ATOM     39  C   UNL     1      30.983  34.313  14.946  1.00  0.00     0.132 C 
BRANCH  39  40
ATOM     40  C   UNL     1      31.281  33.081  15.677  1.00  0.00     0.309 C 
ATOM     41  O   UNL     1      31.327  32.956  16.913  1.00  0.00    -0.252 OA
BRANCH  40  42
ATOM     42  O   UNL     1      31.550  31.897  14.957  1.00  0.00    -0.481 OA
ATOM     43  H   UNL     1      30.761  31.353  14.597  1.00  0.00     0.296 HD
ENDBRANCH  40  42
ENDBRANCH  39  40
BRANCH  39  44
ATOM     44  C   UNL     1      32.239  35.088  14.588  1.00  0.00     0.065 C 
BRANCH  44  45
ATOM     45  C   UNL     1      32.921  35.608  15.796  1.00  0.00    -0.040 A 
ATOM     46  C   UNL     1      32.195  36.102  16.887  1.00  0.00     0.004 A 
ATOM     47  C   UNL     1      34.298  35.631  15.908  1.00  0.00     0.004 A 
ATOM     48  C   UNL     1      32.828  36.585  18.011  1.00  0.00     0.000 A 
ATOM     49  C   UNL     1      34.944  36.108  17.020  1.00  0.00     0.000 A 
ATOM     50  C   UNL     1      34.223  36.589  18.082  1.00  0.00     0.000 A 
ENDBRANCH  44  45
BRANCH  44  51
ATOM     51  C   UNL     1      32.005  36.202  13.664  1.00  0.00    -0.040 A 
ATOM     52  C   UNL     1      32.582  36.121  12.390  1.00  0.00     0.004 A 
ATOM     53  C   UNL     1      31.254  37.315  13.976  1.00  0.00     0.004 A 
ATOM     54  C   UNL     1      32.384  37.145  11.495  1.00  0.00     0.000 A 
ATOM     55  C   UNL     1      31.054  38.342  13.081  1.00  0.00     0.000 A 
ATOM     56  C   UNL     1      31.624  38.270  11.814  1.00  0.00     0.000 A 
ENDBRANCH  44  51
ENDBRANCH  39  44
ENDBRANCH  38  39
ENDBRANCH  36  38
ENDBRANCH  32  33
ENDBRANCH  31  32
ENDBRANCH   2  31
TORSDOF 21
BEGIN_RES LYS A 131
REMARK  4 active torsions:
REMARK  status: ('A' for Active; 'I' for Inactive)
REMARK    1  A    between atoms: CA   and  CB  
REMARK    2  A    between atoms: CB   and  CG  
REMARK    3  A    between atoms: CG   and  CD  
REMARK    4  A    between atoms: CD   and  CE  
ROOT
ATOM      1  CA  LYS A 131      29.867  25.555  16.977  1.00 20.52     0.186 C 
ENDROOT
BRANCH   1   2
ATOM      2  CB  LYS A 131      28.345  25.722  17.026  1.00 20.94     0.034 C 
BRANCH   2   3
ATOM      3  CG  LYS A 131      27.601  24.403  16.887  1.00 22.96     0.005 C 
BRANCH   3   4
ATOM      4  CD  LYS A 131      26.166  24.514  17.321  1.00 24.33     0.041 C 
BRANCH   4   5
ATOM      5  CE  LYS A 131      25.596  23.119  17.558  1.00 26.91     0.338 C 
ATOM      6  NZ  LYS A 131      24.119  23.173  17.669  1.00 27.40     0.618 N 
ENDBRANCH   4   5
ENDBRANCH   3   4
ENDBRANCH   2   3
ENDBRANCH   1   2
END_RES LYS A 131
BEGIN_RES LYS A 135
REMARK  4 active torsions:
REMARK  status: ('A' for Active; 'I' for Inactive)
REMARK    5  A    between atoms: CA   and  CB  
REMARK    6  A    between atoms: CB   and  CG  
REMARK    7  A    between atoms: CG   and  CD  
REMARK    8  A    between atoms: CD   and  CE  
ROOT
ATOM      7  CA  LYS A 135      33.193  34.663   9.290  1.00 25.02     0.186 C 
ENDROOT
BRANCH   7   8
ATOM      8  CB  LYS A 135      32.060  35.360  10.034  1.00 26.63     0.034 C 
BRANCH   8   9
ATOM      9  CG  LYS A 135      30.702  34.769   9.754  1.00 29.45     0.005 C 
BRANCH   9  10
ATOM     10  CD  LYS A 135      30.531  34.499   8.267  1.00 32.00     0.041 C 
BRANCH  10  11
ATOM     11  CE  LYS A 135      29.258  35.142   7.752  1.00 34.25     0.338 C 
ATOM     12  NZ  LYS A 135      28.054  34.525   8.376  1.00 35.99     0.618 N 
ENDBRANCH  10  11
ENDBRANCH   9  10
ENDBRANCH   8   9
ENDBRANCH   7   8
END_RES LYS A 135
