REMARK VINA RESULT:    -5.554      3.672      7.018
REMARK INTER + INTRA:         -15.273
REMARK INTER:                  -9.281
REMARK INTRA:                  -5.992
REMARK UNBOUND:                -5.011
REMARK SMILES CC(=O)N[C@@H]1[C@@H](O)C[C@](O)(C(=O)O)O[C@H]1C(O)[C@H](O)CNC(=O)OCc1cn(CS(=O)(=O)c2ccccc2)nn1
REMARK SMILES IDX 21 1 22 2 23 3 20 5 18 6 16 7 15 8 9 9 8 10 14 11 6 12 5 13
REMARK SMILES IDX 10 14 11 16 12 17 13 18 7 20 4 22 2 23 1 25 3 26 17 27 19 29
REMARK SMILES IDX 24 31 25 32 26 33 27 34 40 35 28 36 39 37 29 38 30 39 31 40
REMARK SMILES IDX 32 41 33 42 34 43 38 44 35 45 37 46 36 47
REMARK H PARENT 21 4 10 15 13 19 7 21 4 24 17 28 19 30
REMARK Flexibility Score: inf
ROOT
ATOM      1  N   UNL     1      31.115  35.331  15.141  1.00  0.00    -0.319 N 
ATOM      2  C   UNL     1      30.290  35.260  13.961  1.00  0.00     0.407 C 
ATOM      3  O   UNL     1      30.383  34.268  13.225  1.00  0.00    -0.225 OA
ATOM      4  H   UNL     1      30.974  36.189  15.707  1.00  0.00     0.167 HD
ENDROOT
BRANCH   1   5
ATOM      5  C   UNL     1      32.040  34.257  15.458  1.00  0.00     0.154 C 
BRANCH   5   6
ATOM      6  C   UNL     1      31.568  33.407  16.589  1.00  0.00     0.165 C 
BRANCH   6   7
ATOM      7  C   UNL     1      30.481  32.451  16.232  1.00  0.00     0.176 C 
BRANCH   7   8
ATOM      8  C   UNL     1      30.376  31.212  17.046  1.00  0.00     0.178 C 
ATOM      9  C   UNL     1      28.113  30.854  16.579  1.00  0.00     0.269 C 
ATOM     10  C   UNL     1      27.758  31.719  17.744  1.00  0.00     0.112 C 
ATOM     11  O   UNL     1      29.394  30.368  16.534  1.00  0.00    -0.332 OA
ATOM     12  C   UNL     1      28.747  31.807  18.840  1.00  0.00     0.145 C 
ATOM     13  C   UNL     1      30.123  31.309  18.498  1.00  0.00     0.142 C 
BRANCH   9  14
ATOM     14  O   UNL     1      27.889  31.513  15.370  1.00  0.00    -0.357 OA
ATOM     15  H   UNL     1      27.095  32.070  15.360  1.00  0.00     0.214 HD
ENDBRANCH   9  14
BRANCH   9  16
ATOM     16  C   UNL     1      27.222  29.664  16.584  1.00  0.00     0.364 C 
ATOM     17  O   UNL     1      25.985  29.826  16.535  1.00  0.00    -0.246 OA
BRANCH  16  18
ATOM     18  O   UNL     1      27.699  28.360  16.641  1.00  0.00    -0.477 OA
ATOM     19  H   UNL     1      28.444  28.042  16.005  1.00  0.00     0.296 HD
ENDBRANCH  16  18
ENDBRANCH   9  16
BRANCH  12  20
ATOM     20  O   UNL     1      28.791  33.116  19.315  1.00  0.00    -0.391 OA
ATOM     21  H   UNL     1      28.533  33.774  18.645  1.00  0.00     0.211 HD
ENDBRANCH  12  20
BRANCH  13  22
ATOM     22  N   UNL     1      30.377  29.993  19.093  1.00  0.00    -0.348 N 
ATOM     23  C   UNL     1      31.153  29.841  20.263  1.00  0.00     0.217 C 
ATOM     24  H   UNL     1      29.982  29.141  18.652  1.00  0.00     0.163 HD
ATOM     25  C   UNL     1      31.421  28.508  20.883  1.00  0.00     0.114 C 
ATOM     26  O   UNL     1      31.622  30.884  20.781  1.00  0.00    -0.275 OA
ENDBRANCH  13  22
ENDBRANCH   7   8
BRANCH   7  27
ATOM     27  O   UNL     1      30.944  31.926  14.947  1.00  0.00    -0.388 OA
ATOM     28  H   UNL     1      31.474  32.639  14.550  1.00  0.00     0.211 HD
ENDBRANCH   7  27
ENDBRANCH   6   7
BRANCH   6  29
ATOM     29  O   UNL     1      31.353  34.061  17.786  1.00  0.00    -0.388 OA
ATOM     30  H   UNL     1      31.625  35.010  17.753  1.00  0.00     0.211 HD
ENDBRANCH   6  29
ENDBRANCH   5   6
ENDBRANCH   1   5
BRANCH   2  31
ATOM     31  O   UNL     1      29.405  36.272  13.644  1.00  0.00    -0.443 OA
BRANCH  31  32
ATOM     32  C   UNL     1      28.419  36.738  14.547  1.00  0.00     0.294 C 
BRANCH  32  33
ATOM     33  C   UNL     1      27.337  35.760  14.726  1.00  0.00     0.120 A 
ATOM     34  C   UNL     1      26.040  35.782  14.299  1.00  0.00     0.139 A 
ATOM     35  N   UNL     1      27.473  34.596  15.397  1.00  0.00    -0.132 NA
ATOM     36  N   UNL     1      25.432  34.644  14.718  1.00  0.00    -0.237 N 
ATOM     37  N   UNL     1      26.332  33.941  15.386  1.00  0.00    -0.066 NA
BRANCH  36  38
ATOM     38  C   UNL     1      24.057  34.306  14.460  1.00  0.00     0.287 C 
BRANCH  38  39
ATOM     39  S   UNL     1      23.871  33.687  12.793  1.00  0.00     0.198 S 
ATOM     40  O   UNL     1      25.209  33.801  12.107  1.00  0.00    -0.222 OA
ATOM     41  O   UNL     1      22.873  34.540  12.104  1.00  0.00    -0.222 OA
BRANCH  39  42
ATOM     42  C   UNL     1      23.356  32.012  12.873  1.00  0.00     0.069 A 
ATOM     43  C   UNL     1      24.313  31.051  13.179  1.00  0.00     0.020 A 
ATOM     44  C   UNL     1      22.044  31.677  12.638  1.00  0.00     0.020 A 
ATOM     45  C   UNL     1      23.908  29.739  13.242  1.00  0.00     0.001 A 
ATOM     46  C   UNL     1      21.690  30.348  12.713  1.00  0.00     0.001 A 
ATOM     47  C   UNL     1      22.590  29.354  13.011  1.00  0.00     0.000 A 
ENDBRANCH  39  42
ENDBRANCH  38  39
ENDBRANCH  36  38
ENDBRANCH  32  33
ENDBRANCH  31  32
ENDBRANCH   2  31
TORSDOF 17
BEGIN_RES LYS A 131
REMARK  4 active torsions:
REMARK  status: ('A' for Active; 'I' for Inactive)
REMARK    1  A    between atoms: CA   and  CB  
REMARK    2  A    between atoms: CB   and  CG  
REMARK    3  A    between atoms: CG   and  CD  
REMARK    4  A    between atoms: CD   and  CE  
ROOT
ATOM      1  CA  LYS A 131      29.867  25.555  16.977  1.00 20.52     0.186 C 
ENDROOT
BRANCH   1   2
ATOM      2  CB  LYS A 131      28.345  25.722  17.026  1.00 20.94     0.034 C 
BRANCH   2   3
ATOM      3  CG  LYS A 131      27.601  24.401  16.900  1.00 22.96     0.005 C 
BRANCH   3   4
ATOM      4  CD  LYS A 131      26.154  24.527  17.288  1.00 24.33     0.041 C 
BRANCH   4   5
ATOM      5  CE  LYS A 131      25.956  23.989  18.701  1.00 26.91     0.338 C 
ATOM      6  NZ  LYS A 131      25.514  25.071  19.612  1.00 27.40     0.618 N 
ENDBRANCH   4   5
ENDBRANCH   3   4
ENDBRANCH   2   3
ENDBRANCH   1   2
END_RES LYS A 131
BEGIN_RES LYS A 135
REMARK  4 active torsions:
REMARK  status: ('A' for Active; 'I' for Inactive)
REMARK    5  A    between atoms: CA   and  CB  
REMARK    6  A    between atoms: CB   and  CG  
REMARK    7  A    between atoms: CG   and  CD  
REMARK    8  A    between atoms: CD   and  CE  
ROOT
ATOM      7  CA  LYS A 135      33.193  34.663   9.290  1.00 25.02     0.186 C 
ENDROOT
BRANCH   7   8
ATOM      8  CB  LYS A 135      32.060  35.360  10.034  1.00 26.63     0.034 C 
BRANCH   8   9
ATOM      9  CG  LYS A 135      30.701  34.775   9.747  1.00 29.45     0.005 C 
BRANCH   9  10
ATOM     10  CD  LYS A 135      30.545  34.482   8.263  1.00 32.00     0.041 C 
BRANCH  10  11
ATOM     11  CE  LYS A 135      29.266  35.098   7.730  1.00 34.25     0.338 C 
ATOM     12  NZ  LYS A 135      28.071  34.527   8.411  1.00 35.99     0.618 N 
ENDBRANCH  10  11
ENDBRANCH   9  10
ENDBRANCH   8   9
ENDBRANCH   7   8
END_RES LYS A 135
