REMARK VINA RESULT:    -3.910      4.980      8.042
REMARK INTER + INTRA:         -13.775
REMARK INTER:                  -7.341
REMARK INTRA:                  -6.434
REMARK UNBOUND:                -7.007
REMARK SMILES CC(=O)N[C@@H]1[C@@H](O)C[C@](O)(C(=O)O)O[C@H]1C(O)[C@H](O)CNC(=O)OCc1cn(-c2ccc(Cl)cc2)nn1
REMARK SMILES IDX 20 1 18 2 16 3 15 4 9 5 8 6 14 7 6 8 5 9 10 10 11 12 12 13
REMARK SMILES IDX 13 14 7 16 4 18 2 19 1 21 3 22 17 23 19 25 21 27 22 28 23 30
REMARK SMILES IDX 24 31 25 32 26 33 27 34 37 35 28 36 36 37 29 38 30 39 35 40
REMARK SMILES IDX 31 41 34 42 32 43 33 44
REMARK H PARENT 10 11 13 15 7 17 4 20 17 24 19 26 21 29
REMARK Flexibility Score: inf
ROOT
ATOM      1  C   UNL     1      30.714  31.142  15.833  1.00  0.00     0.154 C 
ENDROOT
BRANCH   1   2
ATOM      2  C   UNL     1      29.239  30.891  15.866  1.00  0.00     0.165 C 
BRANCH   2   3
ATOM      3  C   UNL     1      28.748  31.164  17.296  1.00  0.00     0.176 C 
BRANCH   3   4
ATOM      4  C   UNL     1      27.231  31.016  17.391  1.00  0.00     0.178 C 
ATOM      5  C   UNL     1      26.076  32.559  16.049  1.00  0.00     0.269 C 
ATOM      6  C   UNL     1      24.911  32.747  16.997  1.00  0.00     0.112 C 
ATOM      7  O   UNL     1      26.731  31.381  16.157  1.00  0.00    -0.332 OA
ATOM      8  C   UNL     1      25.145  31.932  18.219  1.00  0.00     0.145 C 
ATOM      9  C   UNL     1      26.639  31.840  18.460  1.00  0.00     0.142 C 
BRANCH   5  10
ATOM     10  O   UNL     1      26.881  33.686  16.194  1.00  0.00    -0.357 OA
ATOM     11  H   UNL     1      27.791  33.352  16.396  1.00  0.00     0.214 HD
ENDBRANCH   5  10
BRANCH   5  12
ATOM     12  C   UNL     1      25.493  32.618  14.684  1.00  0.00     0.364 C 
ATOM     13  O   UNL     1      24.875  31.613  14.264  1.00  0.00    -0.246 OA
BRANCH  12  14
ATOM     14  O   UNL     1      25.615  33.723  13.889  1.00  0.00    -0.477 OA
ATOM     15  H   UNL     1      24.857  33.969  13.246  1.00  0.00     0.296 HD
ENDBRANCH  12  14
ENDBRANCH   5  12
BRANCH   8  16
ATOM     16  O   UNL     1      24.463  32.398  19.336  1.00  0.00    -0.391 OA
ATOM     17  H   UNL     1      23.540  32.632  19.108  1.00  0.00     0.211 HD
ENDBRANCH   8  16
BRANCH   9  18
ATOM     18  N   UNL     1      26.831  31.421  19.806  1.00  0.00    -0.348 N 
ATOM     19  C   UNL     1      27.578  32.161  20.753  1.00  0.00     0.217 C 
ATOM     20  H   UNL     1      26.376  30.506  20.068  1.00  0.00     0.163 HD
ATOM     21  C   UNL     1      27.755  31.694  22.143  1.00  0.00     0.114 C 
ATOM     22  O   UNL     1      28.068  33.236  20.311  1.00  0.00    -0.275 OA
ENDBRANCH   9  18
ENDBRANCH   3   4
BRANCH   3  23
ATOM     23  O   UNL     1      29.125  32.453  17.686  1.00  0.00    -0.388 OA
ATOM     24  H   UNL     1      30.002  32.449  18.163  1.00  0.00     0.211 HD
ENDBRANCH   3  23
ENDBRANCH   2   3
BRANCH   2  25
ATOM     25  O   UNL     1      28.892  29.625  15.454  1.00  0.00    -0.388 OA
ATOM     26  H   UNL     1      29.594  29.089  15.047  1.00  0.00     0.211 HD
ENDBRANCH   2  25
ENDBRANCH   1   2
BRANCH   1  27
ATOM     27  N   UNL     1      31.150  32.262  15.069  1.00  0.00    -0.319 N 
ATOM     28  C   UNL     1      31.680  33.460  15.610  1.00  0.00     0.407 C 
ATOM     29  H   UNL     1      31.083  32.219  14.014  1.00  0.00     0.167 HD
ATOM     30  O   UNL     1      31.815  33.622  16.834  1.00  0.00    -0.225 OA
BRANCH  28  31
ATOM     31  O   UNL     1      32.070  34.508  14.754  1.00  0.00    -0.443 OA
BRANCH  31  32
ATOM     32  C   UNL     1      31.490  35.803  14.880  1.00  0.00     0.294 C 
BRANCH  32  33
ATOM     33  C   UNL     1      30.145  35.731  14.259  1.00  0.00     0.121 A 
ATOM     34  C   UNL     1      29.832  36.078  12.978  1.00  0.00     0.144 A 
ATOM     35  N   UNL     1      29.026  35.321  14.839  1.00  0.00    -0.131 NA
ATOM     36  N   UNL     1      28.510  35.863  12.821  1.00  0.00    -0.220 N 
ATOM     37  N   UNL     1      28.032  35.402  13.963  1.00  0.00    -0.062 NA
BRANCH  36  38
ATOM     38  C   UNL     1      27.816  36.115  11.596  1.00  0.00     0.066 A 
ATOM     39  C   UNL     1      27.846  37.376  11.050  1.00  0.00     0.030 A 
ATOM     40  C   UNL     1      27.144  35.071  11.013  1.00  0.00     0.030 A 
ATOM     41  C   UNL     1      27.163  37.577   9.866  1.00  0.00     0.023 A 
ATOM     42  C   UNL     1      26.472  35.305   9.829  1.00  0.00     0.023 A 
ATOM     43  C   UNL     1      26.471  36.547   9.245  1.00  0.00     0.041 A 
ATOM     44  Cl  UNL     1      25.603  36.777   7.752  1.00  0.00    -0.084 Cl
ENDBRANCH  36  38
ENDBRANCH  32  33
ENDBRANCH  31  32
ENDBRANCH  28  31
ENDBRANCH   1  27
TORSDOF 15
BEGIN_RES LYS A 131
REMARK  4 active torsions:
REMARK  status: ('A' for Active; 'I' for Inactive)
REMARK    1  A    between atoms: CA   and  CB  
REMARK    2  A    between atoms: CB   and  CG  
REMARK    3  A    between atoms: CG   and  CD  
REMARK    4  A    between atoms: CD   and  CE  
ROOT
ATOM      1  CA  LYS A 131      29.867  25.555  16.977  1.00 20.52     0.186 C 
ENDROOT
BRANCH   1   2
ATOM      2  CB  LYS A 131      28.345  25.722  17.026  1.00 20.94     0.034 C 
BRANCH   2   3
ATOM      3  CG  LYS A 131      27.602  24.398  16.932  1.00 22.96     0.005 C 
BRANCH   3   4
ATOM      4  CD  LYS A 131      26.166  24.523  17.359  1.00 24.33     0.041 C 
BRANCH   4   5
ATOM      5  CE  LYS A 131      25.921  23.650  18.585  1.00 26.91     0.338 C 
ATOM      6  NZ  LYS A 131      25.441  24.472  19.721  1.00 27.40     0.618 N 
ENDBRANCH   4   5
ENDBRANCH   3   4
ENDBRANCH   2   3
ENDBRANCH   1   2
END_RES LYS A 131
BEGIN_RES LYS A 135
REMARK  4 active torsions:
REMARK  status: ('A' for Active; 'I' for Inactive)
REMARK    5  A    between atoms: CA   and  CB  
REMARK    6  A    between atoms: CB   and  CG  
REMARK    7  A    between atoms: CG   and  CD  
REMARK    8  A    between atoms: CD   and  CE  
ROOT
ATOM      7  CA  LYS A 135      33.193  34.663   9.290  1.00 25.02     0.186 C 
ENDROOT
BRANCH   7   8
ATOM      8  CB  LYS A 135      32.060  35.360  10.034  1.00 26.63     0.034 C 
BRANCH   8   9
ATOM      9  CG  LYS A 135      30.690  34.868   9.644  1.00 29.45     0.005 C 
BRANCH   9  10
ATOM     10  CD  LYS A 135      30.102  35.735   8.541  1.00 32.00     0.041 C 
BRANCH  10  11
ATOM     11  CE  LYS A 135      29.316  34.888   7.559  1.00 34.25     0.338 C 
ATOM     12  NZ  LYS A 135      28.780  35.717   6.444  1.00 35.99     0.618 N 
ENDBRANCH  10  11
ENDBRANCH   9  10
ENDBRANCH   8   9
ENDBRANCH   7   8
END_RES LYS A 135
