REMARK VINA RESULT:    -4.775      2.963      7.335
REMARK INTER + INTRA:         -14.580
REMARK INTER:                  -7.772
REMARK INTRA:                  -6.808
REMARK UNBOUND:                -5.477
REMARK SMILES CC(=O)N[C@@H]1[C@@H](O)C[C@](O)(C(=O)O)O[C@H]1C(O)[C@H](O)CNC(=O)OCc1cn(CC(O)CO)nn1
REMARK SMILES IDX 21 1 22 2 23 3 20 5 18 6 16 7 15 8 9 9 8 10 14 11 6 12 5 13
REMARK SMILES IDX 10 14 11 16 12 17 13 18 7 20 4 22 2 23 1 25 3 26 17 27 19 29
REMARK SMILES IDX 24 31 25 32 26 33 27 34 35 35 28 36 34 37 29 38 30 39 31 40
REMARK SMILES IDX 32 42 33 43
REMARK H PARENT 21 4 10 15 13 19 7 21 4 24 17 28 19 30 31 41 33 44
REMARK Flexibility Score: inf
ROOT
ATOM      1  N   UNL     1      25.895  34.304  13.866  1.00  0.00    -0.319 N 
ATOM      2  C   UNL     1      25.083  33.144  13.901  1.00  0.00     0.407 C 
ATOM      3  O   UNL     1      24.801  32.521  12.862  1.00  0.00    -0.225 OA
ATOM      4  H   UNL     1      26.077  34.767  14.807  1.00  0.00     0.167 HD
ENDROOT
BRANCH   1   5
ATOM      5  C   UNL     1      26.425  34.810  12.646  1.00  0.00     0.154 C 
BRANCH   5   6
ATOM      6  C   UNL     1      27.937  34.810  12.593  1.00  0.00     0.165 C 
BRANCH   6   7
ATOM      7  C   UNL     1      28.416  34.683  14.034  1.00  0.00     0.176 C 
BRANCH   7   8
ATOM      8  C   UNL     1      29.649  33.776  14.102  1.00  0.00     0.178 C 
ATOM      9  C   UNL     1      30.065  32.833  16.185  1.00  0.00     0.269 C 
ATOM     10  C   UNL     1      31.525  32.620  15.839  1.00  0.00     0.112 C 
ATOM     11  O   UNL     1      29.368  32.787  15.002  1.00  0.00    -0.332 OA
ATOM     12  C   UNL     1      31.977  33.804  15.056  1.00  0.00     0.145 C 
ATOM     13  C   UNL     1      30.869  34.588  14.402  1.00  0.00     0.142 C 
BRANCH   9  14
ATOM     14  O   UNL     1      29.982  34.063  16.835  1.00  0.00    -0.357 OA
ATOM     15  H   UNL     1      30.777  34.257  17.382  1.00  0.00     0.214 HD
ENDBRANCH   9  14
BRANCH   9  16
ATOM     16  C   UNL     1      29.558  31.760  17.078  1.00  0.00     0.364 C 
ATOM     17  O   UNL     1      29.263  32.054  18.264  1.00  0.00    -0.246 OA
BRANCH  16  18
ATOM     18  O   UNL     1      29.419  30.477  16.603  1.00  0.00    -0.477 OA
ATOM     19  H   UNL     1      29.711  29.683  17.163  1.00  0.00     0.296 HD
ENDBRANCH  16  18
ENDBRANCH   9  16
BRANCH  12  20
ATOM     20  O   UNL     1      32.636  34.673  15.934  1.00  0.00    -0.391 OA
ATOM     21  H   UNL     1      33.008  34.164  16.677  1.00  0.00     0.211 HD
ENDBRANCH  12  20
BRANCH  13  22
ATOM     22  N   UNL     1      31.424  35.140  13.184  1.00  0.00    -0.348 N 
ATOM     23  C   UNL     1      31.657  36.537  13.097  1.00  0.00     0.217 C 
ATOM     24  H   UNL     1      31.664  34.550  12.354  1.00  0.00     0.163 HD
ATOM     25  C   UNL     1      32.230  37.165  11.856  1.00  0.00     0.114 C 
ATOM     26  O   UNL     1      31.403  37.333  14.037  1.00  0.00    -0.275 OA
ENDBRANCH  13  22
ENDBRANCH   7   8
BRANCH   7  27
ATOM     27  O   UNL     1      28.652  35.936  14.547  1.00  0.00    -0.388 OA
ATOM     28  H   UNL     1      29.619  36.178  14.496  1.00  0.00     0.211 HD
ENDBRANCH   7  27
ENDBRANCH   6   7
BRANCH   6  29
ATOM     29  O   UNL     1      28.406  35.988  12.013  1.00  0.00    -0.388 OA
ATOM     30  H   UNL     1      29.220  35.765  11.521  1.00  0.00     0.211 HD
ENDBRANCH   6  29
ENDBRANCH   5   6
ENDBRANCH   1   5
BRANCH   2  31
ATOM     31  O   UNL     1      24.570  32.657  15.113  1.00  0.00    -0.443 OA
BRANCH  31  32
ATOM     32  C   UNL     1      25.341  32.814  16.269  1.00  0.00     0.294 C 
BRANCH  32  33
ATOM     33  C   UNL     1      25.818  31.512  16.801  1.00  0.00     0.120 A 
ATOM     34  C   UNL     1      25.848  31.121  18.108  1.00  0.00     0.138 A 
ATOM     35  N   UNL     1      26.303  30.494  16.086  1.00  0.00    -0.132 NA
ATOM     36  N   UNL     1      26.359  29.861  18.129  1.00  0.00    -0.249 N 
ATOM     37  N   UNL     1      26.632  29.491  16.885  1.00  0.00    -0.067 NA
BRANCH  36  38
ATOM     38  C   UNL     1      26.562  29.067  19.338  1.00  0.00     0.180 C 
BRANCH  38  39
ATOM     39  C   UNL     1      28.057  29.051  19.586  1.00  0.00     0.161 C 
BRANCH  39  40
ATOM     40  O   UNL     1      28.428  30.220  20.239  1.00  0.00    -0.389 OA
ATOM     41  H   UNL     1      27.775  30.929  19.992  1.00  0.00     0.211 HD
ENDBRANCH  39  40
BRANCH  39  42
ATOM     42  C   UNL     1      28.436  27.840  20.445  1.00  0.00     0.189 C 
BRANCH  42  43
ATOM     43  O   UNL     1      28.511  26.706  19.634  1.00  0.00    -0.394 OA
ATOM     44  H   UNL     1      29.169  26.873  18.895  1.00  0.00     0.210 HD
ENDBRANCH  42  43
ENDBRANCH  39  42
ENDBRANCH  38  39
ENDBRANCH  36  38
ENDBRANCH  32  33
ENDBRANCH  31  32
ENDBRANCH   2  31
TORSDOF 19
BEGIN_RES LYS A 131
REMARK  4 active torsions:
REMARK  status: ('A' for Active; 'I' for Inactive)
REMARK    1  A    between atoms: CA   and  CB  
REMARK    2  A    between atoms: CB   and  CG  
REMARK    3  A    between atoms: CG   and  CD  
REMARK    4  A    between atoms: CD   and  CE  
ROOT
ATOM      1  CA  LYS A 131      29.867  25.555  16.977  1.00 20.52     0.186 C 
ENDROOT
BRANCH   1   2
ATOM      2  CB  LYS A 131      28.345  25.722  17.026  1.00 20.94     0.034 C 
BRANCH   2   3
ATOM      3  CG  LYS A 131      27.602  24.400  16.917  1.00 22.96     0.005 C 
BRANCH   3   4
ATOM      4  CD  LYS A 131      26.557  24.247  17.987  1.00 24.33     0.041 C 
BRANCH   4   5
ATOM      5  CE  LYS A 131      25.230  23.847  17.350  1.00 26.91     0.338 C 
ATOM      6  NZ  LYS A 131      24.979  22.399  17.539  1.00 27.40     0.618 N 
ENDBRANCH   4   5
ENDBRANCH   3   4
ENDBRANCH   2   3
ENDBRANCH   1   2
END_RES LYS A 131
BEGIN_RES LYS A 135
REMARK  4 active torsions:
REMARK  status: ('A' for Active; 'I' for Inactive)
REMARK    5  A    between atoms: CA   and  CB  
REMARK    6  A    between atoms: CB   and  CG  
REMARK    7  A    between atoms: CG   and  CD  
REMARK    8  A    between atoms: CD   and  CE  
ROOT
ATOM      7  CA  LYS A 135      33.193  34.663   9.290  1.00 25.02     0.186 C 
ENDROOT
BRANCH   7   8
ATOM      8  CB  LYS A 135      32.060  35.360  10.034  1.00 26.63     0.034 C 
BRANCH   8   9
ATOM      9  CG  LYS A 135      30.780  35.441   9.243  1.00 29.45     0.005 C 
BRANCH   9  10
ATOM     10  CD  LYS A 135      30.124  34.072   9.142  1.00 32.00     0.041 C 
BRANCH  10  11
ATOM     11  CE  LYS A 135      28.638  34.213   8.872  1.00 34.25     0.338 C 
ATOM     12  NZ  LYS A 135      28.389  35.038   7.658  1.00 35.99     0.618 N 
ENDBRANCH  10  11
ENDBRANCH   9  10
ENDBRANCH   8   9
ENDBRANCH   7   8
END_RES LYS A 135
