REMARK VINA RESULT:    -4.359      5.090      8.416
REMARK INTER + INTRA:         -13.936
REMARK INTER:                  -7.717
REMARK INTRA:                  -6.219
REMARK UNBOUND:                -6.136
REMARK SMILES CC(=O)N[C@@H]1[C@@H](O)C[C@](O)(C(=O)O)O[C@H]1C(O)[C@H](O)CNC(=O)OCc1cn(Cc2ccsc2)nn1
REMARK SMILES IDX 21 1 22 2 23 3 20 5 18 6 16 7 15 8 9 9 8 10 14 11 6 12 5 13
REMARK SMILES IDX 10 14 11 16 12 17 13 18 7 20 4 22 2 23 1 25 3 26 17 27 19 29
REMARK SMILES IDX 24 31 25 32 26 33 27 34 36 35 28 36 35 37 29 38 30 39 31 40
REMARK SMILES IDX 34 41 32 42 33 43
REMARK H PARENT 21 4 10 15 13 19 7 21 4 24 17 28 19 30
REMARK Flexibility Score: inf
ROOT
ATOM      1  N   UNL     1      25.983  30.135  16.226  1.00  0.00    -0.319 N 
ATOM      2  C   UNL     1      27.019  29.229  16.549  1.00  0.00     0.407 C 
ATOM      3  O   UNL     1      28.175  29.446  16.120  1.00  0.00    -0.225 OA
ATOM      4  H   UNL     1      25.019  29.900  16.621  1.00  0.00     0.167 HD
ENDROOT
BRANCH   1   5
ATOM      5  C   UNL     1      26.152  31.322  15.416  1.00  0.00     0.154 C 
BRANCH   5   6
ATOM      6  C   UNL     1      25.935  32.528  16.270  1.00  0.00     0.165 C 
BRANCH   6   7
ATOM      7  C   UNL     1      27.010  33.585  16.129  1.00  0.00     0.176 C 
BRANCH   7   8
ATOM      8  C   UNL     1      28.349  32.930  16.188  1.00  0.00     0.178 C 
ATOM      9  C   UNL     1      30.186  32.532  17.534  1.00  0.00     0.269 C 
ATOM     10  C   UNL     1      30.733  31.903  16.275  1.00  0.00     0.112 C 
ATOM     11  O   UNL     1      28.824  32.755  17.473  1.00  0.00    -0.332 OA
ATOM     12  C   UNL     1      30.482  32.721  15.051  1.00  0.00     0.145 C 
ATOM     13  C   UNL     1      29.373  33.707  15.349  1.00  0.00     0.142 C 
BRANCH   9  14
ATOM     14  O   UNL     1      30.909  33.666  17.907  1.00  0.00    -0.357 OA
ATOM     15  H   UNL     1      31.844  33.419  18.092  1.00  0.00     0.214 HD
ENDBRANCH   9  14
BRANCH   9  16
ATOM     16  C   UNL     1      30.401  31.519  18.630  1.00  0.00     0.364 C 
ATOM     17  O   UNL     1      30.918  31.800  19.719  1.00  0.00    -0.246 OA
BRANCH  16  18
ATOM     18  O   UNL     1      30.001  30.201  18.414  1.00  0.00    -0.477 OA
ATOM     19  H   UNL     1      30.614  29.493  18.030  1.00  0.00     0.296 HD
ENDBRANCH  16  18
ENDBRANCH   9  16
BRANCH  12  20
ATOM     20  O   UNL     1      31.608  33.326  14.538  1.00  0.00    -0.391 OA
ATOM     21  H   UNL     1      31.907  34.102  15.106  1.00  0.00     0.211 HD
ENDBRANCH  12  20
BRANCH  13  22
ATOM     22  N   UNL     1      28.746  34.218  14.158  1.00  0.00    -0.348 N 
ATOM     23  C   UNL     1      29.161  35.463  13.586  1.00  0.00     0.217 C 
ATOM     24  H   UNL     1      27.976  33.708  13.671  1.00  0.00     0.163 HD
ATOM     25  C   UNL     1      28.574  36.048  12.378  1.00  0.00     0.114 C 
ATOM     26  O   UNL     1      30.102  36.103  14.163  1.00  0.00    -0.275 OA
ENDBRANCH  13  22
ENDBRANCH   7   8
BRANCH   7  27
ATOM     27  O   UNL     1      26.853  34.453  17.212  1.00  0.00    -0.388 OA
ATOM     28  H   UNL     1      26.985  35.385  16.910  1.00  0.00     0.211 HD
ENDBRANCH   7  27
ENDBRANCH   6   7
BRANCH   6  29
ATOM     29  O   UNL     1      25.972  32.106  17.609  1.00  0.00    -0.388 OA
ATOM     30  H   UNL     1      26.514  31.298  17.738  1.00  0.00     0.211 HD
ENDBRANCH   6  29
ENDBRANCH   5   6
ENDBRANCH   1   5
BRANCH   2  31
ATOM     31  O   UNL     1      26.734  28.101  17.346  1.00  0.00    -0.443 OA
BRANCH  31  32
ATOM     32  C   UNL     1      26.205  28.391  18.633  1.00  0.00     0.294 C 
BRANCH  32  33
ATOM     33  C   UNL     1      27.324  28.439  19.585  1.00  0.00     0.120 A 
ATOM     34  C   UNL     1      28.203  27.420  19.917  1.00  0.00     0.138 A 
ATOM     35  N   UNL     1      27.696  29.512  20.315  1.00  0.00    -0.132 NA
ATOM     36  N   UNL     1      29.049  27.930  20.823  1.00  0.00    -0.248 N 
ATOM     37  N   UNL     1      28.749  29.192  21.067  1.00  0.00    -0.067 NA
BRANCH  36  38
ATOM     38  C   UNL     1      30.128  27.211  21.441  1.00  0.00     0.182 C 
BRANCH  38  39
ATOM     39  C   UNL     1      31.267  28.162  21.805  1.00  0.00    -0.016 A 
ATOM     40  C   UNL     1      31.497  28.536  23.059  1.00  0.00     0.017 A 
ATOM     41  C   UNL     1      32.064  28.632  20.786  1.00  0.00     0.070 A 
ATOM     42  C   UNL     1      32.530  29.388  23.339  1.00  0.00     0.065 A 
ATOM     43  S   UNL     1      33.236  29.692  21.706  1.00  0.00    -0.152 S 
ENDBRANCH  38  39
ENDBRANCH  36  38
ENDBRANCH  32  33
ENDBRANCH  31  32
ENDBRANCH   2  31
TORSDOF 16
BEGIN_RES LYS A 131
REMARK  4 active torsions:
REMARK  status: ('A' for Active; 'I' for Inactive)
REMARK    1  A    between atoms: CA   and  CB  
REMARK    2  A    between atoms: CB   and  CG  
REMARK    3  A    between atoms: CG   and  CD  
REMARK    4  A    between atoms: CD   and  CE  
ROOT
ATOM      1  CA  LYS A 131      29.867  25.555  16.977  1.00 20.52     0.186 C 
ENDROOT
BRANCH   1   2
ATOM      2  CB  LYS A 131      28.345  25.722  17.026  1.00 20.94     0.034 C 
BRANCH   2   3
ATOM      3  CG  LYS A 131      27.602  24.399  16.926  1.00 22.96     0.005 C 
BRANCH   3   4
ATOM      4  CD  LYS A 131      26.525  24.273  17.968  1.00 24.33     0.041 C 
BRANCH   4   5
ATOM      5  CE  LYS A 131      25.227  23.822  17.306  1.00 26.91     0.338 C 
ATOM      6  NZ  LYS A 131      24.344  24.984  17.051  1.00 27.40     0.618 N 
ENDBRANCH   4   5
ENDBRANCH   3   4
ENDBRANCH   2   3
ENDBRANCH   1   2
END_RES LYS A 131
BEGIN_RES LYS A 135
REMARK  4 active torsions:
REMARK  status: ('A' for Active; 'I' for Inactive)
REMARK    5  A    between atoms: CA   and  CB  
REMARK    6  A    between atoms: CB   and  CG  
REMARK    7  A    between atoms: CG   and  CD  
REMARK    8  A    between atoms: CD   and  CE  
ROOT
ATOM      7  CA  LYS A 135      33.193  34.663   9.290  1.00 25.02     0.186 C 
ENDROOT
BRANCH   7   8
ATOM      8  CB  LYS A 135      32.060  35.360  10.034  1.00 26.63     0.034 C 
BRANCH   8   9
ATOM      9  CG  LYS A 135      30.710  34.732   9.801  1.00 29.45     0.005 C 
BRANCH   9  10
ATOM     10  CD  LYS A 135      30.495  34.457   8.321  1.00 32.00     0.041 C 
BRANCH  10  11
ATOM     11  CE  LYS A 135      29.405  35.353   7.765  1.00 34.25     0.338 C 
ATOM     12  NZ  LYS A 135      28.055  34.779   8.023  1.00 35.99     0.618 N 
ENDBRANCH  10  11
ENDBRANCH   9  10
ENDBRANCH   8   9
ENDBRANCH   7   8
END_RES LYS A 135
