REMARK VINA RESULT:    -5.922      8.553     14.232
REMARK INTER + INTRA:         -14.798
REMARK INTER:                  -9.979
REMARK INTRA:                  -4.819
REMARK UNBOUND:                -4.548
REMARK SMILES CC(=O)N[C@@H]1[C@@H](O)C[C@](O)(C(=O)O)O[C@H]1C(O)[C@H](O)CNC(=O)OCc1cn(-c2ccc3c(c2)OCO3)nn1
REMARK SMILES IDX 20 1 18 2 16 3 15 4 9 5 8 6 14 7 6 8 5 9 10 10 11 12 12 13
REMARK SMILES IDX 13 14 7 16 4 18 2 19 1 21 3 22 17 23 19 25 21 27 22 28 23 30
REMARK SMILES IDX 24 31 25 32 26 33 27 34 39 35 28 36 38 37 29 38 30 39 34 40
REMARK SMILES IDX 31 41 33 42 32 43 35 44 37 45 36 46
REMARK H PARENT 10 11 13 15 7 17 4 20 17 24 19 26 21 29
REMARK Flexibility Score: inf
ROOT
ATOM      1  C   UNL     1      26.685  37.962  11.157  1.00  0.00     0.154 C 
ENDROOT
BRANCH   1   2
ATOM      2  C   UNL     1      26.790  36.593  10.575  1.00  0.00     0.165 C 
BRANCH   2   3
ATOM      3  C   UNL     1      26.111  36.527   9.197  1.00  0.00     0.176 C 
BRANCH   3   4
ATOM      4  C   UNL     1      27.173  36.246   8.195  1.00  0.00     0.178 C 
ATOM      5  C   UNL     1      29.400  35.903   7.853  1.00  0.00     0.269 C 
ATOM      6  C   UNL     1      28.866  35.635   6.462  1.00  0.00     0.112 C 
ATOM      7  O   UNL     1      28.420  36.104   8.793  1.00  0.00    -0.332 OA
ATOM      8  C   UNL     1      27.965  36.751   5.970  1.00  0.00     0.145 C 
ATOM      9  C   UNL     1      27.322  37.368   7.166  1.00  0.00     0.142 C 
BRANCH   5  10
ATOM     10  O   UNL     1      30.269  36.989   7.736  1.00  0.00    -0.357 OA
ATOM     11  H   UNL     1      30.094  37.563   8.529  1.00  0.00     0.214 HD
ENDBRANCH   5  10
BRANCH   5  12
ATOM     12  C   UNL     1      30.163  34.699   8.255  1.00  0.00     0.364 C 
ATOM     13  O   UNL     1      29.604  33.825   8.960  1.00  0.00    -0.246 OA
BRANCH  12  14
ATOM     14  O   UNL     1      31.480  34.488   7.885  1.00  0.00    -0.477 OA
ATOM     15  H   UNL     1      31.850  33.582   7.618  1.00  0.00     0.296 HD
ENDBRANCH  12  14
ENDBRANCH   5  12
BRANCH   8  16
ATOM     16  O   UNL     1      28.814  37.662   5.305  1.00  0.00    -0.391 OA
ATOM     17  H   UNL     1      28.330  38.471   5.056  1.00  0.00     0.211 HD
ENDBRANCH   8  16
BRANCH   9  18
ATOM     18  N   UNL     1      26.119  38.077   6.926  1.00  0.00    -0.348 N 
ATOM     19  C   UNL     1      25.907  39.472   7.093  1.00  0.00     0.217 C 
ATOM     20  H   UNL     1      25.295  37.532   6.590  1.00  0.00     0.163 HD
ATOM     21  C   UNL     1      24.594  40.124   6.810  1.00  0.00     0.114 C 
ATOM     22  O   UNL     1      26.877  40.154   7.494  1.00  0.00    -0.275 OA
ENDBRANCH   9  18
ENDBRANCH   3   4
BRANCH   3  23
ATOM     23  O   UNL     1      25.161  35.544   9.250  1.00  0.00    -0.388 OA
ATOM     24  H   UNL     1      24.501  35.577   9.950  1.00  0.00     0.211 HD
ENDBRANCH   3  23
ENDBRANCH   2   3
BRANCH   2  25
ATOM     25  O   UNL     1      26.206  35.648  11.376  1.00  0.00    -0.388 OA
ATOM     26  H   UNL     1      26.136  34.741  11.010  1.00  0.00     0.211 HD
ENDBRANCH   2  25
ENDBRANCH   1   2
BRANCH   1  27
ATOM     27  N   UNL     1      27.376  38.932  10.381  1.00  0.00    -0.319 N 
ATOM     28  C   UNL     1      28.738  39.231  10.545  1.00  0.00     0.407 C 
ATOM     29  H   UNL     1      26.864  39.481   9.625  1.00  0.00     0.167 HD
ATOM     30  O   UNL     1      29.492  38.706  11.380  1.00  0.00    -0.225 OA
BRANCH  28  31
ATOM     31  O   UNL     1      29.322  40.200   9.709  1.00  0.00    -0.443 OA
BRANCH  31  32
ATOM     32  C   UNL     1      30.710  40.247   9.583  1.00  0.00     0.294 C 
BRANCH  32  33
ATOM     33  C   UNL     1      31.078  40.024   8.161  1.00  0.00     0.121 A 
ATOM     34  C   UNL     1      32.367  39.953   7.643  1.00  0.00     0.144 A 
ATOM     35  N   UNL     1      30.268  39.848   7.103  1.00  0.00    -0.131 NA
ATOM     36  N   UNL     1      32.308  39.742   6.317  1.00  0.00    -0.220 N 
ATOM     37  N   UNL     1      31.020  39.684   6.031  1.00  0.00    -0.062 NA
BRANCH  36  38
ATOM     38  C   UNL     1      33.420  39.612   5.440  1.00  0.00     0.070 A 
ATOM     39  C   UNL     1      33.343  40.063   4.137  1.00  0.00     0.032 A 
ATOM     40  C   UNL     1      34.613  39.040   5.831  1.00  0.00     0.079 A 
ATOM     41  C   UNL     1      34.420  39.946   3.261  1.00  0.00     0.053 A 
ATOM     42  C   UNL     1      35.704  38.911   4.972  1.00  0.00     0.167 A 
ATOM     43  C   UNL     1      35.601  39.370   3.677  1.00  0.00     0.165 A 
ATOM     44  O   UNL     1      36.984  38.385   5.123  1.00  0.00    -0.454 OA
ATOM     45  O   UNL     1      36.838  39.109   3.061  1.00  0.00    -0.454 OA
ATOM     46  C   UNL     1      37.528  38.126   3.841  1.00  0.00     0.468 C 
ENDBRANCH  36  38
ENDBRANCH  32  33
ENDBRANCH  31  32
ENDBRANCH  28  31
ENDBRANCH   1  27
TORSDOF 15
BEGIN_RES LYS A 131
REMARK  4 active torsions:
REMARK  status: ('A' for Active; 'I' for Inactive)
REMARK    1  A    between atoms: CA   and  CB  
REMARK    2  A    between atoms: CB   and  CG  
REMARK    3  A    between atoms: CG   and  CD  
REMARK    4  A    between atoms: CD   and  CE  
ROOT
ATOM      1  CA  LYS A 131      29.867  25.555  16.977  1.00 20.52     0.186 C 
ENDROOT
BRANCH   1   2
ATOM      2  CB  LYS A 131      28.345  25.722  17.026  1.00 20.94     0.034 C 
BRANCH   2   3
ATOM      3  CG  LYS A 131      27.602  24.399  16.920  1.00 22.96     0.005 C 
BRANCH   3   4
ATOM      4  CD  LYS A 131      26.152  24.532  17.296  1.00 24.33     0.041 C 
BRANCH   4   5
ATOM      5  CE  LYS A 131      26.004  25.591  18.384  1.00 26.91     0.338 C 
ATOM      6  NZ  LYS A 131      24.915  26.537  18.043  1.00 27.40     0.618 N 
ENDBRANCH   4   5
ENDBRANCH   3   4
ENDBRANCH   2   3
ENDBRANCH   1   2
END_RES LYS A 131
BEGIN_RES LYS A 135
REMARK  4 active torsions:
REMARK  status: ('A' for Active; 'I' for Inactive)
REMARK    5  A    between atoms: CA   and  CB  
REMARK    6  A    between atoms: CB   and  CG  
REMARK    7  A    between atoms: CG   and  CD  
REMARK    8  A    between atoms: CD   and  CE  
ROOT
ATOM      7  CA  LYS A 135      33.193  34.663   9.290  1.00 25.02     0.186 C 
ENDROOT
BRANCH   7   8
ATOM      8  CB  LYS A 135      32.060  35.360  10.034  1.00 26.63     0.034 C 
BRANCH   8   9
ATOM      9  CG  LYS A 135      32.530  36.223  11.176  1.00 29.45     0.005 C 
BRANCH   9  10
ATOM     10  CD  LYS A 135      31.816  35.844  12.465  1.00 32.00     0.041 C 
BRANCH  10  11
ATOM     11  CE  LYS A 135      30.564  35.044  12.164  1.00 34.25     0.338 C 
ATOM     12  NZ  LYS A 135      29.417  35.510  12.991  1.00 35.99     0.618 N 
ENDBRANCH  10  11
ENDBRANCH   9  10
ENDBRANCH   8   9
ENDBRANCH   7   8
END_RES LYS A 135
