REMARK VINA RESULT:    -4.749      3.307      6.936
REMARK INTER + INTRA:         -14.114
REMARK INTER:                  -8.853
REMARK INTRA:                  -5.261
REMARK UNBOUND:                -4.785
REMARK SMILES C=CCCCCn1cc(COC(=O)NC[C@@H](O)C(O)[C@@H]2O[C@@](O)(C(=O)O)C[C@H](O)[C@H]2NC(C)=O)nn1
REMARK SMILES IDX 11 1 12 2 14 3 13 5 15 6 16 7 18 8 20 9 22 10 27 11 21 12
REMARK SMILES IDX 28 13 30 14 23 15 24 17 25 18 26 19 29 21 31 23 32 24 33 26
REMARK SMILES IDX 34 27 19 28 17 30 10 32 9 33 8 34 35 35 7 36 36 37 6 38 5 39
REMARK SMILES IDX 4 40 3 41 2 42 1 43
REMARK H PARENT 14 4 23 16 26 20 29 22 31 25 19 29 17 31
REMARK Flexibility Score: inf
ROOT
ATOM      1  O   UNL     1      32.076  34.336  15.947  1.00  0.00    -0.443 OA
ENDROOT
BRANCH   1   2
ATOM      2  C   UNL     1      31.501  33.133  16.307  1.00  0.00     0.407 C 
ATOM      3  N   UNL     1      31.072  32.993  17.668  1.00  0.00    -0.319 N 
ATOM      4  H   UNL     1      31.211  33.794  18.314  1.00  0.00     0.167 HD
ATOM      5  O   UNL     1      31.355  32.182  15.473  1.00  0.00    -0.225 OA
BRANCH   3   6
ATOM      6  C   UNL     1      30.468  31.796  18.146  1.00  0.00     0.154 C 
BRANCH   6   7
ATOM      7  C   UNL     1      29.174  32.028  18.928  1.00  0.00     0.165 C 
BRANCH   7   8
ATOM      8  C   UNL     1      28.054  31.680  17.979  1.00  0.00     0.176 C 
BRANCH   8   9
ATOM      9  C   UNL     1      27.094  30.669  18.515  1.00  0.00     0.178 C 
ATOM     10  C   UNL     1      27.138  28.364  18.782  1.00  0.00     0.269 C 
ATOM     11  C   UNL     1      25.642  28.518  18.963  1.00  0.00     0.112 C 
ATOM     12  O   UNL     1      27.771  29.577  18.989  1.00  0.00    -0.332 OA
ATOM     13  C   UNL     1      25.123  29.297  17.776  1.00  0.00     0.145 C 
ATOM     14  C   UNL     1      26.167  30.301  17.348  1.00  0.00     0.142 C 
BRANCH  10  15
ATOM     15  O   UNL     1      27.440  27.812  17.541  1.00  0.00    -0.357 OA
ATOM     16  H   UNL     1      26.663  27.879  16.942  1.00  0.00     0.214 HD
ENDBRANCH  10  15
BRANCH  10  17
ATOM     17  C   UNL     1      27.598  27.398  19.812  1.00  0.00     0.364 C 
ATOM     18  O   UNL     1      26.831  26.946  20.700  1.00  0.00    -0.246 OA
BRANCH  17  19
ATOM     19  O   UNL     1      28.921  26.928  19.855  1.00  0.00    -0.477 OA
ATOM     20  H   UNL     1      29.195  26.240  19.159  1.00  0.00     0.296 HD
ENDBRANCH  17  19
ENDBRANCH  10  17
BRANCH  13  21
ATOM     21  O   UNL     1      24.920  28.426  16.722  1.00  0.00    -0.391 OA
ATOM     22  H   UNL     1      25.190  28.859  15.875  1.00  0.00     0.211 HD
ENDBRANCH  13  21
BRANCH  14  23
ATOM     23  N   UNL     1      25.565  31.530  16.863  1.00  0.00    -0.348 N 
ATOM     24  C   UNL     1      25.192  31.731  15.504  1.00  0.00     0.217 C 
ATOM     25  H   UNL     1      25.371  32.348  17.506  1.00  0.00     0.163 HD
ATOM     26  C   UNL     1      24.573  33.000  15.015  1.00  0.00     0.114 C 
ATOM     27  O   UNL     1      25.410  30.774  14.709  1.00  0.00    -0.275 OA
ENDBRANCH  14  23
ENDBRANCH   8   9
BRANCH   8  28
ATOM     28  O   UNL     1      28.671  31.261  16.789  1.00  0.00    -0.388 OA
ATOM     29  H   UNL     1      28.545  31.919  16.059  1.00  0.00     0.211 HD
ENDBRANCH   8  28
ENDBRANCH   7   8
BRANCH   7  30
ATOM     30  O   UNL     1      29.105  33.311  19.429  1.00  0.00    -0.388 OA
ATOM     31  H   UNL     1      29.617  33.980  18.945  1.00  0.00     0.211 HD
ENDBRANCH   7  30
ENDBRANCH   6   7
ENDBRANCH   3   6
ENDBRANCH   1   2
BRANCH   1  32
ATOM     32  C   UNL     1      32.716  34.474  14.706  1.00  0.00     0.294 C 
BRANCH  32  33
ATOM     33  C   UNL     1      31.878  35.416  13.891  1.00  0.00     0.120 A 
ATOM     34  C   UNL     1      30.507  35.289  13.733  1.00  0.00     0.138 A 
ATOM     35  N   UNL     1      32.226  36.496  13.193  1.00  0.00    -0.132 NA
ATOM     36  N   UNL     1      30.076  36.287  12.952  1.00  0.00    -0.252 N 
ATOM     37  N   UNL     1      31.139  37.004  12.639  1.00  0.00    -0.067 NA
BRANCH  36  38
ATOM     38  C   UNL     1      28.728  36.590  12.494  1.00  0.00     0.146 C 
BRANCH  38  39
ATOM     39  C   UNL     1      27.808  35.444  12.821  1.00  0.00     0.024 C 
BRANCH  39  40
ATOM     40  C   UNL     1      26.573  35.464  11.954  1.00  0.00     0.006 C 
BRANCH  40  41
ATOM     41  C   UNL     1      26.878  35.859  10.533  1.00  0.00     0.027 C 
BRANCH  41  42
ATOM     42  C   UNL     1      26.568  34.739   9.616  1.00  0.00    -0.035 C 
ATOM     43  C   UNL     1      27.329  33.672   9.511  1.00  0.00     0.004 C 
ENDBRANCH  41  42
ENDBRANCH  40  41
ENDBRANCH  39  40
ENDBRANCH  38  39
ENDBRANCH  36  38
ENDBRANCH  32  33
ENDBRANCH   1  32
TORSDOF 19
BEGIN_RES LYS A 131
REMARK  4 active torsions:
REMARK  status: ('A' for Active; 'I' for Inactive)
REMARK    1  A    between atoms: CA   and  CB  
REMARK    2  A    between atoms: CB   and  CG  
REMARK    3  A    between atoms: CG   and  CD  
REMARK    4  A    between atoms: CD   and  CE  
ROOT
ATOM      1  CA  LYS A 131      29.867  25.555  16.977  1.00 20.52     0.186 C 
ENDROOT
BRANCH   1   2
ATOM      2  CB  LYS A 131      28.345  25.722  17.026  1.00 20.94     0.034 C 
BRANCH   2   3
ATOM      3  CG  LYS A 131      27.602  24.398  16.932  1.00 22.96     0.005 C 
BRANCH   3   4
ATOM      4  CD  LYS A 131      26.604  24.229  18.043  1.00 24.33     0.041 C 
BRANCH   4   5
ATOM      5  CE  LYS A 131      25.309  24.948  17.678  1.00 26.91     0.338 C 
ATOM      6  NZ  LYS A 131      24.409  24.046  16.921  1.00 27.40     0.618 N 
ENDBRANCH   4   5
ENDBRANCH   3   4
ENDBRANCH   2   3
ENDBRANCH   1   2
END_RES LYS A 131
BEGIN_RES LYS A 135
REMARK  4 active torsions:
REMARK  status: ('A' for Active; 'I' for Inactive)
REMARK    5  A    between atoms: CA   and  CB  
REMARK    6  A    between atoms: CB   and  CG  
REMARK    7  A    between atoms: CG   and  CD  
REMARK    8  A    between atoms: CD   and  CE  
ROOT
ATOM      7  CA  LYS A 135      33.193  34.663   9.290  1.00 25.02     0.186 C 
ENDROOT
BRANCH   7   8
ATOM      8  CB  LYS A 135      32.060  35.360  10.034  1.00 26.63     0.034 C 
BRANCH   8   9
ATOM      9  CG  LYS A 135      30.697  34.803   9.714  1.00 29.45     0.005 C 
BRANCH   9  10
ATOM     10  CD  LYS A 135      30.470  34.769   8.211  1.00 32.00     0.041 C 
BRANCH  10  11
ATOM     11  CE  LYS A 135      29.609  35.940   7.775  1.00 34.25     0.338 C 
ATOM     12  NZ  LYS A 135      28.749  35.571   6.617  1.00 35.99     0.618 N 
ENDBRANCH  10  11
ENDBRANCH   9  10
ENDBRANCH   8   9
ENDBRANCH   7   8
END_RES LYS A 135
