REMARK VINA RESULT:    -4.903      4.081      7.865
REMARK INTER + INTRA:         -14.282
REMARK INTER:                  -7.712
REMARK INTRA:                  -6.570
REMARK UNBOUND:                -5.796
REMARK SMILES CC(=O)N[C@@H]1[C@@H](O)C[C@](O)(C(=O)O)O[C@H]1C(O)[C@H](O)CNC(=O)OCc1cn(C2CCCCC2)nn1
REMARK SMILES IDX 20 1 18 2 16 3 15 4 9 5 8 6 14 7 6 8 5 9 10 10 11 12 12 13
REMARK SMILES IDX 13 14 7 16 4 18 2 19 1 21 3 22 17 23 19 25 21 27 22 28 23 30
REMARK SMILES IDX 24 31 25 32 26 33 27 34 36 35 28 36 35 37 29 38 30 39 34 40
REMARK SMILES IDX 31 41 33 42 32 43
REMARK H PARENT 10 11 13 15 7 17 4 20 17 24 19 26 21 29
REMARK Flexibility Score: inf
ROOT
ATOM      1  C   UNL     1      30.389  31.139  17.027  1.00  0.00     0.154 C 
ENDROOT
BRANCH   1   2
ATOM      2  C   UNL     1      30.246  32.650  17.133  1.00  0.00     0.165 C 
BRANCH   2   3
ATOM      3  C   UNL     1      29.426  33.099  15.963  1.00  0.00     0.176 C 
BRANCH   3   4
ATOM      4  C   UNL     1      29.291  34.599  15.816  1.00  0.00     0.178 C 
ATOM      5  C   UNL     1      27.280  35.124  14.711  1.00  0.00     0.269 C 
ATOM      6  C   UNL     1      28.007  36.062  13.763  1.00  0.00     0.112 C 
ATOM      7  O   UNL     1      27.990  35.019  15.859  1.00  0.00    -0.332 OA
ATOM      8  C   UNL     1      29.405  35.579  13.484  1.00  0.00     0.145 C 
ATOM      9  C   UNL     1      30.141  35.207  14.755  1.00  0.00     0.142 C 
BRANCH   5  10
ATOM     10  O   UNL     1      26.975  33.920  14.079  1.00  0.00    -0.357 OA
ATOM     11  H   UNL     1      25.984  33.761  14.184  1.00  0.00     0.214 HD
ENDBRANCH   5  10
BRANCH   5  12
ATOM     12  C   UNL     1      25.997  35.810  15.033  1.00  0.00     0.364 C 
ATOM     13  O   UNL     1      25.652  36.825  14.389  1.00  0.00    -0.246 OA
BRANCH  12  14
ATOM     14  O   UNL     1      25.201  35.328  16.031  1.00  0.00    -0.477 OA
ATOM     15  H   UNL     1      24.236  35.044  15.912  1.00  0.00     0.296 HD
ENDBRANCH  12  14
ENDBRANCH   5  12
BRANCH   8  16
ATOM     16  O   UNL     1      29.401  34.537  12.566  1.00  0.00    -0.391 OA
ATOM     17  H   UNL     1      29.553  34.888  11.655  1.00  0.00     0.211 HD
ENDBRANCH   8  16
BRANCH   9  18
ATOM     18  N   UNL     1      30.850  36.387  15.256  1.00  0.00    -0.348 N 
ATOM     19  C   UNL     1      32.204  36.249  15.627  1.00  0.00     0.217 C 
ATOM     20  H   UNL     1      30.384  37.310  15.341  1.00  0.00     0.163 HD
ATOM     21  C   UNL     1      33.013  37.394  16.149  1.00  0.00     0.114 C 
ATOM     22  O   UNL     1      32.828  35.144  15.543  1.00  0.00    -0.275 OA
ENDBRANCH   9  18
ENDBRANCH   3   4
BRANCH   3  23
ATOM     23  O   UNL     1      29.708  32.420  14.807  1.00  0.00    -0.388 OA
ATOM     24  H   UNL     1      28.912  31.925  14.432  1.00  0.00     0.211 HD
ENDBRANCH   3  23
ENDBRANCH   2   3
BRANCH   2  25
ATOM     25  O   UNL     1      31.508  33.188  17.215  1.00  0.00    -0.388 OA
ATOM     26  H   UNL     1      31.817  33.427  16.327  1.00  0.00     0.211 HD
ENDBRANCH   2  25
ENDBRANCH   1   2
BRANCH   1  27
ATOM     27  N   UNL     1      29.151  30.538  17.465  1.00  0.00    -0.319 N 
ATOM     28  C   UNL     1      28.250  29.826  16.636  1.00  0.00     0.407 C 
ATOM     29  H   UNL     1      28.848  30.610  18.486  1.00  0.00     0.167 HD
ATOM     30  O   UNL     1      28.513  29.687  15.417  1.00  0.00    -0.225 OA
BRANCH  28  31
ATOM     31  O   UNL     1      27.076  29.275  17.142  1.00  0.00    -0.443 OA
BRANCH  31  32
ATOM     32  C   UNL     1      26.082  30.116  17.668  1.00  0.00     0.294 C 
BRANCH  32  33
ATOM     33  C   UNL     1      25.468  30.870  16.544  1.00  0.00     0.120 A 
ATOM     34  C   UNL     1      24.765  30.319  15.464  1.00  0.00     0.138 A 
ATOM     35  N   UNL     1      25.442  32.194  16.301  1.00  0.00    -0.132 NA
ATOM     36  N   UNL     1      24.359  31.304  14.644  1.00  0.00    -0.249 N 
ATOM     37  N   UNL     1      24.787  32.434  15.179  1.00  0.00    -0.067 NA
BRANCH  36  38
ATOM     38  C   UNL     1      23.600  31.153  13.410  1.00  0.00     0.109 C 
ATOM     39  C   UNL     1      23.936  29.819  12.781  1.00  0.00     0.027 C 
ATOM     40  C   UNL     1      22.118  31.171  13.711  1.00  0.00     0.027 C 
ATOM     41  C   UNL     1      22.823  28.809  12.987  1.00  0.00     0.002 C 
ATOM     42  C   UNL     1      21.406  30.770  12.431  1.00  0.00     0.002 C 
ATOM     43  C   UNL     1      21.576  29.271  12.283  1.00  0.00     0.000 C 
ENDBRANCH  36  38
ENDBRANCH  32  33
ENDBRANCH  31  32
ENDBRANCH  28  31
ENDBRANCH   1  27
TORSDOF 15
BEGIN_RES LYS A 131
REMARK  4 active torsions:
REMARK  status: ('A' for Active; 'I' for Inactive)
REMARK    1  A    between atoms: CA   and  CB  
REMARK    2  A    between atoms: CB   and  CG  
REMARK    3  A    between atoms: CG   and  CD  
REMARK    4  A    between atoms: CD   and  CE  
ROOT
ATOM      1  CA  LYS A 131      29.867  25.555  16.977  1.00 20.52     0.186 C 
ENDROOT
BRANCH   1   2
ATOM      2  CB  LYS A 131      28.345  25.722  17.026  1.00 20.94     0.034 C 
BRANCH   2   3
ATOM      3  CG  LYS A 131      27.602  24.399  16.924  1.00 22.96     0.005 C 
BRANCH   3   4
ATOM      4  CD  LYS A 131      26.331  24.400  17.727  1.00 24.33     0.041 C 
BRANCH   4   5
ATOM      5  CE  LYS A 131      25.947  25.835  18.071  1.00 26.91     0.338 C 
ATOM      6  NZ  LYS A 131      24.633  25.871  18.756  1.00 27.40     0.618 N 
ENDBRANCH   4   5
ENDBRANCH   3   4
ENDBRANCH   2   3
ENDBRANCH   1   2
END_RES LYS A 131
BEGIN_RES LYS A 135
REMARK  4 active torsions:
REMARK  status: ('A' for Active; 'I' for Inactive)
REMARK    5  A    between atoms: CA   and  CB  
REMARK    6  A    between atoms: CB   and  CG  
REMARK    7  A    between atoms: CG   and  CD  
REMARK    8  A    between atoms: CD   and  CE  
ROOT
ATOM      7  CA  LYS A 135      33.193  34.663   9.290  1.00 25.02     0.186 C 
ENDROOT
BRANCH   7   8
ATOM      8  CB  LYS A 135      32.060  35.360  10.034  1.00 26.63     0.034 C 
BRANCH   8   9
ATOM      9  CG  LYS A 135      30.800  35.499   9.219  1.00 29.45     0.005 C 
BRANCH   9  10
ATOM     10  CD  LYS A 135      30.060  34.172   9.144  1.00 32.00     0.041 C 
BRANCH  10  11
ATOM     11  CE  LYS A 135      28.614  34.391   8.743  1.00 34.25     0.338 C 
ATOM     12  NZ  LYS A 135      27.692  33.618   9.621  1.00 35.99     0.618 N 
ENDBRANCH  10  11
ENDBRANCH   9  10
ENDBRANCH   8   9
ENDBRANCH   7   8
END_RES LYS A 135
