REMARK VINA RESULT:    -5.988      2.327      4.461
REMARK INTER + INTRA:         -15.841
REMARK INTER:                  -9.508
REMARK INTRA:                  -6.333
REMARK UNBOUND:                -4.777
REMARK SMILES CC(=O)N[C@@H]1[C@@H](O)C[C@](O)(C(=O)O)O[C@H]1C(O)[C@H](O)CNC(=O)OCc1cn(C(C)(C)C(=O)c2c[nH]c3ccccc23)nn1
REMARK SMILES IDX 21 1 22 2 23 3 20 5 18 6 16 7 15 8 9 9 8 10 14 11 6 12 5 13
REMARK SMILES IDX 10 14 11 16 12 17 13 18 7 20 4 22 2 23 1 25 3 26 17 27 19 29
REMARK SMILES IDX 24 31 25 32 26 33 27 34 44 35 28 36 43 37 29 38 30 39 31 40
REMARK SMILES IDX 32 41 33 42 34 43 35 44 42 45 36 46 37 47 41 48 38 50 40 51
REMARK SMILES IDX 39 52
REMARK H PARENT 21 4 10 15 13 19 7 21 4 24 17 28 19 30 36 49
REMARK Flexibility Score: inf
ROOT
ATOM      1  N   UNL     1      29.196  40.603  12.736  1.00  0.00    -0.319 N 
ATOM      2  C   UNL     1      30.583  40.713  12.997  1.00  0.00     0.407 C 
ATOM      3  O   UNL     1      31.405  40.750  12.078  1.00  0.00    -0.225 OA
ATOM      4  H   UNL     1      28.570  40.587  13.610  1.00  0.00     0.167 HD
ENDROOT
BRANCH   1   5
ATOM      5  C   UNL     1      28.585  40.512  11.439  1.00  0.00     0.154 C 
BRANCH   5   6
ATOM      6  C   UNL     1      28.414  39.142  10.895  1.00  0.00     0.165 C 
BRANCH   6   7
ATOM      7  C   UNL     1      27.093  38.495  11.281  1.00  0.00     0.176 C 
BRANCH   7   8
ATOM      8  C   UNL     1      26.743  37.353  10.361  1.00  0.00     0.178 C 
ATOM      9  C   UNL     1      26.323  37.930   8.156  1.00  0.00     0.269 C 
ATOM     10  C   UNL     1      25.165  36.968   8.000  1.00  0.00     0.112 C 
ATOM     11  O   UNL     1      27.243  37.486   9.097  1.00  0.00    -0.332 OA
ATOM     12  C   UNL     1      24.995  36.099   9.228  1.00  0.00     0.145 C 
ATOM     13  C   UNL     1      25.269  37.017  10.421  1.00  0.00     0.142 C 
BRANCH   9  14
ATOM     14  O   UNL     1      25.905  39.229   8.443  1.00  0.00    -0.357 OA
ATOM     15  H   UNL     1      25.466  39.270   9.340  1.00  0.00     0.214 HD
ENDBRANCH   9  14
BRANCH   9  16
ATOM     16  C   UNL     1      27.027  37.980   6.847  1.00  0.00     0.364 C 
ATOM     17  O   UNL     1      27.967  38.820   6.676  1.00  0.00    -0.246 OA
BRANCH  16  18
ATOM     18  O   UNL     1      26.718  37.159   5.788  1.00  0.00    -0.477 OA
ATOM     19  H   UNL     1      27.156  36.260   5.635  1.00  0.00     0.296 HD
ENDBRANCH  16  18
ENDBRANCH   9  16
BRANCH  12  20
ATOM     20  O   UNL     1      23.745  35.530   9.304  1.00  0.00    -0.391 OA
ATOM     21  H   UNL     1      23.819  34.699   9.871  1.00  0.00     0.211 HD
ENDBRANCH  12  20
BRANCH  13  22
ATOM     22  N   UNL     1      24.968  36.367  11.667  1.00  0.00    -0.348 N 
ATOM     23  C   UNL     1      23.955  36.865  12.562  1.00  0.00     0.217 C 
ATOM     24  H   UNL     1      25.459  35.502  12.002  1.00  0.00     0.163 HD
ATOM     25  C   UNL     1      23.619  36.235  13.839  1.00  0.00     0.114 C 
ATOM     26  O   UNL     1      23.343  37.915  12.182  1.00  0.00    -0.275 OA
ENDBRANCH  13  22
ENDBRANCH   7   8
BRANCH   7  27
ATOM     27  O   UNL     1      27.280  38.010  12.578  1.00  0.00    -0.388 OA
ATOM     28  H   UNL     1      27.359  37.037  12.614  1.00  0.00     0.211 HD
ENDBRANCH   7  27
ENDBRANCH   6   7
BRANCH   6  29
ATOM     29  O   UNL     1      29.410  38.301  11.353  1.00  0.00    -0.388 OA
ATOM     30  H   UNL     1      30.260  38.814  11.352  1.00  0.00     0.211 HD
ENDBRANCH   6  29
ENDBRANCH   5   6
ENDBRANCH   1   5
BRANCH   2  31
ATOM     31  O   UNL     1      31.086  40.787  14.298  1.00  0.00    -0.443 OA
BRANCH  31  32
ATOM     32  C   UNL     1      30.655  39.898  15.286  1.00  0.00     0.294 C 
BRANCH  32  33
ATOM     33  C   UNL     1      30.514  38.529  14.727  1.00  0.00     0.120 A 
ATOM     34  C   UNL     1      31.548  37.714  14.291  1.00  0.00     0.139 A 
ATOM     35  N   UNL     1      29.398  37.798  14.528  1.00  0.00    -0.132 NA
ATOM     36  N   UNL     1      31.039  36.546  13.852  1.00  0.00    -0.239 N 
ATOM     37  N   UNL     1      29.730  36.629  14.009  1.00  0.00    -0.066 NA
BRANCH  36  38
ATOM     38  C   UNL     1      31.811  35.412  13.308  1.00  0.00     0.122 C 
ATOM     39  C   UNL     1      30.877  34.449  12.662  1.00  0.00     0.046 C 
ATOM     40  C   UNL     1      32.726  36.072  12.258  1.00  0.00     0.046 C 
BRANCH  38  41
ATOM     41  C   UNL     1      32.646  34.894  14.389  1.00  0.00     0.192 C 
ATOM     42  O   UNL     1      33.893  34.664  14.206  1.00  0.00    -0.291 OA
BRANCH  41  43
ATOM     43  C   UNL     1      32.179  34.587  15.736  1.00  0.00     0.045 A 
ATOM     44  C   UNL     1      32.350  35.412  16.846  1.00  0.00     0.095 A 
ATOM     45  C   UNL     1      31.533  33.437  16.111  1.00  0.00     0.010 A 
ATOM     46  N   UNL     1      31.812  34.765  17.878  1.00  0.00    -0.360 N 
ATOM     47  C   UNL     1      31.310  33.575  17.485  1.00  0.00     0.046 A 
ATOM     48  C   UNL     1      31.100  32.292  15.449  1.00  0.00     0.011 A 
ATOM     49  H   UNL     1      31.776  35.110  18.848  1.00  0.00     0.166 HD
ATOM     50  C   UNL     1      30.658  32.552  18.144  1.00  0.00     0.027 A 
ATOM     51  C   UNL     1      30.459  31.301  16.133  1.00  0.00     0.001 A 
ATOM     52  C   UNL     1      30.239  31.429  17.473  1.00  0.00     0.002 A 
ENDBRANCH  41  43
ENDBRANCH  38  41
ENDBRANCH  36  38
ENDBRANCH  32  33
ENDBRANCH  31  32
ENDBRANCH   2  31
TORSDOF 17
BEGIN_RES LYS A 131
REMARK  4 active torsions:
REMARK  status: ('A' for Active; 'I' for Inactive)
REMARK    1  A    between atoms: CA   and  CB  
REMARK    2  A    between atoms: CB   and  CG  
REMARK    3  A    between atoms: CG   and  CD  
REMARK    4  A    between atoms: CD   and  CE  
ROOT
ATOM      1  CA  LYS A 131      29.867  25.555  16.977  1.00 20.52     0.186 C 
ENDROOT
BRANCH   1   2
ATOM      2  CB  LYS A 131      28.345  25.722  17.026  1.00 20.94     0.034 C 
BRANCH   2   3
ATOM      3  CG  LYS A 131      27.601  24.404  16.878  1.00 22.96     0.005 C 
BRANCH   3   4
ATOM      4  CD  LYS A 131      26.162  24.515  17.299  1.00 24.33     0.041 C 
BRANCH   4   5
ATOM      5  CE  LYS A 131      26.089  25.053  18.725  1.00 26.91     0.338 C 
ATOM      6  NZ  LYS A 131      24.836  25.818  18.927  1.00 27.40     0.618 N 
ENDBRANCH   4   5
ENDBRANCH   3   4
ENDBRANCH   2   3
ENDBRANCH   1   2
END_RES LYS A 131
BEGIN_RES LYS A 135
REMARK  4 active torsions:
REMARK  status: ('A' for Active; 'I' for Inactive)
REMARK    5  A    between atoms: CA   and  CB  
REMARK    6  A    between atoms: CB   and  CG  
REMARK    7  A    between atoms: CG   and  CD  
REMARK    8  A    between atoms: CD   and  CE  
ROOT
ATOM      7  CA  LYS A 135      33.193  34.663   9.290  1.00 25.02     0.186 C 
ENDROOT
BRANCH   7   8
ATOM      8  CB  LYS A 135      32.060  35.360  10.034  1.00 26.63     0.034 C 
BRANCH   8   9
ATOM      9  CG  LYS A 135      30.904  35.746   9.147  1.00 29.45     0.005 C 
BRANCH   9  10
ATOM     10  CD  LYS A 135      30.308  34.517   8.478  1.00 32.00     0.041 C 
BRANCH  10  11
ATOM     11  CE  LYS A 135      29.119  34.903   7.619  1.00 34.25     0.338 C 
ATOM     12  NZ  LYS A 135      27.842  34.453   8.238  1.00 35.99     0.618 N 
ENDBRANCH  10  11
ENDBRANCH   9  10
ENDBRANCH   8   9
ENDBRANCH   7   8
END_RES LYS A 135
