REMARK VINA RESULT:    -5.065      4.078      7.058
REMARK INTER + INTRA:         -14.773
REMARK INTER:                  -8.615
REMARK INTRA:                  -6.158
REMARK UNBOUND:                -5.118
REMARK SMILES COc1ccc(Cn2cc(COC(=O)NC[C@@H](O)C(O)[C@@H]3O[C@@](O)(C(=O)O)C[C@H](O)[C@H]3NC(C)=O)nn2)cc1OC
REMARK SMILES IDX 15 1 13 2 14 3 16 5 17 6 19 7 21 8 23 9 28 10 22 11 29 12
REMARK SMILES IDX 31 13 24 14 25 16 26 17 27 18 30 20 32 22 33 23 34 25 35 26
REMARK SMILES IDX 20 27 18 29 12 31 11 32 10 33 9 34 36 35 8 36 37 37 7 38
REMARK SMILES IDX 6 39 38 40 5 41 39 42 4 43 3 44 40 45 41 46 2 47 1 48
REMARK H PARENT 15 4 24 15 27 19 30 21 32 24 20 28 18 30
REMARK Flexibility Score: inf
ROOT
ATOM      1  N   UNL     1      32.515  32.020  21.566  1.00  0.00    -0.319 N 
ATOM      2  C   UNL     1      32.947  33.291  21.162  1.00  0.00     0.407 C 
ATOM      3  O   UNL     1      34.139  33.644  21.288  1.00  0.00    -0.225 OA
ATOM      4  H   UNL     1      31.481  31.802  21.433  1.00  0.00     0.167 HD
ENDROOT
BRANCH   1   5
ATOM      5  C   UNL     1      33.348  30.981  22.145  1.00  0.00     0.154 C 
BRANCH   5   6
ATOM      6  C   UNL     1      33.000  29.649  21.585  1.00  0.00     0.165 C 
BRANCH   6   7
ATOM      7  C   UNL     1      31.538  29.473  21.255  1.00  0.00     0.176 C 
BRANCH   7   8
ATOM      8  C   UNL     1      30.935  28.198  21.740  1.00  0.00     0.178 C 
ATOM      9  C   UNL     1      28.772  28.136  20.870  1.00  0.00     0.269 C 
ATOM     10  C   UNL     1      28.179  27.342  22.026  1.00  0.00     0.112 C 
ATOM     11  O   UNL     1      30.071  27.729  20.730  1.00  0.00    -0.332 OA
ATOM     12  C   UNL     1      29.275  26.977  22.985  1.00  0.00     0.145 C 
ATOM     13  C   UNL     1      30.331  28.139  23.077  1.00  0.00     0.142 C 
BRANCH   9  14
ATOM     14  O   UNL     1      28.597  29.503  21.056  1.00  0.00    -0.357 OA
ATOM     15  H   UNL     1      28.584  30.005  20.201  1.00  0.00     0.214 HD
ENDBRANCH   9  14
BRANCH   9  16
ATOM     16  C   UNL     1      28.044  27.782  19.617  1.00  0.00     0.364 C 
ATOM     17  O   UNL     1      27.366  26.729  19.588  1.00  0.00    -0.246 OA
BRANCH  16  18
ATOM     18  O   UNL     1      28.088  28.573  18.479  1.00  0.00    -0.477 OA
ATOM     19  H   UNL     1      28.206  29.593  18.525  1.00  0.00     0.296 HD
ENDBRANCH  16  18
ENDBRANCH   9  16
BRANCH  12  20
ATOM     20  O   UNL     1      28.795  26.723  24.265  1.00  0.00    -0.391 OA
ATOM     21  H   UNL     1      27.875  27.044  24.375  1.00  0.00     0.211 HD
ENDBRANCH  12  20
BRANCH  13  22
ATOM     22  N   UNL     1      31.272  27.619  24.080  1.00  0.00    -0.348 N 
ATOM     23  C   UNL     1      31.891  28.415  25.072  1.00  0.00     0.217 C 
ATOM     24  H   UNL     1      31.523  26.587  24.090  1.00  0.00     0.163 HD
ATOM     25  C   UNL     1      32.841  27.861  26.070  1.00  0.00     0.114 C 
ATOM     26  O   UNL     1      31.639  29.644  25.125  1.00  0.00    -0.275 OA
ENDBRANCH  13  22
ENDBRANCH   7   8
BRANCH   7  27
ATOM     27  O   UNL     1      31.450  29.391  19.806  1.00  0.00    -0.388 OA
ATOM     28  H   UNL     1      31.165  28.471  19.592  1.00  0.00     0.211 HD
ENDBRANCH   7  27
ENDBRANCH   6   7
BRANCH   6  29
ATOM     29  O   UNL     1      33.592  28.565  22.179  1.00  0.00    -0.388 OA
ATOM     30  H   UNL     1      33.140  28.250  22.985  1.00  0.00     0.211 HD
ENDBRANCH   6  29
ENDBRANCH   5   6
ENDBRANCH   1   5
BRANCH   2  31
ATOM     31  O   UNL     1      32.044  34.217  20.596  1.00  0.00    -0.443 OA
BRANCH  31  32
ATOM     32  C   UNL     1      30.648  33.881  20.614  1.00  0.00     0.294 C 
BRANCH  32  33
ATOM     33  C   UNL     1      30.327  32.882  19.597  1.00  0.00     0.120 A 
ATOM     34  C   UNL     1      30.795  32.845  18.308  1.00  0.00     0.138 A 
ATOM     35  N   UNL     1      29.520  31.822  19.763  1.00  0.00    -0.132 NA
ATOM     36  N   UNL     1      30.269  31.776  17.719  1.00  0.00    -0.248 N 
ATOM     37  N   UNL     1      29.507  31.173  18.606  1.00  0.00    -0.067 NA
BRANCH  36  38
ATOM     38  C   UNL     1      30.475  31.335  16.345  1.00  0.00     0.181 C 
BRANCH  38  39
ATOM     39  C   UNL     1      30.672  32.546  15.489  1.00  0.00    -0.023 A 
ATOM     40  C   UNL     1      31.914  33.180  15.481  1.00  0.00     0.056 A 
ATOM     41  C   UNL     1      29.673  33.064  14.692  1.00  0.00     0.010 A 
ATOM     42  C   UNL     1      32.139  34.290  14.703  1.00  0.00     0.161 A 
ATOM     43  C   UNL     1      29.869  34.178  13.900  1.00  0.00     0.051 A 
ATOM     44  C   UNL     1      31.107  34.775  13.920  1.00  0.00     0.160 A 
BRANCH  42  45
ATOM     45  O   UNL     1      33.373  34.934  14.686  1.00  0.00    -0.493 OA
ATOM     46  C   UNL     1      33.735  35.724  15.805  1.00  0.00     0.278 C 
ENDBRANCH  42  45
BRANCH  44  47
ATOM     47  O   UNL     1      31.344  35.895  13.139  1.00  0.00    -0.493 OA
ATOM     48  C   UNL     1      30.467  37.006  13.134  1.00  0.00     0.278 C 
ENDBRANCH  44  47
ENDBRANCH  38  39
ENDBRANCH  36  38
ENDBRANCH  32  33
ENDBRANCH  31  32
ENDBRANCH   2  31
TORSDOF 18
BEGIN_RES LYS A 131
REMARK  4 active torsions:
REMARK  status: ('A' for Active; 'I' for Inactive)
REMARK    1  A    between atoms: CA   and  CB  
REMARK    2  A    between atoms: CB   and  CG  
REMARK    3  A    between atoms: CG   and  CD  
REMARK    4  A    between atoms: CD   and  CE  
ROOT
ATOM      1  CA  LYS A 131      29.867  25.555  16.977  1.00 20.52     0.186 C 
ENDROOT
BRANCH   1   2
ATOM      2  CB  LYS A 131      28.345  25.722  17.026  1.00 20.94     0.034 C 
BRANCH   2   3
ATOM      3  CG  LYS A 131      27.599  24.476  16.573  1.00 22.96     0.005 C 
BRANCH   3   4
ATOM      4  CD  LYS A 131      27.028  23.706  17.731  1.00 24.33     0.041 C 
BRANCH   4   5
ATOM      5  CE  LYS A 131      25.577  24.120  17.952  1.00 26.91     0.338 C 
ATOM      6  NZ  LYS A 131      24.673  22.959  17.773  1.00 27.40     0.618 N 
ENDBRANCH   4   5
ENDBRANCH   3   4
ENDBRANCH   2   3
ENDBRANCH   1   2
END_RES LYS A 131
BEGIN_RES LYS A 135
REMARK  4 active torsions:
REMARK  status: ('A' for Active; 'I' for Inactive)
REMARK    5  A    between atoms: CA   and  CB  
REMARK    6  A    between atoms: CB   and  CG  
REMARK    7  A    between atoms: CG   and  CD  
REMARK    8  A    between atoms: CD   and  CE  
ROOT
ATOM      7  CA  LYS A 135      33.193  34.663   9.290  1.00 25.02     0.186 C 
ENDROOT
BRANCH   7   8
ATOM      8  CB  LYS A 135      32.060  35.360  10.034  1.00 26.63     0.034 C 
BRANCH   8   9
ATOM      9  CG  LYS A 135      30.778  35.436   9.245  1.00 29.45     0.005 C 
BRANCH   9  10
ATOM     10  CD  LYS A 135      30.182  34.049   9.056  1.00 32.00     0.041 C 
BRANCH  10  11
ATOM     11  CE  LYS A 135      28.667  34.114   9.076  1.00 34.25     0.338 C 
ATOM     12  NZ  LYS A 135      28.149  34.923   7.938  1.00 35.99     0.618 N 
ENDBRANCH  10  11
ENDBRANCH   9  10
ENDBRANCH   8   9
ENDBRANCH   7   8
END_RES LYS A 135
