REMARK VINA RESULT:    -3.242      5.352      9.546
REMARK INTER + INTRA:         -13.467
REMARK INTER:                  -8.587
REMARK INTRA:                  -4.880
REMARK UNBOUND:                -7.572
REMARK SMILES CC(=O)N[C@@H]1[C@@H](O)C[C@](O)(C(=O)O)O[C@H]1C(O)[C@H](O)CNC(=O)OCc1cn(CCO)nn1
REMARK SMILES IDX 21 1 22 2 23 3 20 5 18 6 16 7 15 8 9 9 8 10 14 11 6 12 5 13
REMARK SMILES IDX 10 14 11 16 12 17 13 18 7 20 4 22 2 23 1 25 3 26 17 27 19 29
REMARK SMILES IDX 24 31 25 32 26 33 27 34 33 35 28 36 32 37 29 38 30 39 31 40
REMARK H PARENT 21 4 10 15 13 19 7 21 4 24 17 28 19 30 31 41
REMARK Flexibility Score: inf
ROOT
ATOM      1  N   UNL     1      25.714  35.444  12.733  1.00  0.00    -0.319 N 
ATOM      2  C   UNL     1      25.683  35.936  11.423  1.00  0.00     0.407 C 
ATOM      3  O   UNL     1      26.437  36.846  11.089  1.00  0.00    -0.225 OA
ATOM      4  H   UNL     1      25.015  34.650  12.926  1.00  0.00     0.167 HD
ENDROOT
BRANCH   1   5
ATOM      5  C   UNL     1      26.516  35.833  13.827  1.00  0.00     0.154 C 
BRANCH   5   6
ATOM      6  C   UNL     1      27.851  35.175  13.981  1.00  0.00     0.165 C 
BRANCH   6   7
ATOM      7  C   UNL     1      27.760  33.856  14.688  1.00  0.00     0.176 C 
BRANCH   7   8
ATOM      8  C   UNL     1      28.926  33.362  15.432  1.00  0.00     0.178 C 
ATOM      9  C   UNL     1      31.221  33.148  15.492  1.00  0.00     0.269 C 
ATOM     10  C   UNL     1      30.953  32.980  16.972  1.00  0.00     0.112 C 
ATOM     11  O   UNL     1      30.109  33.591  14.775  1.00  0.00    -0.332 OA
ATOM     12  C   UNL     1      29.839  31.966  17.196  1.00  0.00     0.145 C 
ATOM     13  C   UNL     1      28.902  31.973  15.972  1.00  0.00     0.142 C 
BRANCH   9  14
ATOM     14  O   UNL     1      31.602  31.936  14.923  1.00  0.00    -0.357 OA
ATOM     15  H   UNL     1      32.299  32.039  14.236  1.00  0.00     0.214 HD
ENDBRANCH   9  14
BRANCH   9  16
ATOM     16  C   UNL     1      32.289  34.144  15.252  1.00  0.00     0.364 C 
ATOM     17  O   UNL     1      32.810  34.823  16.174  1.00  0.00    -0.246 OA
BRANCH  16  18
ATOM     18  O   UNL     1      32.743  34.347  13.961  1.00  0.00    -0.477 OA
ATOM     19  H   UNL     1      32.366  35.129  13.405  1.00  0.00     0.296 HD
ENDBRANCH  16  18
ENDBRANCH   9  16
BRANCH  12  20
ATOM     20  O   UNL     1      30.398  30.709  17.377  1.00  0.00    -0.391 OA
ATOM     21  H   UNL     1      31.210  30.832  17.936  1.00  0.00     0.211 HD
ENDBRANCH  12  20
BRANCH  13  22
ATOM     22  N   UNL     1      27.593  31.517  16.395  1.00  0.00    -0.348 N 
ATOM     23  C   UNL     1      27.279  30.140  16.268  1.00  0.00     0.217 C 
ATOM     24  H   UNL     1      26.877  32.174  16.791  1.00  0.00     0.163 HD
ATOM     25  C   UNL     1      25.961  29.581  16.674  1.00  0.00     0.114 C 
ATOM     26  O   UNL     1      28.133  29.355  15.798  1.00  0.00    -0.275 OA
ENDBRANCH  13  22
ENDBRANCH   7   8
BRANCH   7  27
ATOM     27  O   UNL     1      26.649  34.044  15.593  1.00  0.00    -0.388 OA
ATOM     28  H   UNL     1      25.843  34.166  15.063  1.00  0.00     0.211 HD
ENDBRANCH   7  27
ENDBRANCH   6   7
BRANCH   6  29
ATOM     29  O   UNL     1      28.774  36.015  14.508  1.00  0.00    -0.388 OA
ATOM     30  H   UNL     1      28.478  36.930  14.683  1.00  0.00     0.211 HD
ENDBRANCH   6  29
ENDBRANCH   5   6
ENDBRANCH   1   5
BRANCH   2  31
ATOM     31  O   UNL     1      24.812  35.417  10.468  1.00  0.00    -0.443 OA
BRANCH  31  32
ATOM     32  C   UNL     1      24.704  35.975   9.177  1.00  0.00     0.294 C 
BRANCH  32  33
ATOM     33  C   UNL     1      23.274  36.192   8.849  1.00  0.00     0.120 A 
ATOM     34  C   UNL     1      22.183  35.628   9.461  1.00  0.00     0.138 A 
ATOM     35  N   UNL     1      22.807  36.981   7.893  1.00  0.00    -0.132 NA
ATOM     36  N   UNL     1      21.105  36.121   8.826  1.00  0.00    -0.250 N 
ATOM     37  N   UNL     1      21.478  36.949   7.864  1.00  0.00    -0.067 NA
BRANCH  36  38
ATOM     38  C   UNL     1      19.737  35.780   9.160  1.00  0.00     0.174 C 
BRANCH  38  39
ATOM     39  C   UNL     1      18.995  35.426   7.874  1.00  0.00     0.179 C 
BRANCH  39  40
ATOM     40  O   UNL     1      19.777  34.508   7.144  1.00  0.00    -0.394 OA
ATOM     41  H   UNL     1      20.322  35.000   6.456  1.00  0.00     0.210 HD
ENDBRANCH  39  40
ENDBRANCH  38  39
ENDBRANCH  36  38
ENDBRANCH  32  33
ENDBRANCH  31  32
ENDBRANCH   2  31
TORSDOF 17
BEGIN_RES LYS A 131
REMARK  4 active torsions:
REMARK  status: ('A' for Active; 'I' for Inactive)
REMARK    1  A    between atoms: CA   and  CB  
REMARK    2  A    between atoms: CB   and  CG  
REMARK    3  A    between atoms: CG   and  CD  
REMARK    4  A    between atoms: CD   and  CE  
ROOT
ATOM      1  CA  LYS A 131      29.867  25.555  16.977  1.00 20.52     0.186 C 
ENDROOT
BRANCH   1   2
ATOM      2  CB  LYS A 131      28.345  25.722  17.026  1.00 20.94     0.034 C 
BRANCH   2   3
ATOM      3  CG  LYS A 131      27.601  24.402  16.897  1.00 22.96     0.005 C 
BRANCH   3   4
ATOM      4  CD  LYS A 131      26.186  24.497  17.396  1.00 24.33     0.041 C 
BRANCH   4   5
ATOM      5  CE  LYS A 131      26.176  25.146  18.776  1.00 26.91     0.338 C 
ATOM      6  NZ  LYS A 131      25.140  24.524  19.634  1.00 27.40     0.618 N 
ENDBRANCH   4   5
ENDBRANCH   3   4
ENDBRANCH   2   3
ENDBRANCH   1   2
END_RES LYS A 131
BEGIN_RES LYS A 135
REMARK  4 active torsions:
REMARK  status: ('A' for Active; 'I' for Inactive)
REMARK    5  A    between atoms: CA   and  CB  
REMARK    6  A    between atoms: CB   and  CG  
REMARK    7  A    between atoms: CG   and  CD  
REMARK    8  A    between atoms: CD   and  CE  
ROOT
ATOM      7  CA  LYS A 135      33.193  34.663   9.290  1.00 25.02     0.186 C 
ENDROOT
BRANCH   7   8
ATOM      8  CB  LYS A 135      32.060  35.360  10.034  1.00 26.63     0.034 C 
BRANCH   8   9
ATOM      9  CG  LYS A 135      30.808  35.522   9.211  1.00 29.45     0.005 C 
BRANCH   9  10
ATOM     10  CD  LYS A 135      30.140  34.175   8.981  1.00 32.00     0.041 C 
BRANCH  10  11
ATOM     11  CE  LYS A 135      28.669  34.359   8.658  1.00 34.25     0.338 C 
ATOM     12  NZ  LYS A 135      27.811  33.624   9.629  1.00 35.99     0.618 N 
ENDBRANCH  10  11
ENDBRANCH   9  10
ENDBRANCH   8   9
ENDBRANCH   7   8
END_RES LYS A 135
