REMARK VINA RESULT:    -3.874      1.716      4.162
REMARK INTER + INTRA:         -14.768
REMARK INTER:                  -7.469
REMARK INTRA:                  -7.299
REMARK UNBOUND:                -7.158
REMARK SMILES CCN(CC)CCn1cc(COC(=O)NC[C@@H](O)C(O)[C@@H]2O[C@@](O)(C(=O)O)C[C@H](O)[C@H]2NC(C)=O)nn1
REMARK SMILES IDX 15 1 13 2 14 3 16 5 17 6 19 7 21 8 23 9 28 10 22 11 29 12
REMARK SMILES IDX 31 13 24 14 25 16 26 17 27 18 30 20 32 22 33 23 34 25 35 26
REMARK SMILES IDX 20 27 18 29 12 31 11 32 10 33 9 34 36 35 8 36 37 37 7 38
REMARK SMILES IDX 6 39 3 40 2 41 1 42 4 43 5 44
REMARK H PARENT 15 4 24 15 27 19 30 21 32 24 20 28 18 30
REMARK Flexibility Score: inf
ROOT
ATOM      1  N   UNL     1      28.037  28.366  18.531  1.00  0.00    -0.319 N 
ATOM      2  C   UNL     1      27.058  28.499  17.499  1.00  0.00     0.407 C 
ATOM      3  O   UNL     1      25.971  27.903  17.591  1.00  0.00    -0.225 OA
ATOM      4  H   UNL     1      28.918  28.889  18.388  1.00  0.00     0.167 HD
ENDROOT
BRANCH   1   5
ATOM      5  C   UNL     1      27.853  27.571  19.705  1.00  0.00     0.154 C 
BRANCH   5   6
ATOM      6  C   UNL     1      28.917  27.767  20.748  1.00  0.00     0.165 C 
BRANCH   6   7
ATOM      7  C   UNL     1      29.731  29.005  20.443  1.00  0.00     0.176 C 
BRANCH   7   8
ATOM      8  C   UNL     1      29.902  29.869  21.660  1.00  0.00     0.178 C 
ATOM      9  C   UNL     1      29.821  31.938  20.543  1.00  0.00     0.269 C 
ATOM     10  C   UNL     1      31.341  31.999  20.613  1.00  0.00     0.112 C 
ATOM     11  O   UNL     1      29.278  31.072  21.446  1.00  0.00    -0.332 OA
ATOM     12  C   UNL     1      31.728  31.470  21.998  1.00  0.00     0.145 C 
ATOM     13  C   UNL     1      31.328  30.040  22.050  1.00  0.00     0.142 C 
BRANCH   9  14
ATOM     14  O   UNL     1      29.479  31.707  19.213  1.00  0.00    -0.357 OA
ATOM     15  H   UNL     1      28.660  31.139  19.148  1.00  0.00     0.214 HD
ENDBRANCH   9  14
BRANCH   9  16
ATOM     16  C   UNL     1      29.310  33.299  20.900  1.00  0.00     0.364 C 
ATOM     17  O   UNL     1      28.911  33.584  22.050  1.00  0.00    -0.246 OA
BRANCH  16  18
ATOM     18  O   UNL     1      29.277  34.273  19.925  1.00  0.00    -0.477 OA
ATOM     19  H   UNL     1      30.098  34.786  19.616  1.00  0.00     0.296 HD
ENDBRANCH  16  18
ENDBRANCH   9  16
BRANCH  12  20
ATOM     20  O   UNL     1      33.100  31.667  22.154  1.00  0.00    -0.391 OA
ATOM     21  H   UNL     1      33.350  32.393  21.499  1.00  0.00     0.211 HD
ENDBRANCH  12  20
BRANCH  13  22
ATOM     22  N   UNL     1      31.650  29.403  23.313  1.00  0.00    -0.348 N 
ATOM     23  C   UNL     1      32.084  28.050  23.416  1.00  0.00     0.217 C 
ATOM     24  H   UNL     1      31.574  29.928  24.230  1.00  0.00     0.163 HD
ATOM     25  C   UNL     1      32.402  27.444  24.747  1.00  0.00     0.114 C 
ATOM     26  O   UNL     1      32.204  27.351  22.392  1.00  0.00    -0.275 OA
ENDBRANCH  13  22
ENDBRANCH   7   8
BRANCH   7  27
ATOM     27  O   UNL     1      30.963  28.511  19.975  1.00  0.00    -0.388 OA
ATOM     28  H   UNL     1      30.744  27.991  19.156  1.00  0.00     0.211 HD
ENDBRANCH   7  27
ENDBRANCH   6   7
BRANCH   6  29
ATOM     29  O   UNL     1      29.645  26.625  20.917  1.00  0.00    -0.388 OA
ATOM     30  H   UNL     1      30.515  26.708  20.452  1.00  0.00     0.211 HD
ENDBRANCH   6  29
ENDBRANCH   5   6
ENDBRANCH   1   5
BRANCH   2  31
ATOM     31  O   UNL     1      27.266  29.279  16.375  1.00  0.00    -0.443 OA
BRANCH  31  32
ATOM     32  C   UNL     1      26.366  30.311  15.992  1.00  0.00     0.294 C 
BRANCH  32  33
ATOM     33  C   UNL     1      26.877  31.591  16.543  1.00  0.00     0.120 A 
ATOM     34  C   UNL     1      27.522  32.559  15.775  1.00  0.00     0.138 A 
ATOM     35  N   UNL     1      26.849  32.085  17.788  1.00  0.00    -0.132 NA
ATOM     36  N   UNL     1      27.845  33.570  16.577  1.00  0.00    -0.251 N 
ATOM     37  N   UNL     1      27.433  33.272  17.790  1.00  0.00    -0.067 NA
BRANCH  36  38
ATOM     38  C   UNL     1      28.525  34.778  16.193  1.00  0.00     0.161 C 
BRANCH  38  39
ATOM     39  C   UNL     1      29.731  34.410  15.348  1.00  0.00     0.108 C 
BRANCH  39  40
ATOM     40  N   UNL     1      30.970  34.499  16.050  1.00  0.00    -0.302 NA
BRANCH  40  41
ATOM     41  C   UNL     1      31.434  33.276  16.615  1.00  0.00     0.081 C 
ATOM     42  C   UNL     1      31.207  32.182  15.561  1.00  0.00     0.021 C 
ENDBRANCH  40  41
BRANCH  40  43
ATOM     43  C   UNL     1      31.088  35.664  16.860  1.00  0.00     0.081 C 
ATOM     44  C   UNL     1      31.997  35.502  18.039  1.00  0.00     0.021 C 
ENDBRANCH  40  43
ENDBRANCH  39  40
ENDBRANCH  38  39
ENDBRANCH  36  38
ENDBRANCH  32  33
ENDBRANCH  31  32
ENDBRANCH   2  31
TORSDOF 19
BEGIN_RES LYS A 131
REMARK  4 active torsions:
REMARK  status: ('A' for Active; 'I' for Inactive)
REMARK    1  A    between atoms: CA   and  CB  
REMARK    2  A    between atoms: CB   and  CG  
REMARK    3  A    between atoms: CG   and  CD  
REMARK    4  A    between atoms: CD   and  CE  
ROOT
ATOM      1  CA  LYS A 131      29.867  25.555  16.977  1.00 20.52     0.186 C 
ENDROOT
BRANCH   1   2
ATOM      2  CB  LYS A 131      28.345  25.722  17.026  1.00 20.94     0.034 C 
BRANCH   2   3
ATOM      3  CG  LYS A 131      27.601  24.403  16.888  1.00 22.96     0.005 C 
BRANCH   3   4
ATOM      4  CD  LYS A 131      26.164  24.515  17.316  1.00 24.33     0.041 C 
BRANCH   4   5
ATOM      5  CE  LYS A 131      25.968  23.783  18.639  1.00 26.91     0.338 C 
ATOM      6  NZ  LYS A 131      25.550  24.730  19.699  1.00 27.40     0.618 N 
ENDBRANCH   4   5
ENDBRANCH   3   4
ENDBRANCH   2   3
ENDBRANCH   1   2
END_RES LYS A 131
BEGIN_RES LYS A 135
REMARK  4 active torsions:
REMARK  status: ('A' for Active; 'I' for Inactive)
REMARK    5  A    between atoms: CA   and  CB  
REMARK    6  A    between atoms: CB   and  CG  
REMARK    7  A    between atoms: CG   and  CD  
REMARK    8  A    between atoms: CD   and  CE  
ROOT
ATOM      7  CA  LYS A 135      33.193  34.663   9.290  1.00 25.02     0.186 C 
ENDROOT
BRANCH   7   8
ATOM      8  CB  LYS A 135      32.060  35.360  10.034  1.00 26.63     0.034 C 
BRANCH   8   9
ATOM      9  CG  LYS A 135      30.803  35.507   9.216  1.00 29.45     0.005 C 
BRANCH   9  10
ATOM     10  CD  LYS A 135      30.115  34.162   9.043  1.00 32.00     0.041 C 
BRANCH  10  11
ATOM     11  CE  LYS A 135      28.654  34.353   8.681  1.00 34.25     0.338 C 
ATOM     12  NZ  LYS A 135      27.766  33.636   9.638  1.00 35.99     0.618 N 
ENDBRANCH  10  11
ENDBRANCH   9  10
ENDBRANCH   8   9
ENDBRANCH   7   8
END_RES LYS A 135
