REMARK VINA RESULT:    -3.439      8.406     13.313
REMARK INTER + INTRA:         -13.914
REMARK INTER:                  -8.217
REMARK INTRA:                  -5.697
REMARK UNBOUND:                -7.158
REMARK SMILES CCN(CC)CCn1cc(COC(=O)NC[C@@H](O)C(O)[C@@H]2O[C@@](O)(C(=O)O)C[C@H](O)[C@H]2NC(C)=O)nn1
REMARK SMILES IDX 15 1 13 2 14 3 16 5 17 6 19 7 21 8 23 9 28 10 22 11 29 12
REMARK SMILES IDX 31 13 24 14 25 16 26 17 27 18 30 20 32 22 33 23 34 25 35 26
REMARK SMILES IDX 20 27 18 29 12 31 11 32 10 33 9 34 36 35 8 36 37 37 7 38
REMARK SMILES IDX 6 39 3 40 2 41 1 42 4 43 5 44
REMARK H PARENT 15 4 24 15 27 19 30 21 32 24 20 28 18 30
REMARK Flexibility Score: inf
ROOT
ATOM      1  N   UNL     1      29.272  36.693   6.098  1.00  0.00    -0.319 N 
ATOM      2  C   UNL     1      28.625  35.625   6.792  1.00  0.00     0.407 C 
ATOM      3  O   UNL     1      27.400  35.453   6.671  1.00  0.00    -0.225 OA
ATOM      4  H   UNL     1      30.292  36.777   6.247  1.00  0.00     0.167 HD
ENDROOT
BRANCH   1   5
ATOM      5  C   UNL     1      28.590  37.614   5.242  1.00  0.00     0.154 C 
BRANCH   5   6
ATOM      6  C   UNL     1      27.895  38.727   5.973  1.00  0.00     0.165 C 
BRANCH   6   7
ATOM      7  C   UNL     1      28.657  39.089   7.229  1.00  0.00     0.176 C 
BRANCH   7   8
ATOM      8  C   UNL     1      29.383  40.395   7.078  1.00  0.00     0.178 C 
ATOM      9  C   UNL     1      31.510  39.601   7.698  1.00  0.00     0.269 C 
ATOM     10  C   UNL     1      31.289  40.188   9.086  1.00  0.00     0.112 C 
ATOM     11  O   UNL     1      30.692  40.144   6.751  1.00  0.00    -0.332 OA
ATOM     12  C   UNL     1      30.598  41.539   8.876  1.00  0.00     0.145 C 
ATOM     13  C   UNL     1      29.264  41.262   8.282  1.00  0.00     0.142 C 
BRANCH   9  14
ATOM     14  O   UNL     1      31.444  38.216   7.821  1.00  0.00    -0.357 OA
ATOM     15  H   UNL     1      32.102  37.772   7.215  1.00  0.00     0.214 HD
ENDBRANCH   9  14
BRANCH   9  16
ATOM     16  C   UNL     1      32.911  39.942   7.295  1.00  0.00     0.364 C 
ATOM     17  O   UNL     1      33.165  40.789   6.411  1.00  0.00    -0.246 OA
BRANCH  16  18
ATOM     18  O   UNL     1      33.957  39.299   7.922  1.00  0.00    -0.477 OA
ATOM     19  H   UNL     1      34.750  39.784   8.331  1.00  0.00     0.296 HD
ENDBRANCH  16  18
ENDBRANCH   9  16
BRANCH  12  20
ATOM     20  O   UNL     1      30.530  42.174  10.116  1.00  0.00    -0.391 OA
ATOM     21  H   UNL     1      31.147  41.655  10.724  1.00  0.00     0.211 HD
ENDBRANCH  12  20
BRANCH  13  22
ATOM     22  N   UNL     1      28.487  42.463   8.039  1.00  0.00    -0.348 N 
ATOM     23  C   UNL     1      27.117  42.593   8.404  1.00  0.00     0.217 C 
ATOM     24  H   UNL     1      28.916  43.312   7.571  1.00  0.00     0.163 HD
ATOM     25  C   UNL     1      26.363  43.857   8.129  1.00  0.00     0.114 C 
ATOM     26  O   UNL     1      26.525  41.649   8.961  1.00  0.00    -0.275 OA
ENDBRANCH  13  22
ENDBRANCH   7   8
BRANCH   7  27
ATOM     27  O   UNL     1      27.675  39.149   8.234  1.00  0.00    -0.388 OA
ATOM     28  H   UNL     1      27.994  38.539   8.952  1.00  0.00     0.211 HD
ENDBRANCH   7  27
ENDBRANCH   6   7
BRANCH   6  29
ATOM     29  O   UNL     1      26.576  38.429   6.165  1.00  0.00    -0.388 OA
ATOM     30  H   UNL     1      26.100  39.221   6.521  1.00  0.00     0.211 HD
ENDBRANCH   6  29
ENDBRANCH   5   6
ENDBRANCH   1   5
BRANCH   2  31
ATOM     31  O   UNL     1      29.314  34.749   7.613  1.00  0.00    -0.443 OA
BRANCH  31  32
ATOM     32  C   UNL     1      30.119  35.199   8.695  1.00  0.00     0.294 C 
BRANCH  32  33
ATOM     33  C   UNL     1      29.248  35.963   9.624  1.00  0.00     0.120 A 
ATOM     34  C   UNL     1      28.224  35.384  10.374  1.00  0.00     0.138 A 
ATOM     35  N   UNL     1      29.229  37.264   9.942  1.00  0.00    -0.132 NA
ATOM     36  N   UNL     1      27.651  36.345  11.094  1.00  0.00    -0.251 N 
ATOM     37  N   UNL     1      28.267  37.475  10.824  1.00  0.00    -0.067 NA
BRANCH  36  38
ATOM     38  C   UNL     1      26.550  36.184  12.006  1.00  0.00     0.161 C 
BRANCH  38  39
ATOM     39  C   UNL     1      25.263  36.530  11.280  1.00  0.00     0.108 C 
BRANCH  39  40
ATOM     40  N   UNL     1      24.582  35.393  10.749  1.00  0.00    -0.302 NA
BRANCH  40  41
ATOM     41  C   UNL     1      24.075  35.555   9.428  1.00  0.00     0.081 C 
ATOM     42  C   UNL     1      24.839  36.729   8.797  1.00  0.00     0.021 C 
ENDBRANCH  40  41
BRANCH  40  43
ATOM     43  C   UNL     1      23.728  34.746  11.687  1.00  0.00     0.081 C 
ATOM     44  C   UNL     1      22.285  35.124  11.566  1.00  0.00     0.021 C 
ENDBRANCH  40  43
ENDBRANCH  39  40
ENDBRANCH  38  39
ENDBRANCH  36  38
ENDBRANCH  32  33
ENDBRANCH  31  32
ENDBRANCH   2  31
TORSDOF 19
BEGIN_RES LYS A 131
REMARK  4 active torsions:
REMARK  status: ('A' for Active; 'I' for Inactive)
REMARK    1  A    between atoms: CA   and  CB  
REMARK    2  A    between atoms: CB   and  CG  
REMARK    3  A    between atoms: CG   and  CD  
REMARK    4  A    between atoms: CD   and  CE  
ROOT
ATOM      1  CA  LYS A 131      29.867  25.555  16.977  1.00 20.52     0.186 C 
ENDROOT
BRANCH   1   2
ATOM      2  CB  LYS A 131      28.345  25.722  17.026  1.00 20.94     0.034 C 
BRANCH   2   3
ATOM      3  CG  LYS A 131      27.601  24.402  16.893  1.00 22.96     0.005 C 
BRANCH   3   4
ATOM      4  CD  LYS A 131      26.554  24.232  17.959  1.00 24.33     0.041 C 
BRANCH   4   5
ATOM      5  CE  LYS A 131      25.242  23.793  17.317  1.00 26.91     0.338 C 
ATOM      6  NZ  LYS A 131      24.990  22.357  17.583  1.00 27.40     0.618 N 
ENDBRANCH   4   5
ENDBRANCH   3   4
ENDBRANCH   2   3
ENDBRANCH   1   2
END_RES LYS A 131
BEGIN_RES LYS A 135
REMARK  4 active torsions:
REMARK  status: ('A' for Active; 'I' for Inactive)
REMARK    5  A    between atoms: CA   and  CB  
REMARK    6  A    between atoms: CB   and  CG  
REMARK    7  A    between atoms: CG   and  CD  
REMARK    8  A    between atoms: CD   and  CE  
ROOT
ATOM      7  CA  LYS A 135      33.193  34.663   9.290  1.00 25.02     0.186 C 
ENDROOT
BRANCH   7   8
ATOM      8  CB  LYS A 135      32.060  35.360  10.034  1.00 26.63     0.034 C 
BRANCH   8   9
ATOM      9  CG  LYS A 135      32.398  35.703  11.462  1.00 29.45     0.005 C 
BRANCH   9  10
ATOM     10  CD  LYS A 135      32.214  37.191  11.714  1.00 32.00     0.041 C 
BRANCH  10  11
ATOM     11  CE  LYS A 135      31.417  37.422  12.984  1.00 34.25     0.338 C 
ATOM     12  NZ  LYS A 135      30.534  36.260  13.281  1.00 35.99     0.618 N 
ENDBRANCH  10  11
ENDBRANCH   9  10
ENDBRANCH   8   9
ENDBRANCH   7   8
END_RES LYS A 135
