REMARK VINA RESULT:    -6.105      2.699      7.765
REMARK INTER + INTRA:         -16.674
REMARK INTER:                 -11.690
REMARK INTRA:                  -4.984
REMARK UNBOUND:                -5.216
REMARK SMILES CC(=O)N[C@@H]1[C@@H](O)C[C@](O)(C(=O)O)O[C@H]1C(O)[C@H](O)CNC(=O)OCc1cn(-c2cc(C(=O)O)nc(-c3ccccc3)c2)nn1
REMARK SMILES IDX 21 1 22 2 23 3 20 5 18 6 16 7 15 8 9 9 8 10 14 11 6 12 5 13
REMARK SMILES IDX 10 14 11 16 12 17 13 18 7 20 4 22 2 23 1 25 3 26 17 27 19 29
REMARK SMILES IDX 24 31 25 32 26 33 27 34 45 35 28 36 44 37 29 38 30 39 43 40
REMARK SMILES IDX 31 41 36 42 35 43 32 44 33 45 34 46 37 48 38 49 42 50 39 51
REMARK SMILES IDX 41 52 40 53
REMARK H PARENT 21 4 10 15 13 19 7 21 4 24 17 28 19 30 34 47
REMARK Flexibility Score: inf
ROOT
ATOM      1  N   UNL     1      23.796  37.772  10.204  1.00  0.00    -0.319 N 
ATOM      2  C   UNL     1      23.568  37.602  11.606  1.00  0.00     0.407 C 
ATOM      3  O   UNL     1      24.201  38.340  12.405  1.00  0.00    -0.225 OA
ATOM      4  H   UNL     1      23.232  37.120   9.585  1.00  0.00     0.167 HD
ENDROOT
BRANCH   1   5
ATOM      5  C   UNL     1      24.709  38.740   9.659  1.00  0.00     0.154 C 
BRANCH   5   6
ATOM      6  C   UNL     1      25.989  38.093   9.224  1.00  0.00     0.165 C 
BRANCH   6   7
ATOM      7  C   UNL     1      25.645  36.979   8.243  1.00  0.00     0.176 C 
BRANCH   7   8
ATOM      8  C   UNL     1      26.862  36.566   7.491  1.00  0.00     0.178 C 
ATOM      9  C   UNL     1      29.024  35.791   7.853  1.00  0.00     0.269 C 
ATOM     10  C   UNL     1      28.932  35.570   6.348  1.00  0.00     0.112 C 
ATOM     11  O   UNL     1      27.822  36.119   8.424  1.00  0.00    -0.332 OA
ATOM     12  C   UNL     1      28.498  36.851   5.728  1.00  0.00     0.145 C 
ATOM     13  C   UNL     1      27.543  37.611   6.676  1.00  0.00     0.142 C 
BRANCH   9  14
ATOM     14  O   UNL     1      29.974  36.831   8.001  1.00  0.00    -0.357 OA
ATOM     15  H   UNL     1      29.451  37.613   8.316  1.00  0.00     0.214 HD
ENDBRANCH   9  14
BRANCH   9  16
ATOM     16  C   UNL     1      29.544  34.594   8.539  1.00  0.00     0.364 C 
ATOM     17  O   UNL     1      28.764  33.818   9.121  1.00  0.00    -0.246 OA
BRANCH  16  18
ATOM     18  O   UNL     1      30.895  34.320   8.542  1.00  0.00    -0.477 OA
ATOM     19  H   UNL     1      31.268  33.376   8.597  1.00  0.00     0.296 HD
ENDBRANCH  16  18
ENDBRANCH   9  16
BRANCH  12  20
ATOM     20  O   UNL     1      29.535  37.662   5.323  1.00  0.00    -0.391 OA
ATOM     21  H   UNL     1      30.162  37.169   4.749  1.00  0.00     0.211 HD
ENDBRANCH  12  20
BRANCH  13  22
ATOM     22  N   UNL     1      26.691  38.451   5.879  1.00  0.00    -0.348 N 
ATOM     23  C   UNL     1      26.963  39.859   5.717  1.00  0.00     0.217 C 
ATOM     24  H   UNL     1      25.877  38.053   5.405  1.00  0.00     0.163 HD
ATOM     25  C   UNL     1      26.118  40.752   4.911  1.00  0.00     0.114 C 
ATOM     26  O   UNL     1      27.993  40.283   6.323  1.00  0.00    -0.275 OA
ENDBRANCH  13  22
ENDBRANCH   7   8
BRANCH   7  27
ATOM     27  O   UNL     1      24.565  37.256   7.449  1.00  0.00    -0.388 OA
ATOM     28  H   UNL     1      23.690  37.148   7.862  1.00  0.00     0.211 HD
ENDBRANCH   7  27
ENDBRANCH   6   7
BRANCH   6  29
ATOM     29  O   UNL     1      26.538  37.520  10.389  1.00  0.00    -0.388 OA
ATOM     30  H   UNL     1      25.893  36.840  10.675  1.00  0.00     0.211 HD
ENDBRANCH   6  29
ENDBRANCH   5   6
ENDBRANCH   1   5
BRANCH   2  31
ATOM     31  O   UNL     1      22.672  36.648  12.064  1.00  0.00    -0.443 OA
BRANCH  31  32
ATOM     32  C   UNL     1      22.880  35.305  11.675  1.00  0.00     0.294 C 
BRANCH  32  33
ATOM     33  C   UNL     1      24.313  34.997  11.920  1.00  0.00     0.121 A 
ATOM     34  C   UNL     1      24.913  34.701  13.150  1.00  0.00     0.144 A 
ATOM     35  N   UNL     1      25.343  34.931  11.044  1.00  0.00    -0.131 NA
ATOM     36  N   UNL     1      26.227  34.477  12.974  1.00  0.00    -0.220 N 
ATOM     37  N   UNL     1      26.460  34.623  11.691  1.00  0.00    -0.062 NA
BRANCH  36  38
ATOM     38  C   UNL     1      27.134  34.145  14.045  1.00  0.00     0.071 A 
ATOM     39  C   UNL     1      26.767  33.306  15.066  1.00  0.00     0.064 A 
ATOM     40  C   UNL     1      28.418  34.677  14.068  1.00  0.00     0.057 A 
ATOM     41  C   UNL     1      27.609  32.968  16.105  1.00  0.00     0.151 A 
ATOM     42  C   UNL     1      29.265  34.350  15.095  1.00  0.00     0.073 A 
ATOM     43  N   UNL     1      28.834  33.515  16.068  1.00  0.00    -0.241 NA
BRANCH  41  44
ATOM     44  C   UNL     1      27.199  32.076  17.176  1.00  0.00     0.354 C 
ATOM     45  O   UNL     1      26.765  30.944  16.887  1.00  0.00    -0.245 OA
BRANCH  44  46
ATOM     46  O   UNL     1      27.280  32.452  18.500  1.00  0.00    -0.477 OA
ATOM     47  H   UNL     1      27.223  31.780  19.273  1.00  0.00     0.297 HD
ENDBRANCH  44  46
ENDBRANCH  41  44
BRANCH  42  48
ATOM     48  C   UNL     1      30.632  34.901  15.145  1.00  0.00     0.000 A 
ATOM     49  C   UNL     1      31.685  34.045  14.906  1.00  0.00     0.010 A 
ATOM     50  C   UNL     1      30.837  36.222  15.423  1.00  0.00     0.010 A 
ATOM     51  C   UNL     1      32.962  34.555  14.952  1.00  0.00     0.001 A 
ATOM     52  C   UNL     1      32.135  36.693  15.460  1.00  0.00     0.001 A 
ATOM     53  C   UNL     1      33.222  35.880  15.227  1.00  0.00     0.000 A 
ENDBRANCH  42  48
ENDBRANCH  36  38
ENDBRANCH  32  33
ENDBRANCH  31  32
ENDBRANCH   2  31
TORSDOF 18
BEGIN_RES LYS A 131
REMARK  4 active torsions:
REMARK  status: ('A' for Active; 'I' for Inactive)
REMARK    1  A    between atoms: CA   and  CB  
REMARK    2  A    between atoms: CB   and  CG  
REMARK    3  A    between atoms: CG   and  CD  
REMARK    4  A    between atoms: CD   and  CE  
ROOT
ATOM      1  CA  LYS A 131      29.867  25.555  16.977  1.00 20.52     0.186 C 
ENDROOT
BRANCH   1   2
ATOM      2  CB  LYS A 131      28.345  25.722  17.026  1.00 20.94     0.034 C 
BRANCH   2   3
ATOM      3  CG  LYS A 131      27.599  24.456  16.634  1.00 22.96     0.005 C 
BRANCH   3   4
ATOM      4  CD  LYS A 131      26.657  23.997  17.713  1.00 24.33     0.041 C 
BRANCH   4   5
ATOM      5  CE  LYS A 131      25.226  24.355  17.325  1.00 26.91     0.338 C 
ATOM      6  NZ  LYS A 131      24.363  23.151  17.357  1.00 27.40     0.618 N 
ENDBRANCH   4   5
ENDBRANCH   3   4
ENDBRANCH   2   3
ENDBRANCH   1   2
END_RES LYS A 131
BEGIN_RES LYS A 135
REMARK  4 active torsions:
REMARK  status: ('A' for Active; 'I' for Inactive)
REMARK    5  A    between atoms: CA   and  CB  
REMARK    6  A    between atoms: CB   and  CG  
REMARK    7  A    between atoms: CG   and  CD  
REMARK    8  A    between atoms: CD   and  CE  
ROOT
ATOM      7  CA  LYS A 135      33.193  34.663   9.290  1.00 25.02     0.186 C 
ENDROOT
BRANCH   7   8
ATOM      8  CB  LYS A 135      32.060  35.360  10.034  1.00 26.63     0.034 C 
BRANCH   8   9
ATOM      9  CG  LYS A 135      32.417  35.751  11.445  1.00 29.45     0.005 C 
BRANCH   9  10
ATOM     10  CD  LYS A 135      31.736  37.056  11.828  1.00 32.00     0.041 C 
BRANCH  10  11
ATOM     11  CE  LYS A 135      30.256  37.001  11.502  1.00 34.25     0.338 C 
ATOM     12  NZ  LYS A 135      29.744  38.340  11.099  1.00 35.99     0.618 N 
ENDBRANCH  10  11
ENDBRANCH   9  10
ENDBRANCH   8   9
ENDBRANCH   7   8
END_RES LYS A 135
