REMARK VINA RESULT:    -4.255      6.239     11.915
REMARK INTER + INTRA:         -14.795
REMARK INTER:                  -8.275
REMARK INTRA:                  -6.520
REMARK UNBOUND:                -5.938
REMARK SMILES CCOC(CCn1cc(COC(=O)NC[C@@H](O)C(O)[C@@H]2O[C@@](O)(C(=O)O)C[C@H](O)[C@H]2NC(C)=O)nn1)OCC
REMARK SMILES IDX 11 1 12 2 14 3 13 5 15 6 16 7 18 8 20 9 22 10 27 11 21 12
REMARK SMILES IDX 28 13 30 14 23 15 24 17 25 18 26 19 29 21 31 23 32 24 33 26
REMARK SMILES IDX 34 27 19 28 17 30 10 32 9 33 8 34 35 35 7 36 36 37 6 38 5 39
REMARK SMILES IDX 4 40 3 41 2 42 1 43 37 44 38 45 39 46
REMARK H PARENT 14 4 23 16 26 20 29 22 31 25 19 29 17 31
REMARK Flexibility Score: inf
ROOT
ATOM      1  O   UNL     1      27.963  38.059   8.319  1.00  0.00    -0.443 OA
ENDROOT
BRANCH   1   2
ATOM      2  C   UNL     1      26.690  38.292   7.776  1.00  0.00     0.407 C 
ATOM      3  N   UNL     1      26.033  39.531   7.929  1.00  0.00    -0.319 N 
ATOM      4  H   UNL     1      26.581  40.272   8.472  1.00  0.00     0.167 HD
ATOM      5  O   UNL     1      26.157  37.369   7.156  1.00  0.00    -0.225 OA
BRANCH   3   6
ATOM      6  C   UNL     1      24.740  39.897   7.444  1.00  0.00     0.154 C 
BRANCH   6   7
ATOM      7  C   UNL     1      23.726  39.927   8.552  1.00  0.00     0.165 C 
BRANCH   7   8
ATOM      8  C   UNL     1      22.875  38.672   8.377  1.00  0.00     0.176 C 
BRANCH   8   9
ATOM      9  C   UNL     1      23.045  37.718   9.517  1.00  0.00     0.178 C 
ATOM     10  C   UNL     1      24.542  36.106  10.251  1.00  0.00     0.269 C 
ATOM     11  C   UNL     1      23.461  35.575  11.133  1.00  0.00     0.112 C 
ATOM     12  O   UNL     1      24.341  37.402   9.799  1.00  0.00    -0.332 OA
ATOM     13  C   UNL     1      22.065  35.811  10.635  1.00  0.00     0.145 C 
ATOM     14  C   UNL     1      22.173  36.488   9.286  1.00  0.00     0.142 C 
BRANCH  10  15
ATOM     15  O   UNL     1      24.796  35.223   9.198  1.00  0.00    -0.357 OA
ATOM     16  H   UNL     1      24.966  35.787   8.386  1.00  0.00     0.214 HD
ENDBRANCH  10  15
BRANCH  10  17
ATOM     17  C   UNL     1      25.780  36.155  11.082  1.00  0.00     0.364 C 
ATOM     18  O   UNL     1      25.741  35.931  12.311  1.00  0.00    -0.246 OA
BRANCH  17  19
ATOM     19  O   UNL     1      27.002  36.462  10.456  1.00  0.00    -0.477 OA
ATOM     20  H   UNL     1      27.231  35.892   9.643  1.00  0.00     0.296 HD
ENDBRANCH  17  19
ENDBRANCH  10  17
BRANCH  13  21
ATOM     21  O   UNL     1      21.292  34.657  10.591  1.00  0.00    -0.391 OA
ATOM     22  H   UNL     1      20.380  34.941  10.326  1.00  0.00     0.211 HD
ENDBRANCH  13  21
BRANCH  14  23
ATOM     23  N   UNL     1      20.888  36.949   8.801  1.00  0.00    -0.348 N 
ATOM     24  C   UNL     1      20.107  36.094   7.979  1.00  0.00     0.217 C 
ATOM     25  H   UNL     1      20.490  37.879   9.018  1.00  0.00     0.163 HD
ATOM     26  C   UNL     1      18.787  36.480   7.440  1.00  0.00     0.114 C 
ATOM     27  O   UNL     1      20.562  34.952   7.695  1.00  0.00    -0.275 OA
ENDBRANCH  14  23
ENDBRANCH   8   9
BRANCH   8  28
ATOM     28  O   UNL     1      23.187  38.097   7.155  1.00  0.00    -0.388 OA
ATOM     29  H   UNL     1      22.615  38.434   6.413  1.00  0.00     0.211 HD
ENDBRANCH   8  28
ENDBRANCH   7   8
BRANCH   7  30
ATOM     30  O   UNL     1      22.885  41.002   8.418  1.00  0.00    -0.388 OA
ATOM     31  H   UNL     1      22.644  41.421   9.283  1.00  0.00     0.211 HD
ENDBRANCH   7  30
ENDBRANCH   6   7
ENDBRANCH   3   6
ENDBRANCH   1   2
BRANCH   1  32
ATOM     32  C   UNL     1      29.109  38.696   7.761  1.00  0.00     0.294 C 
BRANCH  32  33
ATOM     33  C   UNL     1      30.215  38.649   8.734  1.00  0.00     0.120 A 
ATOM     34  C   UNL     1      30.007  38.329  10.079  1.00  0.00     0.138 A 
ATOM     35  N   UNL     1      31.519  38.865   8.627  1.00  0.00    -0.132 NA
ATOM     36  N   UNL     1      31.195  38.366  10.717  1.00  0.00    -0.252 N 
ATOM     37  N   UNL     1      32.089  38.690   9.827  1.00  0.00    -0.067 NA
BRANCH  36  38
ATOM     38  C   UNL     1      31.361  38.093  12.117  1.00  0.00     0.151 C 
BRANCH  38  39
ATOM     39  C   UNL     1      32.212  36.875  12.385  1.00  0.00     0.086 C 
BRANCH  39  40
ATOM     40  C   UNL     1      31.705  36.045  13.524  1.00  0.00     0.251 C 
BRANCH  40  41
ATOM     41  O   UNL     1      32.671  36.042  14.524  1.00  0.00    -0.353 OA
BRANCH  41  42
ATOM     42  C   UNL     1      32.419  37.069  15.443  1.00  0.00     0.160 C 
ATOM     43  C   UNL     1      31.149  36.822  16.215  1.00  0.00     0.035 C 
ENDBRANCH  41  42
ENDBRANCH  40  41
BRANCH  40  44
ATOM     44  O   UNL     1      31.434  34.751  13.162  1.00  0.00    -0.353 OA
BRANCH  44  45
ATOM     45  C   UNL     1      30.264  34.270  13.749  1.00  0.00     0.160 C 
ATOM     46  C   UNL     1      29.075  35.009  13.147  1.00  0.00     0.035 C 
ENDBRANCH  44  45
ENDBRANCH  40  44
ENDBRANCH  39  40
ENDBRANCH  38  39
ENDBRANCH  36  38
ENDBRANCH  32  33
ENDBRANCH   1  32
TORSDOF 21
BEGIN_RES LYS A 131
REMARK  4 active torsions:
REMARK  status: ('A' for Active; 'I' for Inactive)
REMARK    1  A    between atoms: CA   and  CB  
REMARK    2  A    between atoms: CB   and  CG  
REMARK    3  A    between atoms: CG   and  CD  
REMARK    4  A    between atoms: CD   and  CE  
ROOT
ATOM      1  CA  LYS A 131      29.867  25.555  16.977  1.00 20.52     0.186 C 
ENDROOT
BRANCH   1   2
ATOM      2  CB  LYS A 131      28.345  25.722  17.026  1.00 20.94     0.034 C 
BRANCH   2   3
ATOM      3  CG  LYS A 131      27.601  24.401  16.898  1.00 22.96     0.005 C 
BRANCH   3   4
ATOM      4  CD  LYS A 131      26.627  24.188  18.023  1.00 24.33     0.041 C 
BRANCH   4   5
ATOM      5  CE  LYS A 131      25.457  23.344  17.530  1.00 26.91     0.338 C 
ATOM      6  NZ  LYS A 131      24.444  24.198  16.866  1.00 27.40     0.618 N 
ENDBRANCH   4   5
ENDBRANCH   3   4
ENDBRANCH   2   3
ENDBRANCH   1   2
END_RES LYS A 131
BEGIN_RES LYS A 135
REMARK  4 active torsions:
REMARK  status: ('A' for Active; 'I' for Inactive)
REMARK    5  A    between atoms: CA   and  CB  
REMARK    6  A    between atoms: CB   and  CG  
REMARK    7  A    between atoms: CG   and  CD  
REMARK    8  A    between atoms: CD   and  CE  
ROOT
ATOM      7  CA  LYS A 135      33.193  34.663   9.290  1.00 25.02     0.186 C 
ENDROOT
BRANCH   7   8
ATOM      8  CB  LYS A 135      32.060  35.360  10.034  1.00 26.63     0.034 C 
BRANCH   8   9
ATOM      9  CG  LYS A 135      30.703  34.767   9.757  1.00 29.45     0.005 C 
BRANCH   9  10
ATOM     10  CD  LYS A 135      30.487  34.595   8.262  1.00 32.00     0.041 C 
BRANCH  10  11
ATOM     11  CE  LYS A 135      29.048  34.901   7.893  1.00 34.25     0.338 C 
ATOM     12  NZ  LYS A 135      28.947  35.393   6.491  1.00 35.99     0.618 N 
ENDBRANCH  10  11
ENDBRANCH   9  10
ENDBRANCH   8   9
ENDBRANCH   7   8
END_RES LYS A 135
