REMARK VINA RESULT:    -5.162      7.853     15.648
REMARK INTER + INTRA:         -16.655
REMARK INTER:                  -8.750
REMARK INTRA:                  -7.905
REMARK UNBOUND:                -5.759
REMARK SMILES CC(=O)N[C@@H]1[C@@H](O)C[C@](O)(C(=O)O)O[C@H]1C(O)[C@H](O)CNC(=O)OCc1cn(CC(=O)NCC(O)Cn2ccnc2[N+](=O)[O-])nn1
REMARK SMILES IDX 25 1 24 2 22 3 21 4 23 6 20 7 18 8 16 9 15 10 9 11 8 12
REMARK SMILES IDX 14 13 6 14 5 15 10 16 11 18 12 19 13 20 7 22 4 24 2 25 1 27
REMARK SMILES IDX 3 28 17 29 19 31 26 33 27 34 46 35 28 36 45 37 29 38 30 39
REMARK SMILES IDX 31 40 32 41 33 43 34 44 35 45 36 47 37 48 38 49 41 50 39 51
REMARK SMILES IDX 40 52 42 53 43 54 44 55
REMARK H PARENT 21 5 10 17 13 21 7 23 4 26 17 30 19 32 32 42 35 46
REMARK Flexibility Score: inf
ROOT
ATOM      1  C   UNL     1      26.447  27.020  21.359  1.00  0.00     0.294 C 
ENDROOT
BRANCH   1   2
ATOM      2  O   UNL     1      27.242  27.726  22.291  1.00  0.00    -0.443 OA
BRANCH   2   3
ATOM      3  C   UNL     1      28.495  27.275  22.667  1.00  0.00     0.407 C 
ATOM      4  N   UNL     1      29.513  27.003  21.691  1.00  0.00    -0.319 N 
ATOM      5  H   UNL     1      29.248  27.157  20.697  1.00  0.00     0.167 HD
ATOM      6  O   UNL     1      28.725  27.107  23.877  1.00  0.00    -0.225 OA
BRANCH   4   7
ATOM      7  C   UNL     1      30.818  26.547  22.027  1.00  0.00     0.154 C 
BRANCH   7   8
ATOM      8  C   UNL     1      31.917  27.172  21.241  1.00  0.00     0.165 C 
BRANCH   8   9
ATOM      9  C   UNL     1      31.938  28.666  21.523  1.00  0.00     0.176 C 
BRANCH   9  10
ATOM     10  C   UNL     1      31.843  28.982  22.981  1.00  0.00     0.178 C 
ATOM     11  C   UNL     1      30.971  31.121  23.285  1.00  0.00     0.269 C 
ATOM     12  C   UNL     1      31.906  31.506  24.423  1.00  0.00     0.112 C 
ATOM     13  O   UNL     1      30.752  29.773  23.237  1.00  0.00    -0.332 OA
ATOM     14  C   UNL     1      32.724  30.293  24.843  1.00  0.00     0.145 C 
ATOM     15  C   UNL     1      33.096  29.570  23.542  1.00  0.00     0.142 C 
BRANCH  11  16
ATOM     16  O   UNL     1      31.594  31.535  22.122  1.00  0.00    -0.357 OA
ATOM     17  H   UNL     1      31.557  30.825  21.431  1.00  0.00     0.214 HD
ENDBRANCH  11  16
BRANCH  11  18
ATOM     18  C   UNL     1      29.671  31.833  23.388  1.00  0.00     0.364 C 
ATOM     19  O   UNL     1      28.900  31.671  24.375  1.00  0.00    -0.246 OA
BRANCH  18  20
ATOM     20  O   UNL     1      29.255  32.709  22.399  1.00  0.00    -0.477 OA
ATOM     21  H   UNL     1      29.417  32.598  21.414  1.00  0.00     0.296 HD
ENDBRANCH  18  20
ENDBRANCH  11  18
BRANCH  14  22
ATOM     22  O   UNL     1      33.852  30.755  25.498  1.00  0.00    -0.391 OA
ATOM     23  H   UNL     1      34.410  31.346  24.944  1.00  0.00     0.211 HD
ENDBRANCH  14  22
BRANCH  15  24
ATOM     24  N   UNL     1      34.092  28.545  23.826  1.00  0.00    -0.348 N 
ATOM     25  C   UNL     1      35.451  28.809  23.565  1.00  0.00     0.217 C 
ATOM     26  H   UNL     1      33.796  27.644  24.207  1.00  0.00     0.163 HD
ATOM     27  C   UNL     1      36.516  27.777  23.845  1.00  0.00     0.114 C 
ATOM     28  O   UNL     1      35.867  29.894  23.092  1.00  0.00    -0.275 OA
ENDBRANCH  15  24
ENDBRANCH   9  10
BRANCH   9  29
ATOM     29  O   UNL     1      33.071  29.261  20.994  1.00  0.00    -0.388 OA
ATOM     30  H   UNL     1      33.866  29.144  21.545  1.00  0.00     0.211 HD
ENDBRANCH   9  29
ENDBRANCH   8   9
BRANCH   8  31
ATOM     31  O   UNL     1      31.838  26.972  19.873  1.00  0.00    -0.388 OA
ATOM     32  H   UNL     1      32.210  26.093  19.593  1.00  0.00     0.211 HD
ENDBRANCH   8  31
ENDBRANCH   7   8
ENDBRANCH   4   7
ENDBRANCH   2   3
ENDBRANCH   1   2
BRANCH   1  33
ATOM     33  C   UNL     1      26.694  27.669  20.048  1.00  0.00     0.120 A 
ATOM     34  C   UNL     1      26.148  28.876  19.668  1.00  0.00     0.138 A 
ATOM     35  N   UNL     1      27.431  27.288  18.995  1.00  0.00    -0.132 NA
ATOM     36  N   UNL     1      26.562  29.199  18.404  1.00  0.00    -0.243 N 
ATOM     37  N   UNL     1      27.340  28.216  18.023  1.00  0.00    -0.067 NA
BRANCH  36  38
ATOM     38  C   UNL     1      26.135  30.414  17.746  1.00  0.00     0.245 C 
BRANCH  38  39
ATOM     39  C   UNL     1      27.140  30.669  16.638  1.00  0.00     0.241 C 
ATOM     40  O   UNL     1      26.744  30.960  15.489  1.00  0.00    -0.273 OA
ATOM     41  N   UNL     1      28.518  30.591  16.851  1.00  0.00    -0.352 N 
ATOM     42  H   UNL     1      28.771  30.354  17.884  1.00  0.00     0.163 HD
BRANCH  41  43
ATOM     43  C   UNL     1      29.596  30.764  15.948  1.00  0.00     0.151 C 
BRANCH  43  44
ATOM     44  C   UNL     1      30.528  31.878  16.108  1.00  0.00     0.168 C 
BRANCH  44  45
ATOM     45  O   UNL     1      31.462  31.978  15.041  1.00  0.00    -0.388 OA
ATOM     46  H   UNL     1      31.335  32.841  14.579  1.00  0.00     0.211 HD
ENDBRANCH  44  45
BRANCH  44  47
ATOM     47  C   UNL     1      30.107  33.174  16.664  1.00  0.00     0.239 C 
BRANCH  47  48
ATOM     48  N   UNL     1      30.761  33.511  17.914  1.00  0.00    -0.227 N 
ATOM     49  C   UNL     1      31.801  34.371  18.055  1.00  0.00     0.204 A 
ATOM     50  C   UNL     1      30.455  33.011  19.125  1.00  0.00     0.434 A 
ATOM     51  C   UNL     1      32.124  34.382  19.400  1.00  0.00     0.245 A 
ATOM     52  N   UNL     1      31.305  33.553  20.050  1.00  0.00    -0.074 NA
BRANCH  50  53
ATOM     53  N   UNL     1      29.445  32.083  19.481  1.00  0.00    -0.047 N 
ATOM     54  O   UNL     1      28.247  32.496  19.494  1.00  0.00    -0.390 OA
ATOM     55  O   UNL     1      29.630  30.784  19.815  1.00  0.00    -0.390 OA
ENDBRANCH  50  53
ENDBRANCH  47  48
ENDBRANCH  44  47
ENDBRANCH  43  44
ENDBRANCH  41  43
ENDBRANCH  38  39
ENDBRANCH  36  38
ENDBRANCH   1  33
TORSDOF 22
BEGIN_RES LYS A 131
REMARK  4 active torsions:
REMARK  status: ('A' for Active; 'I' for Inactive)
REMARK    1  A    between atoms: CA   and  CB  
REMARK    2  A    between atoms: CB   and  CG  
REMARK    3  A    between atoms: CG   and  CD  
REMARK    4  A    between atoms: CD   and  CE  
ROOT
ATOM      1  CA  LYS A 131      29.867  25.555  16.977  1.00 20.52     0.186 C 
ENDROOT
BRANCH   1   2
ATOM      2  CB  LYS A 131      28.345  25.722  17.026  1.00 20.94     0.034 C 
BRANCH   2   3
ATOM      3  CG  LYS A 131      27.601  24.405  16.865  1.00 22.96     0.005 C 
BRANCH   3   4
ATOM      4  CD  LYS A 131      26.147  24.529  17.227  1.00 24.33     0.041 C 
BRANCH   4   5
ATOM      5  CE  LYS A 131      25.583  23.148  17.548  1.00 26.91     0.338 C 
ATOM      6  NZ  LYS A 131      24.127  23.106  17.272  1.00 27.40     0.618 N 
ENDBRANCH   4   5
ENDBRANCH   3   4
ENDBRANCH   2   3
ENDBRANCH   1   2
END_RES LYS A 131
BEGIN_RES LYS A 135
REMARK  4 active torsions:
REMARK  status: ('A' for Active; 'I' for Inactive)
REMARK    5  A    between atoms: CA   and  CB  
REMARK    6  A    between atoms: CB   and  CG  
REMARK    7  A    between atoms: CG   and  CD  
REMARK    8  A    between atoms: CD   and  CE  
ROOT
ATOM      7  CA  LYS A 135      33.193  34.663   9.290  1.00 25.02     0.186 C 
ENDROOT
BRANCH   7   8
ATOM      8  CB  LYS A 135      32.060  35.360  10.034  1.00 26.63     0.034 C 
BRANCH   8   9
ATOM      9  CG  LYS A 135      30.688  34.957   9.558  1.00 29.45     0.005 C 
BRANCH   9  10
ATOM     10  CD  LYS A 135      29.698  34.956  10.712  1.00 32.00     0.041 C 
BRANCH  10  11
ATOM     11  CE  LYS A 135      30.364  35.442  11.985  1.00 34.25     0.338 C 
ATOM     12  NZ  LYS A 135      30.138  34.488  13.106  1.00 35.99     0.618 N 
ENDBRANCH  10  11
ENDBRANCH   9  10
ENDBRANCH   8   9
ENDBRANCH   7   8
END_RES LYS A 135
