REMARK VINA RESULT:    -5.276      4.544      8.070
REMARK INTER + INTRA:         -15.442
REMARK INTER:                  -9.594
REMARK INTRA:                  -5.848
REMARK UNBOUND:                -6.003
REMARK SMILES CC(=O)N[C@@H]1[C@@H](O)C[C@](O)(C(=O)O)O[C@H]1C(O)[C@H](O)CNC(=O)OCc1cn(Cc2ccc3c(c2)OCO3)nn1
REMARK SMILES IDX 21 1 22 2 23 3 20 5 18 6 16 7 15 8 9 9 8 10 14 11 6 12 5 13
REMARK SMILES IDX 10 14 11 16 12 17 13 18 7 20 4 22 2 23 1 25 3 26 17 27 19 29
REMARK SMILES IDX 24 31 25 32 26 33 27 34 40 35 28 36 39 37 29 38 30 39 31 40
REMARK SMILES IDX 35 41 32 42 34 43 33 44 36 45 38 46 37 47
REMARK H PARENT 21 4 10 15 13 19 7 21 4 24 17 28 19 30
REMARK Flexibility Score: inf
ROOT
ATOM      1  N   UNL     1      29.392  30.639  16.715  1.00  0.00    -0.319 N 
ATOM      2  C   UNL     1      28.144  30.626  17.397  1.00  0.00     0.407 C 
ATOM      3  O   UNL     1      27.880  31.547  18.238  1.00  0.00    -0.225 OA
ATOM      4  H   UNL     1      29.578  29.882  16.041  1.00  0.00     0.167 HD
ENDROOT
BRANCH   1   5
ATOM      5  C   UNL     1      30.303  31.713  17.018  1.00  0.00     0.154 C 
BRANCH   5   6
ATOM      6  C   UNL     1      30.643  32.562  15.834  1.00  0.00     0.165 C 
BRANCH   6   7
ATOM      7  C   UNL     1      29.418  33.053  15.095  1.00  0.00     0.176 C 
BRANCH   7   8
ATOM      8  C   UNL     1      29.793  34.147  14.099  1.00  0.00     0.178 C 
ATOM      9  C   UNL     1      30.867  36.074  14.818  1.00  0.00     0.269 C 
ATOM     10  C   UNL     1      30.145  36.965  13.833  1.00  0.00     0.112 C 
ATOM     11  O   UNL     1      30.961  34.770  14.427  1.00  0.00    -0.332 OA
ATOM     12  C   UNL     1      29.167  36.190  12.974  1.00  0.00     0.145 C 
ATOM     13  C   UNL     1      28.632  35.066  13.831  1.00  0.00     0.142 C 
BRANCH   9  14
ATOM     14  O   UNL     1      30.289  36.182  16.097  1.00  0.00    -0.357 OA
ATOM     15  H   UNL     1      29.449  36.678  16.087  1.00  0.00     0.214 HD
ENDBRANCH   9  14
BRANCH   9  16
ATOM     16  C   UNL     1      32.249  36.613  14.948  1.00  0.00     0.364 C 
ATOM     17  O   UNL     1      33.248  35.893  14.643  1.00  0.00    -0.246 OA
BRANCH  16  18
ATOM     18  O   UNL     1      32.531  37.892  15.396  1.00  0.00    -0.477 OA
ATOM     19  H   UNL     1      33.279  38.408  14.921  1.00  0.00     0.296 HD
ENDBRANCH  16  18
ENDBRANCH   9  16
BRANCH  12  20
ATOM     20  O   UNL     1      28.159  37.011  12.479  1.00  0.00    -0.391 OA
ATOM     21  H   UNL     1      27.305  36.525  12.580  1.00  0.00     0.211 HD
ENDBRANCH  12  20
BRANCH  13  22
ATOM     22  N   UNL     1      27.558  34.351  13.239  1.00  0.00    -0.348 N 
ATOM     23  C   UNL     1      26.243  34.371  13.773  1.00  0.00     0.217 C 
ATOM     24  H   UNL     1      27.772  33.788  12.364  1.00  0.00     0.163 HD
ATOM     25  C   UNL     1      25.131  33.606  13.123  1.00  0.00     0.114 C 
ATOM     26  O   UNL     1      26.067  35.059  14.810  1.00  0.00    -0.275 OA
ENDBRANCH  13  22
ENDBRANCH   7   8
BRANCH   7  27
ATOM     27  O   UNL     1      28.564  33.633  16.032  1.00  0.00    -0.388 OA
ATOM     28  H   UNL     1      27.638  33.630  15.686  1.00  0.00     0.211 HD
ENDBRANCH   7  27
ENDBRANCH   6   7
BRANCH   6  29
ATOM     29  O   UNL     1      31.436  31.798  14.979  1.00  0.00    -0.388 OA
ATOM     30  H   UNL     1      30.940  31.036  14.592  1.00  0.00     0.211 HD
ENDBRANCH   6  29
ENDBRANCH   5   6
ENDBRANCH   1   5
BRANCH   2  31
ATOM     31  O   UNL     1      27.183  29.643  17.190  1.00  0.00    -0.443 OA
BRANCH  31  32
ATOM     32  C   UNL     1      25.828  29.941  17.509  1.00  0.00     0.294 C 
BRANCH  32  33
ATOM     33  C   UNL     1      24.951  29.666  16.348  1.00  0.00     0.120 A 
ATOM     34  C   UNL     1      25.159  30.140  15.085  1.00  0.00     0.138 A 
ATOM     35  N   UNL     1      23.833  28.942  16.300  1.00  0.00    -0.132 NA
ATOM     36  N   UNL     1      24.164  29.690  14.308  1.00  0.00    -0.248 N 
ATOM     37  N   UNL     1      23.367  28.965  15.057  1.00  0.00    -0.067 NA
BRANCH  36  38
ATOM     38  C   UNL     1      24.015  29.967  12.896  1.00  0.00     0.181 C 
BRANCH  38  39
ATOM     39  C   UNL     1      22.566  30.219  12.652  1.00  0.00    -0.023 A 
ATOM     40  C   UNL     1      22.070  31.485  12.866  1.00  0.00     0.010 A 
ATOM     41  C   UNL     1      21.716  29.231  12.224  1.00  0.00     0.056 A 
ATOM     42  C   UNL     1      20.722  31.742  12.645  1.00  0.00     0.051 A 
ATOM     43  C   UNL     1      20.377  29.491  12.006  1.00  0.00     0.166 A 
ATOM     44  C   UNL     1      19.871  30.745  12.214  1.00  0.00     0.165 A 
ATOM     45  O   UNL     1      19.356  28.662  11.581  1.00  0.00    -0.454 OA
ATOM     46  O   UNL     1      18.521  30.745  11.928  1.00  0.00    -0.454 OA
ATOM     47  C   UNL     1      18.246  29.492  11.318  1.00  0.00     0.468 C 
ENDBRANCH  38  39
ENDBRANCH  36  38
ENDBRANCH  32  33
ENDBRANCH  31  32
ENDBRANCH   2  31
TORSDOF 16
BEGIN_RES LYS A 131
REMARK  4 active torsions:
REMARK  status: ('A' for Active; 'I' for Inactive)
REMARK    1  A    between atoms: CA   and  CB  
REMARK    2  A    between atoms: CB   and  CG  
REMARK    3  A    between atoms: CG   and  CD  
REMARK    4  A    between atoms: CD   and  CE  
ROOT
ATOM      1  CA  LYS A 131      29.867  25.555  16.977  1.00 20.52     0.186 C 
ENDROOT
BRANCH   1   2
ATOM      2  CB  LYS A 131      28.345  25.722  17.026  1.00 20.94     0.034 C 
BRANCH   2   3
ATOM      3  CG  LYS A 131      27.601  24.404  16.873  1.00 22.96     0.005 C 
BRANCH   3   4
ATOM      4  CD  LYS A 131      26.173  24.503  17.334  1.00 24.33     0.041 C 
BRANCH   4   5
ATOM      5  CE  LYS A 131      25.630  23.105  17.611  1.00 26.91     0.338 C 
ATOM      6  NZ  LYS A 131      25.240  22.973  19.035  1.00 27.40     0.618 N 
ENDBRANCH   4   5
ENDBRANCH   3   4
ENDBRANCH   2   3
ENDBRANCH   1   2
END_RES LYS A 131
BEGIN_RES LYS A 135
REMARK  4 active torsions:
REMARK  status: ('A' for Active; 'I' for Inactive)
REMARK    5  A    between atoms: CA   and  CB  
REMARK    6  A    between atoms: CB   and  CG  
REMARK    7  A    between atoms: CG   and  CD  
REMARK    8  A    between atoms: CD   and  CE  
ROOT
ATOM      7  CA  LYS A 135      33.193  34.663   9.290  1.00 25.02     0.186 C 
ENDROOT
BRANCH   7   8
ATOM      8  CB  LYS A 135      32.060  35.360  10.034  1.00 26.63     0.034 C 
BRANCH   8   9
ATOM      9  CG  LYS A 135      30.712  34.724   9.812  1.00 29.45     0.005 C 
BRANCH   9  10
ATOM     10  CD  LYS A 135      30.199  35.028   8.413  1.00 32.00     0.041 C 
BRANCH  10  11
ATOM     11  CE  LYS A 135      28.763  34.565   8.259  1.00 34.25     0.338 C 
ATOM     12  NZ  LYS A 135      28.297  33.850   9.480  1.00 35.99     0.618 N 
ENDBRANCH  10  11
ENDBRANCH   9  10
ENDBRANCH   8   9
ENDBRANCH   7   8
END_RES LYS A 135
