REMARK VINA RESULT:    -3.659      7.537     12.398
REMARK INTER + INTRA:         -16.875
REMARK INTER:                 -11.025
REMARK INTRA:                  -5.851
REMARK UNBOUND:                -8.298
REMARK SMILES CC(=O)N[C@@H]1[C@@H](O)C[C@](O)(C(=O)O)O[C@H]1C(O)[C@H](O)CNC(=O)OCc1cn(CCCCCCCCCCC(=O)O)nn1
REMARK SMILES IDX 29 1 28 2 26 3 27 4 43 5 42 6 25 7 24 8 22 9 21 10 23 12
REMARK SMILES IDX 20 13 18 14 16 15 15 16 9 17 8 18 14 19 6 20 5 21 10 22
REMARK SMILES IDX 11 24 12 25 13 26 7 28 4 30 2 31 1 33 3 34 17 35 19 37 30 39
REMARK SMILES IDX 31 40 32 41 33 42 34 43 35 44 36 45 37 46 38 47 39 48 40 49
REMARK SMILES IDX 41 50
REMARK H PARENT 21 11 10 23 13 27 7 29 4 32 17 36 19 38 41 51
REMARK Flexibility Score: inf
ROOT
ATOM      1  C   UNL     1      26.568  40.176   6.276  1.00  0.00     0.146 C 
ENDROOT
BRANCH   1   2
ATOM      2  N   UNL     1      25.371  39.753   6.950  1.00  0.00    -0.252 N 
ATOM      3  C   UNL     1      23.366  39.593   7.825  1.00  0.00     0.120 A 
ATOM      4  C   UNL     1      24.193  40.419   7.113  1.00  0.00     0.138 A 
ATOM      5  N   UNL     1      24.049  38.455   8.076  1.00  0.00    -0.132 NA
ATOM      6  N   UNL     1      25.234  38.584   7.542  1.00  0.00    -0.067 NA
BRANCH   3   7
ATOM      7  C   UNL     1      21.982  39.919   8.230  1.00  0.00     0.294 C 
BRANCH   7   8
ATOM      8  O   UNL     1      21.444  38.893   9.035  1.00  0.00    -0.443 OA
BRANCH   8   9
ATOM      9  C   UNL     1      20.290  38.222   8.652  1.00  0.00     0.407 C 
ATOM     10  N   UNL     1      20.328  37.140   7.732  1.00  0.00    -0.319 N 
ATOM     11  H   UNL     1      21.234  36.827   7.322  1.00  0.00     0.167 HD
ATOM     12  O   UNL     1      19.177  38.604   9.152  1.00  0.00    -0.225 OA
BRANCH  10  13
ATOM     13  C   UNL     1      19.117  36.476   7.365  1.00  0.00     0.154 C 
BRANCH  13  14
ATOM     14  C   UNL     1      19.190  34.977   7.564  1.00  0.00     0.165 C 
BRANCH  14  15
ATOM     15  C   UNL     1      18.440  34.586   8.801  1.00  0.00     0.176 C 
BRANCH  15  16
ATOM     16  C   UNL     1      17.427  33.511   8.473  1.00  0.00     0.178 C 
ATOM     17  C   UNL     1      17.301  31.316   7.742  1.00  0.00     0.269 C 
ATOM     18  C   UNL     1      15.912  31.728   7.310  1.00  0.00     0.112 C 
ATOM     19  O   UNL     1      18.105  32.403   8.044  1.00  0.00    -0.332 OA
ATOM     20  C   UNL     1      16.027  32.984   6.490  1.00  0.00     0.145 C 
ATOM     21  C   UNL     1      16.469  34.088   7.461  1.00  0.00     0.142 C 
BRANCH  17  22
ATOM     22  O   UNL     1      17.881  30.669   6.655  1.00  0.00    -0.357 OA
ATOM     23  H   UNL     1      17.202  30.391   5.999  1.00  0.00     0.214 HD
ENDBRANCH  17  22
BRANCH  17  24
ATOM     24  C   UNL     1      17.164  30.367   8.847  1.00  0.00     0.364 C 
ATOM     25  O   UNL     1      16.539  29.294   8.663  1.00  0.00    -0.246 OA
BRANCH  24  26
ATOM     26  O   UNL     1      17.688  30.570  10.117  1.00  0.00    -0.477 OA
ATOM     27  H   UNL     1      18.111  31.487  10.332  1.00  0.00     0.296 HD
ENDBRANCH  24  26
ENDBRANCH  17  24
BRANCH  20  28
ATOM     28  O   UNL     1      16.919  32.822   5.452  1.00  0.00    -0.391 OA
ATOM     29  H   UNL     1      16.951  31.860   5.221  1.00  0.00     0.211 HD
ENDBRANCH  20  28
BRANCH  21  30
ATOM     30  N   UNL     1      15.255  34.556   8.095  1.00  0.00    -0.348 N 
ATOM     31  C   UNL     1      14.907  35.921   7.960  1.00  0.00     0.217 C 
ATOM     32  H   UNL     1      14.630  33.917   8.646  1.00  0.00     0.163 HD
ATOM     33  C   UNL     1      13.660  36.444   8.600  1.00  0.00     0.114 C 
ATOM     34  O   UNL     1      15.637  36.693   7.309  1.00  0.00    -0.275 OA
ENDBRANCH  21  30
ENDBRANCH  15  16
BRANCH  15  35
ATOM     35  O   UNL     1      17.838  35.736   9.321  1.00  0.00    -0.388 OA
ATOM     36  H   UNL     1      18.005  36.535   8.791  1.00  0.00     0.211 HD
ENDBRANCH  15  35
ENDBRANCH  14  15
BRANCH  14  37
ATOM     37  O   UNL     1      20.509  34.545   7.702  1.00  0.00    -0.388 OA
ATOM     38  H   UNL     1      20.554  33.664   8.119  1.00  0.00     0.211 HD
ENDBRANCH  14  37
ENDBRANCH  13  14
ENDBRANCH  10  13
ENDBRANCH   8   9
ENDBRANCH   7   8
ENDBRANCH   3   7
ENDBRANCH   1   2
BRANCH   1  39
ATOM     39  C   UNL     1      27.247  38.973   5.679  1.00  0.00     0.024 C 
BRANCH  39  40
ATOM     40  C   UNL     1      28.687  38.849   6.089  1.00  0.00     0.002 C 
BRANCH  40  41
ATOM     41  C   UNL     1      28.943  37.631   6.940  1.00  0.00     0.000 C 
BRANCH  41  42
ATOM     42  C   UNL     1      28.584  36.374   6.153  1.00  0.00     0.000 C 
BRANCH  42  43
ATOM     43  C   UNL     1      28.450  35.222   7.114  1.00  0.00     0.000 C 
BRANCH  43  44
ATOM     44  C   UNL     1      27.092  35.188   7.753  1.00  0.00     0.000 C 
BRANCH  44  45
ATOM     45  C   UNL     1      27.149  34.498   9.075  1.00  0.00     0.001 C 
BRANCH  45  46
ATOM     46  C   UNL     1      25.938  34.855   9.933  1.00  0.00     0.012 C 
BRANCH  46  47
ATOM     47  C   UNL     1      24.766  35.302   9.102  1.00  0.00     0.122 C 
BRANCH  47  48
ATOM     48  C   UNL     1      23.603  35.421  10.037  1.00  0.00     0.303 C 
ATOM     49  O   UNL     1      23.597  34.941  11.189  1.00  0.00    -0.252 OA
BRANCH  48  50
ATOM     50  O   UNL     1      22.461  36.101   9.613  1.00  0.00    -0.481 OA
ATOM     51  H   UNL     1      22.243  36.991  10.026  1.00  0.00     0.296 HD
ENDBRANCH  48  50
ENDBRANCH  47  48
ENDBRANCH  46  47
ENDBRANCH  45  46
ENDBRANCH  44  45
ENDBRANCH  43  44
ENDBRANCH  42  43
ENDBRANCH  41  42
ENDBRANCH  40  41
ENDBRANCH  39  40
ENDBRANCH   1  39
TORSDOF 26
BEGIN_RES LYS A 131
REMARK  4 active torsions:
REMARK  status: ('A' for Active; 'I' for Inactive)
REMARK    1  A    between atoms: CA   and  CB  
REMARK    2  A    between atoms: CB   and  CG  
REMARK    3  A    between atoms: CG   and  CD  
REMARK    4  A    between atoms: CD   and  CE  
ROOT
ATOM      1  CA  LYS A 131      29.867  25.555  16.977  1.00 20.52     0.186 C 
ENDROOT
BRANCH   1   2
ATOM      2  CB  LYS A 131      28.345  25.722  17.026  1.00 20.94     0.034 C 
BRANCH   2   3
ATOM      3  CG  LYS A 131      27.601  24.403  16.888  1.00 22.96     0.005 C 
BRANCH   3   4
ATOM      4  CD  LYS A 131      26.155  24.524  17.282  1.00 24.33     0.041 C 
BRANCH   4   5
ATOM      5  CE  LYS A 131      25.973  25.742  18.181  1.00 26.91     0.338 C 
ATOM      6  NZ  LYS A 131      25.748  25.323  19.585  1.00 27.40     0.618 N 
ENDBRANCH   4   5
ENDBRANCH   3   4
ENDBRANCH   2   3
ENDBRANCH   1   2
END_RES LYS A 131
BEGIN_RES LYS A 135
REMARK  4 active torsions:
REMARK  status: ('A' for Active; 'I' for Inactive)
REMARK    5  A    between atoms: CA   and  CB  
REMARK    6  A    between atoms: CB   and  CG  
REMARK    7  A    between atoms: CG   and  CD  
REMARK    8  A    between atoms: CD   and  CE  
ROOT
ATOM      7  CA  LYS A 135      33.193  34.663   9.290  1.00 25.02     0.186 C 
ENDROOT
BRANCH   7   8
ATOM      8  CB  LYS A 135      32.060  35.360  10.034  1.00 26.63     0.034 C 
BRANCH   8   9
ATOM      9  CG  LYS A 135      30.733  34.657   9.906  1.00 29.45     0.005 C 
BRANCH   9  10
ATOM     10  CD  LYS A 135      29.878  34.895  11.141  1.00 32.00     0.041 C 
BRANCH  10  11
ATOM     11  CE  LYS A 135      29.915  36.358  11.540  1.00 34.25     0.338 C 
ATOM     12  NZ  LYS A 135      28.567  36.981  11.420  1.00 35.99     0.618 N 
ENDBRANCH  10  11
ENDBRANCH   9  10
ENDBRANCH   8   9
ENDBRANCH   7   8
END_RES LYS A 135
