REMARK VINA RESULT:    -4.873      3.986      7.101
REMARK INTER + INTRA:         -15.464
REMARK INTER:                 -11.509
REMARK INTRA:                  -3.955
REMARK UNBOUND:                -6.317
REMARK SMILES CC(=O)N[C@@H]1[C@@H](O)C[C@](O)(C(=O)O)O[C@H]1C(O)[C@H](O)CNC(=O)OCc1cn(-c2cccc(C=CC(=O)O)c2)nn1
REMARK SMILES IDX 21 1 22 2 23 3 20 5 18 6 16 7 15 8 9 9 8 10 14 11 6 12 5 13
REMARK SMILES IDX 10 14 11 16 12 17 13 18 7 20 4 22 2 23 1 25 3 26 17 27 19 29
REMARK SMILES IDX 24 31 25 32 26 33 27 34 41 35 28 36 40 37 29 38 39 39 30 40
REMARK SMILES IDX 33 41 31 42 32 43 34 44 35 45 36 46 37 47 38 48
REMARK H PARENT 21 4 10 15 13 19 7 21 4 24 17 28 19 30 38 49
REMARK Flexibility Score: inf
ROOT
ATOM      1  N   UNL     1      23.406  36.918  10.315  1.00  0.00    -0.319 N 
ATOM      2  C   UNL     1      24.296  37.262  11.358  1.00  0.00     0.407 C 
ATOM      3  O   UNL     1      24.879  38.365  11.411  1.00  0.00    -0.225 OA
ATOM      4  H   UNL     1      22.975  35.932  10.379  1.00  0.00     0.167 HD
ENDROOT
BRANCH   1   5
ATOM      5  C   UNL     1      23.035  37.749   9.206  1.00  0.00     0.154 C 
BRANCH   5   6
ATOM      6  C   UNL     1      23.707  37.302   7.948  1.00  0.00     0.165 C 
BRANCH   6   7
ATOM      7  C   UNL     1      25.037  37.981   7.684  1.00  0.00     0.176 C 
BRANCH   7   8
ATOM      8  C   UNL     1      26.146  36.994   7.668  1.00  0.00     0.178 C 
ATOM      9  C   UNL     1      27.699  35.713   8.798  1.00  0.00     0.269 C 
ATOM     10  C   UNL     1      27.959  35.183   7.416  1.00  0.00     0.112 C 
ATOM     11  O   UNL     1      26.602  36.549   8.868  1.00  0.00    -0.332 OA
ATOM     12  C   UNL     1      28.021  36.205   6.342  1.00  0.00     0.145 C 
ATOM     13  C   UNL     1      27.310  37.457   6.794  1.00  0.00     0.142 C 
BRANCH   9  14
ATOM     14  O   UNL     1      28.863  36.299   9.293  1.00  0.00    -0.357 OA
ATOM     15  H   UNL     1      29.653  36.084   8.752  1.00  0.00     0.214 HD
ENDBRANCH   9  14
BRANCH   9  16
ATOM     16  C   UNL     1      27.404  34.539   9.667  1.00  0.00     0.364 C 
ATOM     17  O   UNL     1      26.395  34.579  10.449  1.00  0.00    -0.246 OA
BRANCH  16  18
ATOM     18  O   UNL     1      28.189  33.395   9.659  1.00  0.00    -0.477 OA
ATOM     19  H   UNL     1      28.504  32.945  10.495  1.00  0.00     0.296 HD
ENDBRANCH  16  18
ENDBRANCH   9  16
BRANCH  12  20
ATOM     20  O   UNL     1      29.315  36.476   5.905  1.00  0.00    -0.391 OA
ATOM     21  H   UNL     1      29.283  36.932   5.048  1.00  0.00     0.211 HD
ENDBRANCH  12  20
BRANCH  13  22
ATOM     22  N   UNL     1      26.891  38.285   5.706  1.00  0.00    -0.348 N 
ATOM     23  C   UNL     1      27.725  39.283   5.139  1.00  0.00     0.217 C 
ATOM     24  H   UNL     1      25.926  38.182   5.273  1.00  0.00     0.163 HD
ATOM     25  C   UNL     1      27.249  40.113   4.016  1.00  0.00     0.114 C 
ATOM     26  O   UNL     1      28.884  39.480   5.584  1.00  0.00    -0.275 OA
ENDBRANCH  13  22
ENDBRANCH   7   8
BRANCH   7  27
ATOM     27  O   UNL     1      25.240  39.080   8.513  1.00  0.00    -0.388 OA
ATOM     28  H   UNL     1      24.493  39.120   9.149  1.00  0.00     0.211 HD
ENDBRANCH   7  27
ENDBRANCH   6   7
BRANCH   6  29
ATOM     29  O   UNL     1      22.889  37.482   6.830  1.00  0.00    -0.388 OA
ATOM     30  H   UNL     1      22.504  36.598   6.577  1.00  0.00     0.211 HD
ENDBRANCH   6  29
ENDBRANCH   5   6
ENDBRANCH   1   5
BRANCH   2  31
ATOM     31  O   UNL     1      24.570  36.357  12.405  1.00  0.00    -0.443 OA
BRANCH  31  32
ATOM     32  C   UNL     1      25.531  36.695  13.354  1.00  0.00     0.294 C 
BRANCH  32  33
ATOM     33  C   UNL     1      26.246  35.515  13.897  1.00  0.00     0.121 A 
ATOM     34  C   UNL     1      27.588  35.303  14.101  1.00  0.00     0.144 A 
ATOM     35  N   UNL     1      25.645  34.384  14.304  1.00  0.00    -0.131 NA
ATOM     36  N   UNL     1      27.779  34.065  14.622  1.00  0.00    -0.220 N 
ATOM     37  N   UNL     1      26.577  33.531  14.733  1.00  0.00    -0.062 NA
BRANCH  36  38
ATOM     38  C   UNL     1      29.047  33.501  14.963  1.00  0.00     0.067 A 
ATOM     39  C   UNL     1      30.213  34.180  14.729  1.00  0.00     0.036 A 
ATOM     40  C   UNL     1      29.117  32.252  15.536  1.00  0.00     0.028 A 
ATOM     41  C   UNL     1      31.480  33.625  15.064  1.00  0.00    -0.023 A 
ATOM     42  C   UNL     1      30.298  31.665  15.881  1.00  0.00     0.003 A 
ATOM     43  C   UNL     1      31.483  32.379  15.633  1.00  0.00     0.008 A 
BRANCH  41  44
ATOM     44  C   UNL     1      32.651  34.397  14.835  1.00  0.00     0.015 C 
ATOM     45  C   UNL     1      33.123  35.545  15.130  1.00  0.00     0.094 C 
BRANCH  45  46
ATOM     46  C   UNL     1      32.690  36.662  15.870  1.00  0.00     0.328 C 
ATOM     47  O   UNL     1      32.152  36.443  17.069  1.00  0.00    -0.247 OA
BRANCH  46  48
ATOM     48  O   UNL     1      32.700  38.008  15.603  1.00  0.00    -0.478 OA
ATOM     49  H   UNL     1      32.468  38.714  16.283  1.00  0.00     0.297 HD
ENDBRANCH  46  48
ENDBRANCH  45  46
ENDBRANCH  41  44
ENDBRANCH  36  38
ENDBRANCH  32  33
ENDBRANCH  31  32
ENDBRANCH   2  31
TORSDOF 18
BEGIN_RES LYS A 131
REMARK  4 active torsions:
REMARK  status: ('A' for Active; 'I' for Inactive)
REMARK    1  A    between atoms: CA   and  CB  
REMARK    2  A    between atoms: CB   and  CG  
REMARK    3  A    between atoms: CG   and  CD  
REMARK    4  A    between atoms: CD   and  CE  
ROOT
ATOM      1  CA  LYS A 131      29.867  25.555  16.977  1.00 20.52     0.186 C 
ENDROOT
BRANCH   1   2
ATOM      2  CB  LYS A 131      28.345  25.722  17.026  1.00 20.94     0.034 C 
BRANCH   2   3
ATOM      3  CG  LYS A 131      27.601  24.404  16.875  1.00 22.96     0.005 C 
BRANCH   3   4
ATOM      4  CD  LYS A 131      26.629  24.171  17.998  1.00 24.33     0.041 C 
BRANCH   4   5
ATOM      5  CE  LYS A 131      26.052  25.506  18.458  1.00 26.91     0.338 C 
ATOM      6  NZ  LYS A 131      24.648  25.648  18.003  1.00 27.40     0.618 N 
ENDBRANCH   4   5
ENDBRANCH   3   4
ENDBRANCH   2   3
ENDBRANCH   1   2
END_RES LYS A 131
BEGIN_RES LYS A 135
REMARK  4 active torsions:
REMARK  status: ('A' for Active; 'I' for Inactive)
REMARK    5  A    between atoms: CA   and  CB  
REMARK    6  A    between atoms: CB   and  CG  
REMARK    7  A    between atoms: CG   and  CD  
REMARK    8  A    between atoms: CD   and  CE  
ROOT
ATOM      7  CA  LYS A 135      33.193  34.663   9.290  1.00 25.02     0.186 C 
ENDROOT
BRANCH   7   8
ATOM      8  CB  LYS A 135      32.060  35.360  10.034  1.00 26.63     0.034 C 
BRANCH   8   9
ATOM      9  CG  LYS A 135      32.481  35.954  11.353  1.00 29.45     0.005 C 
BRANCH   9  10
ATOM     10  CD  LYS A 135      31.306  36.639  12.033  1.00 32.00     0.041 C 
BRANCH  10  11
ATOM     11  CE  LYS A 135      31.523  38.139  12.088  1.00 34.25     0.338 C 
ATOM     12  NZ  LYS A 135      31.088  38.790  10.821  1.00 35.99     0.618 N 
ENDBRANCH  10  11
ENDBRANCH   9  10
ENDBRANCH   8   9
ENDBRANCH   7   8
END_RES LYS A 135
