REMARK VINA RESULT:    -3.961      2.247      5.645
REMARK INTER + INTRA:         -13.565
REMARK INTER:                  -6.392
REMARK INTRA:                  -7.173
REMARK UNBOUND:                -6.362
REMARK SMILES CC(=O)N[C@@H]1[C@@H](O)C[C@](O)(C(=O)O)O[C@H]1C(O)[C@H](O)CNC(=O)OCc1cn(CC(=O)O)nn1
REMARK SMILES IDX 21 1 22 2 23 3 20 5 18 6 16 7 15 8 9 9 8 10 14 11 6 12 5 13
REMARK SMILES IDX 10 14 11 16 12 17 13 18 7 20 4 22 2 23 1 25 3 26 17 27 19 29
REMARK SMILES IDX 24 31 25 32 26 33 27 34 34 35 28 36 33 37 29 38 30 39 31 40
REMARK SMILES IDX 32 41
REMARK H PARENT 21 4 10 15 13 19 7 21 4 24 17 28 19 30 32 42
REMARK Flexibility Score: inf
ROOT
ATOM      1  N   UNL     1      27.480  32.954  16.988  1.00  0.00    -0.319 N 
ATOM      2  C   UNL     1      27.735  31.575  16.867  1.00  0.00     0.407 C 
ATOM      3  O   UNL     1      27.635  30.980  15.794  1.00  0.00    -0.225 OA
ATOM      4  H   UNL     1      27.610  33.349  17.969  1.00  0.00     0.167 HD
ENDROOT
BRANCH   1   5
ATOM      5  C   UNL     1      27.070  33.851  15.938  1.00  0.00     0.154 C 
BRANCH   5   6
ATOM      6  C   UNL     1      28.138  34.739  15.386  1.00  0.00     0.165 C 
BRANCH   6   7
ATOM      7  C   UNL     1      28.796  34.206  14.169  1.00  0.00     0.176 C 
BRANCH   7   8
ATOM      8  C   UNL     1      29.461  35.233  13.292  1.00  0.00     0.178 C 
ATOM      9  C   UNL     1      31.167  36.852  13.365  1.00  0.00     0.269 C 
ATOM     10  C   UNL     1      30.419  37.764  12.450  1.00  0.00     0.112 C 
ATOM     11  O   UNL     1      30.473  35.889  14.010  1.00  0.00    -0.332 OA
ATOM     12  C   UNL     1      29.375  37.017  11.683  1.00  0.00     0.145 C 
ATOM     13  C   UNL     1      28.534  36.286  12.747  1.00  0.00     0.142 C 
BRANCH   9  14
ATOM     14  O   UNL     1      31.840  37.694  14.300  1.00  0.00    -0.357 OA
ATOM     15  H   UNL     1      32.784  37.378  14.297  1.00  0.00     0.214 HD
ENDBRANCH   9  14
BRANCH   9  16
ATOM     16  C   UNL     1      32.277  36.226  12.587  1.00  0.00     0.364 C 
ATOM     17  O   UNL     1      32.839  36.753  11.605  1.00  0.00    -0.246 OA
BRANCH  16  18
ATOM     18  O   UNL     1      32.723  34.978  12.970  1.00  0.00    -0.477 OA
ATOM     19  H   UNL     1      33.710  34.737  13.031  1.00  0.00     0.296 HD
ENDBRANCH  16  18
ENDBRANCH   9  16
BRANCH  12  20
ATOM     20  O   UNL     1      28.565  37.854  10.921  1.00  0.00    -0.391 OA
ATOM     21  H   UNL     1      28.375  38.655  11.476  1.00  0.00     0.211 HD
ENDBRANCH  12  20
BRANCH  13  22
ATOM     22  N   UNL     1      27.322  35.834  12.145  1.00  0.00    -0.348 N 
ATOM     23  C   UNL     1      26.036  36.176  12.662  1.00  0.00     0.217 C 
ATOM     24  H   UNL     1      27.354  35.246  11.293  1.00  0.00     0.163 HD
ATOM     25  C   UNL     1      24.758  35.726  12.066  1.00  0.00     0.114 C 
ATOM     26  O   UNL     1      25.992  36.902  13.682  1.00  0.00    -0.275 OA
ENDBRANCH  13  22
ENDBRANCH   7   8
BRANCH   7  27
ATOM     27  O   UNL     1      29.603  33.117  14.456  1.00  0.00    -0.388 OA
ATOM     28  H   UNL     1      30.167  33.271  15.256  1.00  0.00     0.211 HD
ENDBRANCH   7  27
ENDBRANCH   6   7
BRANCH   6  29
ATOM     29  O   UNL     1      29.069  34.994  16.405  1.00  0.00    -0.388 OA
ATOM     30  H   UNL     1      29.136  34.244  17.038  1.00  0.00     0.211 HD
ENDBRANCH   6  29
ENDBRANCH   5   6
ENDBRANCH   1   5
BRANCH   2  31
ATOM     31  O   UNL     1      28.118  30.820  17.972  1.00  0.00    -0.443 OA
BRANCH  31  32
ATOM     32  C   UNL     1      29.380  30.844  18.561  1.00  0.00     0.294 C 
BRANCH  32  33
ATOM     33  C   UNL     1      30.264  31.935  18.081  1.00  0.00     0.120 A 
ATOM     34  C   UNL     1      30.784  32.997  18.753  1.00  0.00     0.139 A 
ATOM     35  N   UNL     1      30.731  32.058  16.805  1.00  0.00    -0.132 NA
ATOM     36  N   UNL     1      31.532  33.721  17.902  1.00  0.00    -0.241 N 
ATOM     37  N   UNL     1      31.491  33.143  16.730  1.00  0.00    -0.066 NA
BRANCH  36  38
ATOM     38  C   UNL     1      32.252  34.931  18.241  1.00  0.00     0.268 C 
BRANCH  38  39
ATOM     39  C   UNL     1      32.241  35.857  17.092  1.00  0.00     0.325 C 
ATOM     40  O   UNL     1      31.477  36.863  17.118  1.00  0.00    -0.250 OA
BRANCH  39  41
ATOM     41  O   UNL     1      33.054  35.633  16.001  1.00  0.00    -0.480 OA
ATOM     42  H   UNL     1      32.586  35.456  15.107  1.00  0.00     0.296 HD
ENDBRANCH  39  41
ENDBRANCH  38  39
ENDBRANCH  36  38
ENDBRANCH  32  33
ENDBRANCH  31  32
ENDBRANCH   2  31
TORSDOF 17
BEGIN_RES LYS A 131
REMARK  4 active torsions:
REMARK  status: ('A' for Active; 'I' for Inactive)
REMARK    1  A    between atoms: CA   and  CB  
REMARK    2  A    between atoms: CB   and  CG  
REMARK    3  A    between atoms: CG   and  CD  
REMARK    4  A    between atoms: CD   and  CE  
ROOT
ATOM      1  CA  LYS A 131      29.867  25.555  16.977  1.00 20.52     0.186 C 
ENDROOT
BRANCH   1   2
ATOM      2  CB  LYS A 131      28.345  25.722  17.026  1.00 20.94     0.034 C 
BRANCH   2   3
ATOM      3  CG  LYS A 131      27.601  24.402  16.896  1.00 22.96     0.005 C 
BRANCH   3   4
ATOM      4  CD  LYS A 131      26.148  24.532  17.259  1.00 24.33     0.041 C 
BRANCH   4   5
ATOM      5  CE  LYS A 131      25.943  24.091  18.705  1.00 26.91     0.338 C 
ATOM      6  NZ  LYS A 131      25.715  25.266  19.579  1.00 27.40     0.618 N 
ENDBRANCH   4   5
ENDBRANCH   3   4
ENDBRANCH   2   3
ENDBRANCH   1   2
END_RES LYS A 131
BEGIN_RES LYS A 135
REMARK  4 active torsions:
REMARK  status: ('A' for Active; 'I' for Inactive)
REMARK    5  A    between atoms: CA   and  CB  
REMARK    6  A    between atoms: CB   and  CG  
REMARK    7  A    between atoms: CG   and  CD  
REMARK    8  A    between atoms: CD   and  CE  
ROOT
ATOM      7  CA  LYS A 135      33.193  34.663   9.290  1.00 25.02     0.186 C 
ENDROOT
BRANCH   7   8
ATOM      8  CB  LYS A 135      32.060  35.360  10.034  1.00 26.63     0.034 C 
BRANCH   8   9
ATOM      9  CG  LYS A 135      30.697  34.802   9.715  1.00 29.45     0.005 C 
BRANCH   9  10
ATOM     10  CD  LYS A 135      30.467  34.775   8.212  1.00 32.00     0.041 C 
BRANCH  10  11
ATOM     11  CE  LYS A 135      29.028  35.129   7.887  1.00 34.25     0.338 C 
ATOM     12  NZ  LYS A 135      28.879  35.504   6.453  1.00 35.99     0.618 N 
ENDBRANCH  10  11
ENDBRANCH   9  10
ENDBRANCH   8   9
ENDBRANCH   7   8
END_RES LYS A 135
