REMARK VINA RESULT:    -5.312      4.964      8.889
REMARK INTER + INTRA:         -13.742
REMARK INTER:                  -9.194
REMARK INTRA:                  -4.548
REMARK UNBOUND:                -4.548
REMARK SMILES CC(=O)N[C@@H]1[C@@H](O)C[C@](O)(C(=O)O)O[C@H]1C(O)[C@H](O)CNC(=O)OCc1cn(-c2ccc3c(c2)OCO3)nn1
REMARK SMILES IDX 20 1 18 2 16 3 15 4 9 5 8 6 14 7 6 8 5 9 10 10 11 12 12 13
REMARK SMILES IDX 13 14 7 16 4 18 2 19 1 21 3 22 17 23 19 25 21 27 22 28 23 30
REMARK SMILES IDX 24 31 25 32 26 33 27 34 39 35 28 36 38 37 29 38 30 39 34 40
REMARK SMILES IDX 31 41 33 42 32 43 35 44 37 45 36 46
REMARK H PARENT 10 11 13 15 7 17 4 20 17 24 19 26 21 29
REMARK Flexibility Score: inf
ROOT
ATOM      1  C   UNL     1      25.820  36.186  16.875  1.00  0.00     0.154 C 
ENDROOT
BRANCH   1   2
ATOM      2  C   UNL     1      26.593  34.913  16.967  1.00  0.00     0.165 C 
BRANCH   2   3
ATOM      3  C   UNL     1      28.007  35.084  16.387  1.00  0.00     0.176 C 
BRANCH   3   4
ATOM      4  C   UNL     1      28.523  33.726  16.074  1.00  0.00     0.178 C 
ATOM      5  C   UNL     1      28.907  31.624  16.870  1.00  0.00     0.269 C 
ATOM      6  C   UNL     1      29.278  31.437  15.415  1.00  0.00     0.112 C 
ATOM      7  O   UNL     1      28.375  32.858  17.151  1.00  0.00    -0.332 OA
ATOM      8  C   UNL     1      30.257  32.492  14.933  1.00  0.00     0.145 C 
ATOM      9  C   UNL     1      30.013  33.727  15.732  1.00  0.00     0.142 C 
BRANCH   5  10
ATOM     10  O   UNL     1      30.062  31.352  17.606  1.00  0.00    -0.357 OA
ATOM     11  H   UNL     1      30.266  32.186  18.109  1.00  0.00     0.214 HD
ENDBRANCH   5  10
BRANCH   5  12
ATOM     12  C   UNL     1      27.871  30.612  17.178  1.00  0.00     0.364 C 
ATOM     13  O   UNL     1      26.661  30.927  17.094  1.00  0.00    -0.246 OA
BRANCH  12  14
ATOM     14  O   UNL     1      28.180  29.317  17.560  1.00  0.00    -0.477 OA
ATOM     15  H   UNL     1      27.481  28.608  17.754  1.00  0.00     0.296 HD
ENDBRANCH  12  14
ENDBRANCH   5  12
BRANCH   8  16
ATOM     16  O   UNL     1      31.542  31.958  15.172  1.00  0.00    -0.391 OA
ATOM     17  H   UNL     1      31.896  31.529  14.372  1.00  0.00     0.211 HD
ENDBRANCH   8  16
BRANCH   9  18
ATOM     18  N   UNL     1      30.458  34.940  15.149  1.00  0.00    -0.348 N 
ATOM     19  C   UNL     1      31.780  35.459  15.171  1.00  0.00     0.217 C 
ATOM     20  H   UNL     1      29.752  35.522  14.648  1.00  0.00     0.163 HD
ATOM     21  C   UNL     1      32.145  36.753  14.522  1.00  0.00     0.114 C 
ATOM     22  O   UNL     1      32.650  34.782  15.765  1.00  0.00    -0.275 OA
ENDBRANCH   9  18
ENDBRANCH   3   4
BRANCH   3  23
ATOM     23  O   UNL     1      27.907  35.881  15.280  1.00  0.00    -0.388 OA
ATOM     24  H   UNL     1      27.083  36.354  15.124  1.00  0.00     0.211 HD
ENDBRANCH   3  23
ENDBRANCH   2   3
BRANCH   2  25
ATOM     25  O   UNL     1      25.982  33.891  16.291  1.00  0.00    -0.388 OA
ATOM     26  H   UNL     1      26.355  32.993  16.418  1.00  0.00     0.211 HD
ENDBRANCH   2  25
ENDBRANCH   1   2
BRANCH   1  27
ATOM     27  N   UNL     1      24.845  36.150  15.842  1.00  0.00    -0.319 N 
ATOM     28  C   UNL     1      24.894  36.962  14.698  1.00  0.00     0.407 C 
ATOM     29  H   UNL     1      24.017  35.483  15.906  1.00  0.00     0.167 HD
ATOM     30  O   UNL     1      25.772  37.807  14.454  1.00  0.00    -0.225 OA
BRANCH  28  31
ATOM     31  O   UNL     1      23.880  36.830  13.732  1.00  0.00    -0.443 OA
BRANCH  31  32
ATOM     32  C   UNL     1      23.533  35.559  13.274  1.00  0.00     0.294 C 
BRANCH  32  33
ATOM     33  C   UNL     1      23.751  35.494  11.805  1.00  0.00     0.121 A 
ATOM     34  C   UNL     1      24.945  35.742  11.137  1.00  0.00     0.144 A 
ATOM     35  N   UNL     1      22.867  35.191  10.839  1.00  0.00    -0.131 NA
ATOM     36  N   UNL     1      24.760  35.587   9.814  1.00  0.00    -0.220 N 
ATOM     37  N   UNL     1      23.489  35.253   9.677  1.00  0.00    -0.062 NA
BRANCH  36  38
ATOM     38  C   UNL     1      25.749  35.755   8.805  1.00  0.00     0.070 A 
ATOM     39  C   UNL     1      26.609  34.723   8.488  1.00  0.00     0.032 A 
ATOM     40  C   UNL     1      25.903  36.933   8.103  1.00  0.00     0.079 A 
ATOM     41  C   UNL     1      27.585  34.866   7.503  1.00  0.00     0.053 A 
ATOM     42  C   UNL     1      26.872  37.099   7.114  1.00  0.00     0.167 A 
ATOM     43  C   UNL     1      27.717  36.053   6.816  1.00  0.00     0.165 A 
ATOM     44  O   UNL     1      27.220  38.160   6.283  1.00  0.00    -0.454 OA
ATOM     45  O   UNL     1      28.572  36.509   5.797  1.00  0.00    -0.454 OA
ATOM     46  C   UNL     1      28.523  37.939   5.777  1.00  0.00     0.468 C 
ENDBRANCH  36  38
ENDBRANCH  32  33
ENDBRANCH  31  32
ENDBRANCH  28  31
ENDBRANCH   1  27
TORSDOF 15
BEGIN_RES LYS A 131
REMARK  4 active torsions:
REMARK  status: ('A' for Active; 'I' for Inactive)
REMARK    1  A    between atoms: CA   and  CB  
REMARK    2  A    between atoms: CB   and  CG  
REMARK    3  A    between atoms: CG   and  CD  
REMARK    4  A    between atoms: CD   and  CE  
ROOT
ATOM      1  CA  LYS A 131      29.867  25.555  16.977  1.00 20.52     0.186 C 
ENDROOT
BRANCH   1   2
ATOM      2  CB  LYS A 131      28.345  25.722  17.026  1.00 20.94     0.034 C 
BRANCH   2   3
ATOM      3  CG  LYS A 131      27.601  24.402  16.888  1.00 22.96     0.005 C 
BRANCH   3   4
ATOM      4  CD  LYS A 131      26.569  24.219  17.966  1.00 24.33     0.041 C 
BRANCH   4   5
ATOM      5  CE  LYS A 131      25.221  23.894  17.331  1.00 26.91     0.338 C 
ATOM      6  NZ  LYS A 131      24.887  22.464  17.526  1.00 27.40     0.618 N 
ENDBRANCH   4   5
ENDBRANCH   3   4
ENDBRANCH   2   3
ENDBRANCH   1   2
END_RES LYS A 131
BEGIN_RES LYS A 135
REMARK  4 active torsions:
REMARK  status: ('A' for Active; 'I' for Inactive)
REMARK    5  A    between atoms: CA   and  CB  
REMARK    6  A    between atoms: CB   and  CG  
REMARK    7  A    between atoms: CG   and  CD  
REMARK    8  A    between atoms: CD   and  CE  
ROOT
ATOM      7  CA  LYS A 135      33.193  34.663   9.290  1.00 25.02     0.186 C 
ENDROOT
BRANCH   7   8
ATOM      8  CB  LYS A 135      32.060  35.360  10.034  1.00 26.63     0.034 C 
BRANCH   8   9
ATOM      9  CG  LYS A 135      30.796  35.489   9.223  1.00 29.45     0.005 C 
BRANCH   9  10
ATOM     10  CD  LYS A 135      29.876  36.538   9.827  1.00 32.00     0.041 C 
BRANCH  10  11
ATOM     11  CE  LYS A 135      29.062  35.944  10.961  1.00 34.25     0.338 C 
ATOM     12  NZ  LYS A 135      29.332  36.651  12.243  1.00 35.99     0.618 N 
ENDBRANCH  10  11
ENDBRANCH   9  10
ENDBRANCH   8   9
ENDBRANCH   7   8
END_RES LYS A 135
