REMARK VINA RESULT:    -5.594      3.182      6.203
REMARK INTER + INTRA:         -16.100
REMARK INTER:                 -10.136
REMARK INTRA:                  -5.964
REMARK UNBOUND:                -5.110
REMARK SMILES CC(=O)N[C@@H]1[C@@H](O)C[C@](O)(C(=O)O)O[C@H]1C(O)[C@H](O)CNC(=O)OCc1cn([C@@H](C)C(=O)OCc2ccccc2)nn1
REMARK SMILES IDX 24 1 22 2 21 3 23 5 20 6 18 7 16 8 15 9 9 10 8 11 14 12 6 13
REMARK SMILES IDX 5 14 10 15 11 17 12 18 13 19 7 21 4 23 2 24 1 26 3 27 17 28
REMARK SMILES IDX 19 30 25 32 26 33 27 34 42 35 28 36 41 37 29 38 30 39 31 40
REMARK SMILES IDX 32 41 33 42 34 43 35 44 36 45 40 46 37 47 39 48 38 49
REMARK H PARENT 21 4 10 16 13 20 7 22 4 25 17 29 19 31
REMARK Flexibility Score: inf
ROOT
ATOM      1  O   UNL     1      30.687  40.572   9.515  1.00  0.00    -0.443 OA
ENDROOT
BRANCH   1   2
ATOM      2  C   UNL     1      29.765  40.214   8.504  1.00  0.00     0.407 C 
ATOM      3  N   UNL     1      29.256  38.900   8.434  1.00  0.00    -0.319 N 
ATOM      4  H   UNL     1      29.628  38.225   9.174  1.00  0.00     0.167 HD
ATOM      5  O   UNL     1      29.453  41.125   7.714  1.00  0.00    -0.225 OA
BRANCH   3   6
ATOM      6  C   UNL     1      28.309  38.472   7.453  1.00  0.00     0.154 C 
BRANCH   6   7
ATOM      7  C   UNL     1      26.904  38.777   7.853  1.00  0.00     0.165 C 
BRANCH   7   8
ATOM      8  C   UNL     1      25.951  37.764   7.223  1.00  0.00     0.176 C 
BRANCH   8   9
ATOM      9  C   UNL     1      25.203  36.944   8.228  1.00  0.00     0.178 C 
ATOM     10  C   UNL     1      23.116  37.993   8.038  1.00  0.00     0.269 C 
ATOM     11  C   UNL     1      23.403  38.733   9.305  1.00  0.00     0.112 C 
ATOM     12  O   UNL     1      23.845  36.840   7.881  1.00  0.00    -0.332 OA
ATOM     13  C   UNL     1      24.060  37.787  10.289  1.00  0.00     0.145 C 
ATOM     14  C   UNL     1      25.371  37.347   9.656  1.00  0.00     0.142 C 
BRANCH  10  15
ATOM     15  O   UNL     1      23.255  38.828   6.954  1.00  0.00    -0.357 OA
ATOM     16  H   UNL     1      23.931  39.547   7.098  1.00  0.00     0.214 HD
ENDBRANCH  10  15
BRANCH  10  17
ATOM     17  C   UNL     1      21.674  37.555   8.074  1.00  0.00     0.364 C 
ATOM     18  O   UNL     1      20.862  38.087   8.874  1.00  0.00    -0.246 OA
BRANCH  17  19
ATOM     19  O   UNL     1      21.185  36.562   7.238  1.00  0.00    -0.477 OA
ATOM     20  H   UNL     1      21.704  36.251   6.402  1.00  0.00     0.296 HD
ENDBRANCH  17  19
ENDBRANCH  10  17
BRANCH  13  21
ATOM     21  O   UNL     1      24.257  38.405  11.508  1.00  0.00    -0.391 OA
ATOM     22  H   UNL     1      24.858  39.190  11.455  1.00  0.00     0.211 HD
ENDBRANCH  13  21
BRANCH  14  23
ATOM     23  N   UNL     1      25.969  36.291  10.479  1.00  0.00    -0.348 N 
ATOM     24  C   UNL     1      27.260  36.416  11.072  1.00  0.00     0.217 C 
ATOM     25  H   UNL     1      25.453  35.390  10.659  1.00  0.00     0.163 HD
ATOM     26  C   UNL     1      27.816  35.303  11.901  1.00  0.00     0.114 C 
ATOM     27  O   UNL     1      27.923  37.465  10.894  1.00  0.00    -0.275 OA
ENDBRANCH  14  23
ENDBRANCH   8   9
BRANCH   8  28
ATOM     28  O   UNL     1      26.691  36.896   6.411  1.00  0.00    -0.388 OA
ATOM     29  H   UNL     1      26.658  35.981   6.802  1.00  0.00     0.211 HD
ENDBRANCH   8  28
ENDBRANCH   7   8
BRANCH   7  30
ATOM     30  O   UNL     1      26.563  40.061   7.431  1.00  0.00    -0.388 OA
ATOM     31  H   UNL     1      26.206  40.071   6.495  1.00  0.00     0.211 HD
ENDBRANCH   7  30
ENDBRANCH   6   7
ENDBRANCH   3   6
ENDBRANCH   1   2
BRANCH   1  32
ATOM     32  C   UNL     1      30.277  40.494  10.864  1.00  0.00     0.294 C 
BRANCH  32  33
ATOM     33  C   UNL     1      30.851  39.323  11.553  1.00  0.00     0.120 A 
ATOM     34  C   UNL     1      30.852  39.025  12.895  1.00  0.00     0.139 A 
ATOM     35  N   UNL     1      31.496  38.307  10.957  1.00  0.00    -0.132 NA
ATOM     36  N   UNL     1      31.492  37.846  13.084  1.00  0.00    -0.238 N 
ATOM     37  N   UNL     1      31.868  37.438  11.903  1.00  0.00    -0.066 NA
BRANCH  36  38
ATOM     38  C   UNL     1      31.700  37.197  14.351  1.00  0.00     0.215 C 
ATOM     39  C   UNL     1      31.481  38.177  15.482  1.00  0.00     0.046 C 
BRANCH  38  40
ATOM     40  C   UNL     1      30.831  36.016  14.443  1.00  0.00     0.331 C 
ATOM     41  O   UNL     1      29.603  36.165  14.718  1.00  0.00    -0.250 OA
BRANCH  40  42
ATOM     42  O   UNL     1      31.294  34.733  14.243  1.00  0.00    -0.459 OA
BRANCH  42  43
ATOM     43  C   UNL     1      32.233  34.056  15.017  1.00  0.00     0.268 C 
BRANCH  43  44
ATOM     44  C   UNL     1      31.524  33.202  16.010  1.00  0.00    -0.011 A 
ATOM     45  C   UNL     1      31.002  31.984  15.634  1.00  0.00     0.007 A 
ATOM     46  C   UNL     1      31.390  33.624  17.305  1.00  0.00     0.007 A 
ATOM     47  C   UNL     1      30.350  31.192  16.547  1.00  0.00     0.000 A 
ATOM     48  C   UNL     1      30.746  32.857  18.235  1.00  0.00     0.000 A 
ATOM     49  C   UNL     1      30.227  31.643  17.855  1.00  0.00     0.000 A 
ENDBRANCH  43  44
ENDBRANCH  42  43
ENDBRANCH  40  42
ENDBRANCH  38  40
ENDBRANCH  36  38
ENDBRANCH  32  33
ENDBRANCH   1  32
TORSDOF 19
BEGIN_RES LYS A 131
REMARK  4 active torsions:
REMARK  status: ('A' for Active; 'I' for Inactive)
REMARK    1  A    between atoms: CA   and  CB  
REMARK    2  A    between atoms: CB   and  CG  
REMARK    3  A    between atoms: CG   and  CD  
REMARK    4  A    between atoms: CD   and  CE  
ROOT
ATOM      1  CA  LYS A 131      29.867  25.555  16.977  1.00 20.52     0.186 C 
ENDROOT
BRANCH   1   2
ATOM      2  CB  LYS A 131      28.345  25.722  17.026  1.00 20.94     0.034 C 
BRANCH   2   3
ATOM      3  CG  LYS A 131      27.599  24.420  16.776  1.00 22.96     0.005 C 
BRANCH   3   4
ATOM      4  CD  LYS A 131      26.888  23.929  18.006  1.00 24.33     0.041 C 
BRANCH   4   5
ATOM      5  CE  LYS A 131      25.688  24.826  18.292  1.00 26.91     0.338 C 
ATOM      6  NZ  LYS A 131      25.901  25.595  19.541  1.00 27.40     0.618 N 
ENDBRANCH   4   5
ENDBRANCH   3   4
ENDBRANCH   2   3
ENDBRANCH   1   2
END_RES LYS A 131
BEGIN_RES LYS A 135
REMARK  4 active torsions:
REMARK  status: ('A' for Active; 'I' for Inactive)
REMARK    5  A    between atoms: CA   and  CB  
REMARK    6  A    between atoms: CB   and  CG  
REMARK    7  A    between atoms: CG   and  CD  
REMARK    8  A    between atoms: CD   and  CE  
ROOT
ATOM      7  CA  LYS A 135      33.193  34.663   9.290  1.00 25.02     0.186 C 
ENDROOT
BRANCH   7   8
ATOM      8  CB  LYS A 135      32.060  35.360  10.034  1.00 26.63     0.034 C 
BRANCH   8   9
ATOM      9  CG  LYS A 135      30.690  34.866   9.645  1.00 29.45     0.005 C 
BRANCH   9  10
ATOM     10  CD  LYS A 135      30.651  34.498   8.170  1.00 32.00     0.041 C 
BRANCH  10  11
ATOM     11  CE  LYS A 135      29.364  34.986   7.534  1.00 34.25     0.338 C 
ATOM     12  NZ  LYS A 135      28.176  34.531   8.309  1.00 35.99     0.618 N 
ENDBRANCH  10  11
ENDBRANCH   9  10
ENDBRANCH   8   9
ENDBRANCH   7   8
END_RES LYS A 135
