REMARK VINA RESULT:    -5.119      1.959      3.406
REMARK INTER + INTRA:         -14.621
REMARK INTER:                  -7.946
REMARK INTRA:                  -6.674
REMARK UNBOUND:                -5.012
REMARK SMILES CC(=O)N[C@@H]1[C@@H](O)C[C@](O)(C(=O)O)O[C@H]1C(O)[C@H](O)CNC(=O)OCc1cn(CC(O)c2ccccc2)nn1
REMARK SMILES IDX 21 1 22 2 23 3 20 5 18 6 16 7 15 8 9 9 8 10 14 11 6 12 5 13
REMARK SMILES IDX 10 14 11 16 12 17 13 18 7 20 4 22 2 23 1 25 3 26 17 27 19 29
REMARK SMILES IDX 24 31 25 32 26 33 27 34 39 35 28 36 38 37 29 38 30 39 31 40
REMARK SMILES IDX 32 42 33 43 37 44 34 45 36 46 35 47
REMARK H PARENT 21 4 10 15 13 19 7 21 4 24 17 28 19 30 31 41
REMARK Flexibility Score: inf
ROOT
ATOM      1  N   UNL     1      24.732  29.201  18.520  1.00  0.00    -0.319 N 
ATOM      2  C   UNL     1      24.330  30.431  19.099  1.00  0.00     0.407 C 
ATOM      3  O   UNL     1      24.462  30.586  20.334  1.00  0.00    -0.225 OA
ATOM      4  H   UNL     1      24.590  29.152  17.463  1.00  0.00     0.167 HD
ENDROOT
BRANCH   1   5
ATOM      5  C   UNL     1      25.290  28.086  19.249  1.00  0.00     0.154 C 
BRANCH   5   6
ATOM      6  C   UNL     1      26.669  27.709  18.750  1.00  0.00     0.165 C 
BRANCH   6   7
ATOM      7  C   UNL     1      27.654  27.642  19.918  1.00  0.00     0.176 C 
BRANCH   7   8
ATOM      8  C   UNL     1      28.590  28.819  19.990  1.00  0.00     0.178 C 
ATOM      9  C   UNL     1      29.696  28.108  21.927  1.00  0.00     0.269 C 
ATOM     10  C   UNL     1      28.555  28.610  22.716  1.00  0.00     0.112 C 
ATOM     11  O   UNL     1      29.769  28.391  20.606  1.00  0.00    -0.332 OA
ATOM     12  C   UNL     1      27.765  29.746  22.143  1.00  0.00     0.145 C 
ATOM     13  C   UNL     1      27.996  29.979  20.669  1.00  0.00     0.142 C 
BRANCH   9  14
ATOM     14  O   UNL     1      29.638  26.685  22.014  1.00  0.00    -0.357 OA
ATOM     15  H   UNL     1      28.876  26.494  22.603  1.00  0.00     0.214 HD
ENDBRANCH   9  14
BRANCH   9  16
ATOM     16  C   UNL     1      30.972  28.462  22.654  1.00  0.00     0.364 C 
ATOM     17  O   UNL     1      30.994  29.277  23.606  1.00  0.00    -0.246 OA
BRANCH  16  18
ATOM     18  O   UNL     1      32.172  27.871  22.268  1.00  0.00    -0.477 OA
ATOM     19  H   UNL     1      32.522  27.011  22.661  1.00  0.00     0.296 HD
ENDBRANCH  16  18
ENDBRANCH   9  16
BRANCH  12  20
ATOM     20  O   UNL     1      26.380  29.533  22.394  1.00  0.00    -0.391 OA
ATOM     21  H   UNL     1      26.282  28.591  22.630  1.00  0.00     0.211 HD
ENDBRANCH  12  20
BRANCH  13  22
ATOM     22  N   UNL     1      28.795  31.191  20.581  1.00  0.00    -0.348 N 
ATOM     23  C   UNL     1      28.250  32.496  20.522  1.00  0.00     0.217 C 
ATOM     24  H   UNL     1      29.828  31.044  20.562  1.00  0.00     0.163 HD
ATOM     25  C   UNL     1      29.093  33.713  20.432  1.00  0.00     0.114 C 
ATOM     26  O   UNL     1      26.993  32.568  20.550  1.00  0.00    -0.275 OA
ENDBRANCH  13  22
ENDBRANCH   7   8
BRANCH   7  27
ATOM     27  O   UNL     1      28.476  26.513  19.537  1.00  0.00    -0.388 OA
ATOM     28  H   UNL     1      28.807  26.043  20.318  1.00  0.00     0.211 HD
ENDBRANCH   7  27
ENDBRANCH   6   7
BRANCH   6  29
ATOM     29  O   UNL     1      27.047  28.596  17.769  1.00  0.00    -0.388 OA
ATOM     30  H   UNL     1      27.229  28.079  16.949  1.00  0.00     0.211 HD
ENDBRANCH   6  29
ENDBRANCH   5   6
ENDBRANCH   1   5
BRANCH   2  31
ATOM     31  O   UNL     1      23.796  31.476  18.361  1.00  0.00    -0.443 OA
BRANCH  31  32
ATOM     32  C   UNL     1      24.598  32.484  17.778  1.00  0.00     0.294 C 
BRANCH  32  33
ATOM     33  C   UNL     1      25.647  31.843  16.960  1.00  0.00     0.120 A 
ATOM     34  C   UNL     1      27.010  32.082  17.037  1.00  0.00     0.138 A 
ATOM     35  N   UNL     1      25.525  30.910  15.987  1.00  0.00    -0.132 NA
ATOM     36  N   UNL     1      27.652  31.314  16.139  1.00  0.00    -0.249 N 
ATOM     37  N   UNL     1      26.729  30.619  15.520  1.00  0.00    -0.067 NA
BRANCH  36  38
ATOM     38  C   UNL     1      29.106  31.291  15.927  1.00  0.00     0.182 C 
BRANCH  38  39
ATOM     39  C   UNL     1      29.786  31.845  17.154  1.00  0.00     0.166 C 
BRANCH  39  40
ATOM     40  O   UNL     1      30.483  30.773  17.756  1.00  0.00    -0.386 OA
ATOM     41  H   UNL     1      29.824  30.092  18.065  1.00  0.00     0.211 HD
ENDBRANCH  39  40
BRANCH  39  42
ATOM     42  C   UNL     1      30.781  32.862  16.759  1.00  0.00    -0.018 A 
ATOM     43  C   UNL     1      31.230  33.840  17.623  1.00  0.00     0.006 A 
ATOM     44  C   UNL     1      31.292  32.836  15.454  1.00  0.00     0.006 A 
ATOM     45  C   UNL     1      32.157  34.776  17.236  1.00  0.00     0.000 A 
ATOM     46  C   UNL     1      32.214  33.766  15.067  1.00  0.00     0.000 A 
ATOM     47  C   UNL     1      32.644  34.729  15.951  1.00  0.00     0.000 A 
ENDBRANCH  39  42
ENDBRANCH  38  39
ENDBRANCH  36  38
ENDBRANCH  32  33
ENDBRANCH  31  32
ENDBRANCH   2  31
TORSDOF 18
BEGIN_RES LYS A 131
REMARK  4 active torsions:
REMARK  status: ('A' for Active; 'I' for Inactive)
REMARK    1  A    between atoms: CA   and  CB  
REMARK    2  A    between atoms: CB   and  CG  
REMARK    3  A    between atoms: CG   and  CD  
REMARK    4  A    between atoms: CD   and  CE  
ROOT
ATOM      1  CA  LYS A 131      29.867  25.555  16.977  1.00 20.52     0.186 C 
ENDROOT
BRANCH   1   2
ATOM      2  CB  LYS A 131      28.345  25.722  17.026  1.00 20.94     0.034 C 
BRANCH   2   3
ATOM      3  CG  LYS A 131      27.601  24.402  16.893  1.00 22.96     0.005 C 
BRANCH   3   4
ATOM      4  CD  LYS A 131      26.165  24.516  17.322  1.00 24.33     0.041 C 
BRANCH   4   5
ATOM      5  CE  LYS A 131      25.914  23.594  18.511  1.00 26.91     0.338 C 
ATOM      6  NZ  LYS A 131      25.488  24.377  19.695  1.00 27.40     0.618 N 
ENDBRANCH   4   5
ENDBRANCH   3   4
ENDBRANCH   2   3
ENDBRANCH   1   2
END_RES LYS A 131
BEGIN_RES LYS A 135
REMARK  4 active torsions:
REMARK  status: ('A' for Active; 'I' for Inactive)
REMARK    5  A    between atoms: CA   and  CB  
REMARK    6  A    between atoms: CB   and  CG  
REMARK    7  A    between atoms: CG   and  CD  
REMARK    8  A    between atoms: CD   and  CE  
ROOT
ATOM      7  CA  LYS A 135      33.193  34.663   9.290  1.00 25.02     0.186 C 
ENDROOT
BRANCH   7   8
ATOM      8  CB  LYS A 135      32.060  35.360  10.034  1.00 26.63     0.034 C 
BRANCH   8   9
ATOM      9  CG  LYS A 135      30.732  34.661   9.901  1.00 29.45     0.005 C 
BRANCH   9  10
ATOM     10  CD  LYS A 135      30.336  34.535   8.438  1.00 32.00     0.041 C 
BRANCH  10  11
ATOM     11  CE  LYS A 135      28.827  34.551   8.291  1.00 34.25     0.338 C 
ATOM     12  NZ  LYS A 135      28.170  33.831   9.417  1.00 35.99     0.618 N 
ENDBRANCH  10  11
ENDBRANCH   9  10
ENDBRANCH   8   9
ENDBRANCH   7   8
END_RES LYS A 135
