REMARK VINA RESULT:    -5.557      3.655      9.049
REMARK INTER + INTRA:         -17.702
REMARK INTER:                 -11.804
REMARK INTRA:                  -5.899
REMARK UNBOUND:                -6.299
REMARK SMILES CC(=O)N[C@@H]1[C@@H](O)C[C@](O)(C(=O)O)O[C@H]1C(O)[C@H](O)CNC(=O)OCc1cn(C[C@@H](C(=O)O)C(c2ccccc2)c2ccccc2)nn1
REMARK SMILES IDX 21 1 22 2 23 3 20 5 18 6 16 7 15 8 9 9 8 10 14 11 6 12 5 13
REMARK SMILES IDX 10 14 11 16 12 17 13 18 7 20 4 22 2 23 1 25 3 26 17 27 19 29
REMARK SMILES IDX 24 31 25 32 26 33 27 34 48 35 28 36 47 37 29 38 30 39 31 40
REMARK SMILES IDX 32 41 33 42 34 44 35 45 36 46 40 47 37 48 39 49 38 50 41 51
REMARK SMILES IDX 42 52 46 53 43 54 45 55 44 56
REMARK H PARENT 21 4 10 15 13 19 7 21 4 24 17 28 19 30 33 43
REMARK Flexibility Score: inf
ROOT
ATOM      1  N   UNL     1      24.796  38.369  12.324  1.00  0.00    -0.319 N 
ATOM      2  C   UNL     1      24.750  38.108  13.718  1.00  0.00     0.407 C 
ATOM      3  O   UNL     1      24.537  36.929  14.128  1.00  0.00    -0.225 OA
ATOM      4  H   UNL     1      24.980  39.382  12.063  1.00  0.00     0.167 HD
ENDROOT
BRANCH   1   5
ATOM      5  C   UNL     1      24.612  37.352  11.317  1.00  0.00     0.154 C 
BRANCH   5   6
ATOM      6  C   UNL     1      25.939  36.810  10.782  1.00  0.00     0.165 C 
BRANCH   6   7
ATOM      7  C   UNL     1      26.292  37.658   9.599  1.00  0.00     0.176 C 
BRANCH   7   8
ATOM      8  C   UNL     1      26.887  36.878   8.461  1.00  0.00     0.178 C 
ATOM      9  C   UNL     1      28.911  35.947   7.819  1.00  0.00     0.269 C 
ATOM     10  C   UNL     1      28.226  35.639   6.512  1.00  0.00     0.112 C 
ATOM     11  O   UNL     1      28.074  36.312   8.836  1.00  0.00    -0.332 OA
ATOM     12  C   UNL     1      27.284  36.707   6.072  1.00  0.00     0.145 C 
ATOM     13  C   UNL     1      27.088  37.705   7.212  1.00  0.00     0.142 C 
BRANCH   9  14
ATOM     14  O   UNL     1      29.867  36.938   7.573  1.00  0.00    -0.357 OA
ATOM     15  H   UNL     1      30.342  36.769   6.714  1.00  0.00     0.214 HD
ENDBRANCH   9  14
BRANCH   9  16
ATOM     16  C   UNL     1      29.630  34.718   8.232  1.00  0.00     0.364 C 
ATOM     17  O   UNL     1      30.806  34.532   7.836  1.00  0.00    -0.246 OA
BRANCH  16  18
ATOM     18  O   UNL     1      29.043  33.768   9.041  1.00  0.00    -0.477 OA
ATOM     19  H   UNL     1      29.624  33.231   9.699  1.00  0.00     0.296 HD
ENDBRANCH  16  18
ENDBRANCH   9  16
BRANCH  12  20
ATOM     20  O   UNL     1      27.608  37.320   4.888  1.00  0.00    -0.391 OA
ATOM     21  H   UNL     1      26.818  37.771   4.493  1.00  0.00     0.211 HD
ENDBRANCH  12  20
BRANCH  13  22
ATOM     22  N   UNL     1      25.926  38.540   6.942  1.00  0.00    -0.348 N 
ATOM     23  C   UNL     1      26.134  39.839   6.420  1.00  0.00     0.217 C 
ATOM     24  H   UNL     1      24.984  38.166   7.135  1.00  0.00     0.163 HD
ATOM     25  C   UNL     1      24.991  40.729   6.126  1.00  0.00     0.114 C 
ATOM     26  O   UNL     1      27.297  40.258   6.198  1.00  0.00    -0.275 OA
ENDBRANCH  13  22
ENDBRANCH   7   8
BRANCH   7  27
ATOM     27  O   UNL     1      27.054  38.740   9.987  1.00  0.00    -0.388 OA
ATOM     28  H   UNL     1      27.534  39.173   9.225  1.00  0.00     0.211 HD
ENDBRANCH   7  27
ENDBRANCH   6   7
BRANCH   6  29
ATOM     29  O   UNL     1      25.680  35.483  10.393  1.00  0.00    -0.388 OA
ATOM     30  H   UNL     1      26.587  35.054  10.361  1.00  0.00     0.211 HD
ENDBRANCH   6  29
ENDBRANCH   5   6
ENDBRANCH   1   5
BRANCH   2  31
ATOM     31  O   UNL     1      24.934  39.114  14.645  1.00  0.00    -0.443 OA
BRANCH  31  32
ATOM     32  C   UNL     1      26.132  39.901  14.668  1.00  0.00     0.294 C 
BRANCH  32  33
ATOM     33  C   UNL     1      27.261  39.153  14.073  1.00  0.00     0.120 A 
ATOM     34  C   UNL     1      27.985  38.135  14.714  1.00  0.00     0.138 A 
ATOM     35  N   UNL     1      27.832  39.252  12.867  1.00  0.00    -0.132 NA
ATOM     36  N   UNL     1      28.934  37.667  13.904  1.00  0.00    -0.251 N 
ATOM     37  N   UNL     1      28.818  38.379  12.760  1.00  0.00    -0.067 NA
BRANCH  36  38
ATOM     38  C   UNL     1      29.924  36.637  14.035  1.00  0.00     0.162 C 
BRANCH  38  39
ATOM     39  C   UNL     1      29.422  35.235  14.127  1.00  0.00     0.132 C 
BRANCH  39  40
ATOM     40  C   UNL     1      28.712  34.839  12.910  1.00  0.00     0.309 C 
ATOM     41  O   UNL     1      29.227  34.625  11.800  1.00  0.00    -0.252 OA
BRANCH  40  42
ATOM     42  O   UNL     1      27.311  34.674  12.951  1.00  0.00    -0.481 OA
ATOM     43  H   UNL     1      26.780  35.161  13.678  1.00  0.00     0.296 HD
ENDBRANCH  40  42
ENDBRANCH  39  40
BRANCH  39  44
ATOM     44  C   UNL     1      30.527  34.259  14.492  1.00  0.00     0.065 C 
BRANCH  44  45
ATOM     45  C   UNL     1      30.007  33.115  15.277  1.00  0.00    -0.040 A 
ATOM     46  C   UNL     1      28.667  33.058  15.679  1.00  0.00     0.004 A 
ATOM     47  C   UNL     1      30.810  32.054  15.648  1.00  0.00     0.004 A 
ATOM     48  C   UNL     1      28.182  31.995  16.408  1.00  0.00     0.000 A 
ATOM     49  C   UNL     1      30.343  30.989  16.372  1.00  0.00     0.000 A 
ATOM     50  C   UNL     1      29.028  30.943  16.762  1.00  0.00     0.000 A 
ENDBRANCH  44  45
BRANCH  44  51
ATOM     51  C   UNL     1      31.637  34.870  15.231  1.00  0.00    -0.040 A 
ATOM     52  C   UNL     1      31.356  35.415  16.490  1.00  0.00     0.004 A 
ATOM     53  C   UNL     1      32.930  34.936  14.759  1.00  0.00     0.004 A 
ATOM     54  C   UNL     1      32.370  35.996  17.213  1.00  0.00     0.000 A 
ATOM     55  C   UNL     1      33.948  35.517  15.482  1.00  0.00     0.000 A 
ATOM     56  C   UNL     1      33.678  36.061  16.733  1.00  0.00     0.000 A 
ENDBRANCH  44  51
ENDBRANCH  39  44
ENDBRANCH  38  39
ENDBRANCH  36  38
ENDBRANCH  32  33
ENDBRANCH  31  32
ENDBRANCH   2  31
TORSDOF 21
BEGIN_RES LYS A 131
REMARK  4 active torsions:
REMARK  status: ('A' for Active; 'I' for Inactive)
REMARK    1  A    between atoms: CA   and  CB  
REMARK    2  A    between atoms: CB   and  CG  
REMARK    3  A    between atoms: CG   and  CD  
REMARK    4  A    between atoms: CD   and  CE  
ROOT
ATOM      1  CA  LYS A 131      29.867  25.555  16.977  1.00 20.52     0.186 C 
ENDROOT
BRANCH   1   2
ATOM      2  CB  LYS A 131      28.345  25.722  17.026  1.00 20.94     0.034 C 
BRANCH   2   3
ATOM      3  CG  LYS A 131      27.602  24.397  16.951  1.00 22.96     0.005 C 
BRANCH   3   4
ATOM      4  CD  LYS A 131      26.122  24.565  17.150  1.00 24.33     0.041 C 
BRANCH   4   5
ATOM      5  CE  LYS A 131      25.829  24.782  18.631  1.00 26.91     0.338 C 
ATOM      6  NZ  LYS A 131      25.749  23.483  19.340  1.00 27.40     0.618 N 
ENDBRANCH   4   5
ENDBRANCH   3   4
ENDBRANCH   2   3
ENDBRANCH   1   2
END_RES LYS A 131
BEGIN_RES LYS A 135
REMARK  4 active torsions:
REMARK  status: ('A' for Active; 'I' for Inactive)
REMARK    5  A    between atoms: CA   and  CB  
REMARK    6  A    between atoms: CB   and  CG  
REMARK    7  A    between atoms: CG   and  CD  
REMARK    8  A    between atoms: CD   and  CE  
ROOT
ATOM      7  CA  LYS A 135      33.193  34.663   9.290  1.00 25.02     0.186 C 
ENDROOT
BRANCH   7   8
ATOM      8  CB  LYS A 135      32.060  35.360  10.034  1.00 26.63     0.034 C 
BRANCH   8   9
ATOM      9  CG  LYS A 135      32.457  35.871  11.395  1.00 29.45     0.005 C 
BRANCH   9  10
ATOM     10  CD  LYS A 135      32.233  37.372  11.491  1.00 32.00     0.041 C 
BRANCH  10  11
ATOM     11  CE  LYS A 135      31.424  37.867  10.308  1.00 34.25     0.338 C 
ATOM     12  NZ  LYS A 135      32.112  38.995   9.621  1.00 35.99     0.618 N 
ENDBRANCH  10  11
ENDBRANCH   9  10
ENDBRANCH   8   9
ENDBRANCH   7   8
END_RES LYS A 135
