REMARK VINA RESULT:    -6.596      3.408      6.546
REMARK INTER + INTRA:         -15.994
REMARK INTER:                  -8.671
REMARK INTRA:                  -7.323
REMARK UNBOUND:                -4.578
REMARK SMILES CC(=O)N[C@@H]1[C@@H](O)C[C@](O)(C(=O)O)O[C@H]1C(O)[C@H](O)CNC(=O)OCc1cn(C2c3ccccc3-c3ccccc32)nn1
REMARK SMILES IDX 20 1 18 2 16 3 15 4 9 5 8 6 14 7 6 8 5 9 10 10 11 12 12 13
REMARK SMILES IDX 13 14 7 16 4 18 2 19 1 21 3 22 17 23 19 25 21 27 22 28 23 30
REMARK SMILES IDX 24 31 25 32 26 33 27 34 43 35 28 36 42 37 29 38 30 39 41 40
REMARK SMILES IDX 31 41 35 42 36 43 40 44 32 45 34 46 37 47 39 48 33 49 38 50
REMARK H PARENT 10 11 13 15 7 17 4 20 17 24 19 26 21 29
REMARK Flexibility Score: inf
ROOT
ATOM      1  C   UNL     1      25.791  32.052  20.280  1.00  0.00     0.154 C 
ENDROOT
BRANCH   1   2
ATOM      2  C   UNL     1      27.179  32.374  20.690  1.00  0.00     0.165 C 
BRANCH   2   3
ATOM      3  C   UNL     1      28.202  31.437  20.132  1.00  0.00     0.176 C 
BRANCH   3   4
ATOM      4  C   UNL     1      28.315  30.102  20.814  1.00  0.00     0.178 C 
ATOM      5  C   UNL     1      30.518  29.310  20.789  1.00  0.00     0.269 C 
ATOM      6  C   UNL     1      30.142  27.852  20.953  1.00  0.00     0.112 C 
ATOM      7  O   UNL     1      29.582  30.083  21.399  1.00  0.00    -0.332 OA
ATOM      8  C   UNL     1      28.728  27.666  20.540  1.00  0.00     0.145 C 
ATOM      9  C   UNL     1      28.106  28.921  19.906  1.00  0.00     0.142 C 
BRANCH   5  10
ATOM     10  O   UNL     1      30.743  29.525  19.456  1.00  0.00    -0.357 OA
ATOM     11  H   UNL     1      29.919  29.466  18.924  1.00  0.00     0.214 HD
ENDBRANCH   5  10
BRANCH   5  12
ATOM     12  C   UNL     1      31.801  29.489  21.536  1.00  0.00     0.364 C 
ATOM     13  O   UNL     1      31.784  30.033  22.664  1.00  0.00    -0.246 OA
BRANCH  12  14
ATOM     14  O   UNL     1      33.025  29.076  21.030  1.00  0.00    -0.477 OA
ATOM     15  H   UNL     1      33.088  28.235  20.439  1.00  0.00     0.296 HD
ENDBRANCH  12  14
ENDBRANCH   5  12
BRANCH   8  16
ATOM     16  O   UNL     1      28.532  26.623  19.649  1.00  0.00    -0.391 OA
ATOM     17  H   UNL     1      28.959  26.767  18.775  1.00  0.00     0.211 HD
ENDBRANCH   8  16
BRANCH   9  18
ATOM     18  N   UNL     1      26.697  28.609  19.826  1.00  0.00    -0.348 N 
ATOM     19  C   UNL     1      25.904  28.734  18.656  1.00  0.00     0.217 C 
ATOM     20  H   UNL     1      26.229  28.263  20.689  1.00  0.00     0.163 HD
ATOM     21  C   UNL     1      24.445  28.389  18.653  1.00  0.00     0.114 C 
ATOM     22  O   UNL     1      26.469  29.148  17.612  1.00  0.00    -0.275 OA
ENDBRANCH   9  18
ENDBRANCH   3   4
BRANCH   3  23
ATOM     23  O   UNL     1      28.154  31.282  18.752  1.00  0.00    -0.388 OA
ATOM     24  H   UNL     1      27.277  31.076  18.390  1.00  0.00     0.211 HD
ENDBRANCH   3  23
ENDBRANCH   2   3
BRANCH   2  25
ATOM     25  O   UNL     1      27.283  32.305  22.077  1.00  0.00    -0.388 OA
ATOM     26  H   UNL     1      28.198  32.162  22.389  1.00  0.00     0.211 HD
ENDBRANCH   2  25
ENDBRANCH   1   2
BRANCH   1  27
ATOM     27  N   UNL     1      25.530  32.074  18.889  1.00  0.00    -0.319 N 
ATOM     28  C   UNL     1      25.238  33.239  18.158  1.00  0.00     0.407 C 
ATOM     29  H   UNL     1      25.552  31.155  18.338  1.00  0.00     0.167 HD
ATOM     30  O   UNL     1      25.196  34.349  18.678  1.00  0.00    -0.225 OA
BRANCH  28  31
ATOM     31  O   UNL     1      24.977  33.184  16.777  1.00  0.00    -0.443 OA
BRANCH  31  32
ATOM     32  C   UNL     1      25.816  33.746  15.814  1.00  0.00     0.294 C 
BRANCH  32  33
ATOM     33  C   UNL     1      27.192  33.191  15.823  1.00  0.00     0.120 A 
ATOM     34  C   UNL     1      28.396  33.846  15.895  1.00  0.00     0.139 A 
ATOM     35  N   UNL     1      27.456  31.885  15.758  1.00  0.00    -0.132 NA
ATOM     36  N   UNL     1      29.346  32.917  15.870  1.00  0.00    -0.240 N 
ATOM     37  N   UNL     1      28.761  31.740  15.788  1.00  0.00    -0.066 NA
BRANCH  36  38
ATOM     38  C   UNL     1      30.785  33.124  15.925  1.00  0.00     0.170 C 
ATOM     39  C   UNL     1      31.231  33.518  17.273  1.00  0.00    -0.011 A 
ATOM     40  C   UNL     1      31.237  34.178  15.030  1.00  0.00    -0.011 A 
ATOM     41  C   UNL     1      31.064  32.868  18.508  1.00  0.00     0.007 A 
ATOM     42  C   UNL     1      31.889  34.709  17.162  1.00  0.00    -0.012 A 
ATOM     43  C   UNL     1      31.897  35.128  15.762  1.00  0.00    -0.012 A 
ATOM     44  C   UNL     1      31.121  34.374  13.638  1.00  0.00     0.007 A 
ATOM     45  C   UNL     1      31.586  33.464  19.629  1.00  0.00     0.000 A 
ATOM     46  C   UNL     1      32.405  35.283  18.324  1.00  0.00     0.009 A 
ATOM     47  C   UNL     1      32.459  36.278  15.196  1.00  0.00     0.009 A 
ATOM     48  C   UNL     1      31.663  35.493  13.062  1.00  0.00     0.000 A 
ATOM     49  C   UNL     1      32.257  34.668  19.547  1.00  0.00     0.001 A 
ATOM     50  C   UNL     1      32.323  36.433  13.835  1.00  0.00     0.001 A 
ENDBRANCH  36  38
ENDBRANCH  32  33
ENDBRANCH  31  32
ENDBRANCH  28  31
ENDBRANCH   1  27
TORSDOF 15
BEGIN_RES LYS A 131
REMARK  4 active torsions:
REMARK  status: ('A' for Active; 'I' for Inactive)
REMARK    1  A    between atoms: CA   and  CB  
REMARK    2  A    between atoms: CB   and  CG  
REMARK    3  A    between atoms: CG   and  CD  
REMARK    4  A    between atoms: CD   and  CE  
ROOT
ATOM      1  CA  LYS A 131      29.867  25.555  16.977  1.00 20.52     0.186 C 
ENDROOT
BRANCH   1   2
ATOM      2  CB  LYS A 131      28.345  25.722  17.026  1.00 20.94     0.034 C 
BRANCH   2   3
ATOM      3  CG  LYS A 131      27.602  24.399  16.923  1.00 22.96     0.005 C 
BRANCH   3   4
ATOM      4  CD  LYS A 131      26.159  24.527  17.325  1.00 24.33     0.041 C 
BRANCH   4   5
ATOM      5  CE  LYS A 131      25.964  23.941  18.719  1.00 26.91     0.338 C 
ATOM      6  NZ  LYS A 131      25.518  24.990  19.666  1.00 27.40     0.618 N 
ENDBRANCH   4   5
ENDBRANCH   3   4
ENDBRANCH   2   3
ENDBRANCH   1   2
END_RES LYS A 131
BEGIN_RES LYS A 135
REMARK  4 active torsions:
REMARK  status: ('A' for Active; 'I' for Inactive)
REMARK    5  A    between atoms: CA   and  CB  
REMARK    6  A    between atoms: CB   and  CG  
REMARK    7  A    between atoms: CG   and  CD  
REMARK    8  A    between atoms: CD   and  CE  
ROOT
ATOM      7  CA  LYS A 135      33.193  34.663   9.290  1.00 25.02     0.186 C 
ENDROOT
BRANCH   7   8
ATOM      8  CB  LYS A 135      32.060  35.360  10.034  1.00 26.63     0.034 C 
BRANCH   8   9
ATOM      9  CG  LYS A 135      30.690  34.869   9.642  1.00 29.45     0.005 C 
BRANCH   9  10
ATOM     10  CD  LYS A 135      30.638  34.556   8.155  1.00 32.00     0.041 C 
BRANCH  10  11
ATOM     11  CE  LYS A 135      29.328  35.033   7.556  1.00 34.25     0.338 C 
ATOM     12  NZ  LYS A 135      28.169  34.595   8.382  1.00 35.99     0.618 N 
ENDBRANCH  10  11
ENDBRANCH   9  10
ENDBRANCH   8   9
ENDBRANCH   7   8
END_RES LYS A 135
