REMARK VINA RESULT:    -5.857      2.353      4.374
REMARK INTER + INTRA:         -14.938
REMARK INTER:                  -7.962
REMARK INTRA:                  -6.976
REMARK UNBOUND:                -3.774
REMARK SMILES CC(=O)N[C@@H]1[C@@H](O)C[C@](O)(C(=O)O)O[C@H]1C(O)[C@H](O)CNC(=O)OCc1cn(COCc2ccccc2)nn1
REMARK SMILES IDX 21 1 22 2 23 3 20 5 18 6 16 7 15 8 9 9 8 10 14 11 6 12 5 13
REMARK SMILES IDX 10 14 11 16 12 17 13 18 7 20 4 22 2 23 1 25 3 26 17 27 19 29
REMARK SMILES IDX 24 31 25 32 26 33 27 34 39 35 28 36 38 37 29 38 30 39 31 40
REMARK SMILES IDX 32 41 33 42 37 43 34 44 36 45 35 46
REMARK H PARENT 21 4 10 15 13 19 7 21 4 24 17 28 19 30
REMARK Flexibility Score: inf
ROOT
ATOM      1  N   UNL     1      22.784  40.190  10.857  1.00  0.00    -0.319 N 
ATOM      2  C   UNL     1      24.086  40.149  11.438  1.00  0.00     0.407 C 
ATOM      3  O   UNL     1      25.024  40.881  10.998  1.00  0.00    -0.225 OA
ATOM      4  H   UNL     1      22.044  39.580  11.241  1.00  0.00     0.167 HD
ENDROOT
BRANCH   1   5
ATOM      5  C   UNL     1      22.583  41.100   9.748  1.00  0.00     0.154 C 
BRANCH   5   6
ATOM      6  C   UNL     1      22.006  40.408   8.542  1.00  0.00     0.165 C 
BRANCH   6   7
ATOM      7  C   UNL     1      23.104  39.704   7.775  1.00  0.00     0.176 C 
BRANCH   7   8
ATOM      8  C   UNL     1      23.072  38.222   7.947  1.00  0.00     0.178 C 
ATOM      9  C   UNL     1      21.800  36.551   8.956  1.00  0.00     0.269 C 
ATOM     10  C   UNL     1      23.070  35.716   8.876  1.00  0.00     0.112 C 
ATOM     11  O   UNL     1      22.039  37.914   8.827  1.00  0.00    -0.332 OA
ATOM     12  C   UNL     1      24.187  36.568   9.439  1.00  0.00     0.145 C 
ATOM     13  C   UNL     1      24.402  37.685   8.431  1.00  0.00     0.142 C 
BRANCH   9  14
ATOM     14  O   UNL     1      21.314  36.367  10.249  1.00  0.00    -0.357 OA
ATOM     15  H   UNL     1      20.860  37.175  10.596  1.00  0.00     0.214 HD
ENDBRANCH   9  14
BRANCH   9  16
ATOM     16  C   UNL     1      20.798  36.061   8.001  1.00  0.00     0.364 C 
ATOM     17  O   UNL     1      20.647  34.824   7.844  1.00  0.00    -0.246 OA
BRANCH  16  18
ATOM     18  O   UNL     1      19.988  36.897   7.243  1.00  0.00    -0.477 OA
ATOM     19  H   UNL     1      19.766  36.608   6.295  1.00  0.00     0.296 HD
ENDBRANCH  16  18
ENDBRANCH   9  16
BRANCH  12  20
ATOM     20  O   UNL     1      23.854  37.092  10.684  1.00  0.00    -0.391 OA
ATOM     21  H   UNL     1      22.906  37.427  10.643  1.00  0.00     0.211 HD
ENDBRANCH  12  20
BRANCH  13  22
ATOM     22  N   UNL     1      25.115  37.110   7.311  1.00  0.00    -0.348 N 
ATOM     23  C   UNL     1      26.514  37.314   7.176  1.00  0.00     0.217 C 
ATOM     24  H   UNL     1      24.653  36.531   6.567  1.00  0.00     0.163 HD
ATOM     25  C   UNL     1      27.297  36.745   6.045  1.00  0.00     0.114 C 
ATOM     26  O   UNL     1      27.147  37.995   8.023  1.00  0.00    -0.275 OA
ENDBRANCH  13  22
ENDBRANCH   7   8
BRANCH   7  27
ATOM     27  O   UNL     1      24.313  40.295   8.049  1.00  0.00    -0.388 OA
ATOM     28  H   UNL     1      24.335  41.171   7.569  1.00  0.00     0.211 HD
ENDBRANCH   7  27
ENDBRANCH   6   7
BRANCH   6  29
ATOM     29  O   UNL     1      21.351  41.346   7.754  1.00  0.00    -0.388 OA
ATOM     30  H   UNL     1      20.858  41.987   8.331  1.00  0.00     0.211 HD
ENDBRANCH   6  29
ENDBRANCH   5   6
ENDBRANCH   1   5
BRANCH   2  31
ATOM     31  O   UNL     1      24.394  39.316  12.504  1.00  0.00    -0.443 OA
BRANCH  31  32
ATOM     32  C   UNL     1      23.594  39.189  13.662  1.00  0.00     0.294 C 
BRANCH  32  33
ATOM     33  C   UNL     1      22.724  37.993  13.629  1.00  0.00     0.120 A 
ATOM     34  C   UNL     1      22.800  36.804  14.324  1.00  0.00     0.141 A 
ATOM     35  N   UNL     1      21.634  37.871  12.851  1.00  0.00    -0.132 NA
ATOM     36  N   UNL     1      21.771  36.002  13.954  1.00  0.00    -0.226 N 
ATOM     37  N   UNL     1      21.089  36.692  13.059  1.00  0.00    -0.065 NA
BRANCH  36  38
ATOM     38  C   UNL     1      21.472  34.649  14.446  1.00  0.00     0.307 C 
BRANCH  38  39
ATOM     39  O   UNL     1      22.438  33.765  13.974  1.00  0.00    -0.355 OA
BRANCH  39  40
ATOM     40  C   UNL     1      22.046  33.116  12.827  1.00  0.00     0.198 C 
BRANCH  40  41
ATOM     41  C   UNL     1      22.410  31.686  12.777  1.00  0.00    -0.022 A 
ATOM     42  C   UNL     1      23.711  31.300  13.027  1.00  0.00     0.006 A 
ATOM     43  C   UNL     1      21.475  30.724  12.490  1.00  0.00     0.006 A 
ATOM     44  C   UNL     1      24.076  29.952  12.991  1.00  0.00     0.000 A 
ATOM     45  C   UNL     1      21.842  29.388  12.456  1.00  0.00     0.000 A 
ATOM     46  C   UNL     1      23.121  28.998  12.701  1.00  0.00     0.000 A 
ENDBRANCH  40  41
ENDBRANCH  39  40
ENDBRANCH  38  39
ENDBRANCH  36  38
ENDBRANCH  32  33
ENDBRANCH  31  32
ENDBRANCH   2  31
TORSDOF 18
BEGIN_RES LYS A 131
REMARK  4 active torsions:
REMARK  status: ('A' for Active; 'I' for Inactive)
REMARK    1  A    between atoms: CA   and  CB  
REMARK    2  A    between atoms: CB   and  CG  
REMARK    3  A    between atoms: CG   and  CD  
REMARK    4  A    between atoms: CD   and  CE  
ROOT
ATOM      1  CA  LYS A 131      29.867  25.555  16.977  1.00 20.52     0.186 C 
ENDROOT
BRANCH   1   2
ATOM      2  CB  LYS A 131      28.345  25.722  17.026  1.00 20.94     0.034 C 
BRANCH   2   3
ATOM      3  CG  LYS A 131      27.602  24.400  16.909  1.00 22.96     0.005 C 
BRANCH   3   4
ATOM      4  CD  LYS A 131      26.393  24.349  17.802  1.00 24.33     0.041 C 
BRANCH   4   5
ATOM      5  CE  LYS A 131      26.418  25.535  18.761  1.00 26.91     0.338 C 
ATOM      6  NZ  LYS A 131      25.081  25.742  19.367  1.00 27.40     0.618 N 
ENDBRANCH   4   5
ENDBRANCH   3   4
ENDBRANCH   2   3
ENDBRANCH   1   2
END_RES LYS A 131
BEGIN_RES LYS A 135
REMARK  4 active torsions:
REMARK  status: ('A' for Active; 'I' for Inactive)
REMARK    5  A    between atoms: CA   and  CB  
REMARK    6  A    between atoms: CB   and  CG  
REMARK    7  A    between atoms: CG   and  CD  
REMARK    8  A    between atoms: CD   and  CE  
ROOT
ATOM      7  CA  LYS A 135      33.193  34.663   9.290  1.00 25.02     0.186 C 
ENDROOT
BRANCH   7   8
ATOM      8  CB  LYS A 135      32.060  35.360  10.034  1.00 26.63     0.034 C 
BRANCH   8   9
ATOM      9  CG  LYS A 135      30.751  34.616   9.972  1.00 29.45     0.005 C 
BRANCH   9  10
ATOM     10  CD  LYS A 135      30.319  34.409   8.528  1.00 32.00     0.041 C 
BRANCH  10  11
ATOM     11  CE  LYS A 135      28.808  34.457   8.412  1.00 34.25     0.338 C 
ATOM     12  NZ  LYS A 135      28.159  33.750   9.551  1.00 35.99     0.618 N 
ENDBRANCH  10  11
ENDBRANCH   9  10
ENDBRANCH   8   9
ENDBRANCH   7   8
END_RES LYS A 135
