REMARK VINA RESULT:    -4.882      4.626      8.083
REMARK INTER + INTRA:         -15.711
REMARK INTER:                 -10.904
REMARK INTRA:                  -4.808
REMARK UNBOUND:                -6.121
REMARK SMILES CC(=O)N[C@@H]1[C@@H](O)C[C@](O)(C(=O)O)O[C@H]1C(O)[C@H](O)CNC(=O)OCc1cn(C[C@@H](C)CN2CCN(c3ccc(Cl)cc3)CC2)nn1
REMARK SMILES IDX 24 1 22 2 21 3 23 5 20 6 18 7 16 8 15 9 9 10 8 11 14 12 6 13
REMARK SMILES IDX 5 14 10 15 11 17 12 18 13 19 7 21 4 23 2 24 1 26 3 27 17 28
REMARK SMILES IDX 19 30 25 32 26 33 27 34 47 35 28 36 46 37 29 38 30 39 31 40
REMARK SMILES IDX 32 41 33 42 34 43 45 44 35 45 44 46 36 47 37 48 38 49 43 50
REMARK SMILES IDX 39 51 42 52 40 53 41 54
REMARK H PARENT 21 4 10 16 13 20 7 22 4 25 17 29 19 31
REMARK Flexibility Score: inf
ROOT
ATOM      1  O   UNL     1      17.907  28.501  10.831  1.00  0.00    -0.443 OA
ENDROOT
BRANCH   1   2
ATOM      2  C   UNL     1      17.327  29.171   9.764  1.00  0.00     0.407 C 
ATOM      3  N   UNL     1      17.233  30.587   9.666  1.00  0.00    -0.319 N 
ATOM      4  H   UNL     1      17.622  31.133  10.459  1.00  0.00     0.167 HD
ATOM      5  O   UNL     1      16.869  28.444   8.841  1.00  0.00    -0.225 OA
BRANCH   3   6
ATOM      6  C   UNL     1      16.618  31.116   8.493  1.00  0.00     0.154 C 
BRANCH   6   7
ATOM      7  C   UNL     1      17.256  32.300   7.885  1.00  0.00     0.165 C 
BRANCH   7   8
ATOM      8  C   UNL     1      16.471  33.596   7.992  1.00  0.00     0.176 C 
BRANCH   8   9
ATOM      9  C   UNL     1      17.452  34.573   8.643  1.00  0.00     0.178 C 
ATOM     10  C   UNL     1      19.668  35.250   8.372  1.00  0.00     0.269 C 
ATOM     11  C   UNL     1      19.835  35.298   9.864  1.00  0.00     0.112 C 
ATOM     12  O   UNL     1      18.625  34.472   7.948  1.00  0.00    -0.332 OA
ATOM     13  C   UNL     1      18.564  35.336  10.634  1.00  0.00     0.145 C 
ATOM     14  C   UNL     1      17.659  34.216  10.077  1.00  0.00     0.142 C 
BRANCH  10  15
ATOM     15  O   UNL     1      20.850  34.625   7.896  1.00  0.00    -0.357 OA
ATOM     16  H   UNL     1      20.707  33.675   7.734  1.00  0.00     0.214 HD
ENDBRANCH  10  15
BRANCH  10  17
ATOM     17  C   UNL     1      19.646  36.606   7.746  1.00  0.00     0.364 C 
ATOM     18  O   UNL     1      20.512  37.461   8.060  1.00  0.00    -0.246 OA
BRANCH  17  19
ATOM     19  O   UNL     1      18.697  36.989   6.810  1.00  0.00    -0.477 OA
ATOM     20  H   UNL     1      17.736  37.221   7.029  1.00  0.00     0.296 HD
ENDBRANCH  17  19
ENDBRANCH  10  17
BRANCH  13  21
ATOM     21  O   UNL     1      18.841  35.045  11.970  1.00  0.00    -0.391 OA
ATOM     22  H   UNL     1      19.554  35.641  12.319  1.00  0.00     0.211 HD
ENDBRANCH  13  21
BRANCH  14  23
ATOM     23  N   UNL     1      16.434  34.155  10.831  1.00  0.00    -0.348 N 
ATOM     24  C   UNL     1      16.254  33.208  11.864  1.00  0.00     0.217 C 
ATOM     25  H   UNL     1      15.673  34.818  10.609  1.00  0.00     0.163 HD
ATOM     26  C   UNL     1      14.944  33.232  12.581  1.00  0.00     0.114 C 
ATOM     27  O   UNL     1      17.125  32.377  12.193  1.00  0.00    -0.275 OA
ENDBRANCH  14  23
ENDBRANCH   8   9
BRANCH   8  28
ATOM     28  O   UNL     1      16.130  34.021   6.698  1.00  0.00    -0.388 OA
ATOM     29  H   UNL     1      15.300  34.554   6.795  1.00  0.00     0.211 HD
ENDBRANCH   8  28
ENDBRANCH   7   8
BRANCH   7  30
ATOM     30  O   UNL     1      17.308  32.058   6.484  1.00  0.00    -0.388 OA
ATOM     31  H   UNL     1      17.143  32.956   6.079  1.00  0.00     0.211 HD
ENDBRANCH   7  30
ENDBRANCH   6   7
ENDBRANCH   3   6
ENDBRANCH   1   2
BRANCH   1  32
ATOM     32  C   UNL     1      18.208  29.182  12.038  1.00  0.00     0.294 C 
BRANCH  32  33
ATOM     33  C   UNL     1      19.666  29.412  12.153  1.00  0.00     0.120 A 
ATOM     34  C   UNL     1      20.238  30.652  12.448  1.00  0.00     0.138 A 
ATOM     35  N   UNL     1      20.715  28.588  12.032  1.00  0.00    -0.132 NA
ATOM     36  N   UNL     1      21.574  30.549  12.498  1.00  0.00    -0.252 N 
ATOM     37  N   UNL     1      21.840  29.251  12.232  1.00  0.00    -0.067 NA
BRANCH  36  38
ATOM     38  C   UNL     1      22.572  31.561  12.791  1.00  0.00     0.150 C 
BRANCH  38  39
ATOM     39  C   UNL     1      21.936  32.665  13.646  1.00  0.00     0.022 C 
ATOM     40  C   UNL     1      22.207  32.474  15.091  1.00  0.00     0.011 C 
BRANCH  39  41
ATOM     41  C   UNL     1      22.114  33.996  13.045  1.00  0.00     0.089 C 
BRANCH  41  42
ATOM     42  N   UNL     1      23.341  34.145  12.327  1.00  0.00    -0.299 NA
ATOM     43  C   UNL     1      23.163  35.133  11.228  1.00  0.00     0.106 C 
ATOM     44  C   UNL     1      24.341  34.773  13.183  1.00  0.00     0.106 C 
ATOM     45  C   UNL     1      24.454  35.440  10.556  1.00  0.00     0.132 C 
ATOM     46  C   UNL     1      25.681  34.427  12.515  1.00  0.00     0.132 C 
ATOM     47  N   UNL     1      25.630  34.895  11.159  1.00  0.00    -0.369 N 
BRANCH  47  48
ATOM     48  C   UNL     1      26.824  34.809  10.390  1.00  0.00     0.037 A 
ATOM     49  C   UNL     1      26.756  34.935   9.020  1.00  0.00     0.027 A 
ATOM     50  C   UNL     1      28.052  34.592  10.999  1.00  0.00     0.027 A 
ATOM     51  C   UNL     1      27.912  34.843   8.280  1.00  0.00     0.022 A 
ATOM     52  C   UNL     1      29.197  34.501  10.251  1.00  0.00     0.022 A 
ATOM     53  C   UNL     1      29.120  34.630   8.874  1.00  0.00     0.041 A 
ATOM     54  Cl  UNL     1      30.585  34.504   7.937  1.00  0.00    -0.084 Cl
ENDBRANCH  47  48
ENDBRANCH  41  42
ENDBRANCH  39  41
ENDBRANCH  38  39
ENDBRANCH  36  38
ENDBRANCH  32  33
ENDBRANCH   1  32
TORSDOF 19
BEGIN_RES LYS A 131
REMARK  4 active torsions:
REMARK  status: ('A' for Active; 'I' for Inactive)
REMARK    1  A    between atoms: CA   and  CB  
REMARK    2  A    between atoms: CB   and  CG  
REMARK    3  A    between atoms: CG   and  CD  
REMARK    4  A    between atoms: CD   and  CE  
ROOT
ATOM      1  CA  LYS A 131      29.867  25.555  16.977  1.00 20.52     0.186 C 
ENDROOT
BRANCH   1   2
ATOM      2  CB  LYS A 131      28.345  25.722  17.026  1.00 20.94     0.034 C 
BRANCH   2   3
ATOM      3  CG  LYS A 131      27.602  24.398  16.932  1.00 22.96     0.005 C 
BRANCH   3   4
ATOM      4  CD  LYS A 131      26.529  24.275  17.978  1.00 24.33     0.041 C 
BRANCH   4   5
ATOM      5  CE  LYS A 131      25.669  23.051  17.683  1.00 26.91     0.338 C 
ATOM      6  NZ  LYS A 131      24.339  23.185  18.324  1.00 27.40     0.618 N 
ENDBRANCH   4   5
ENDBRANCH   3   4
ENDBRANCH   2   3
ENDBRANCH   1   2
END_RES LYS A 131
BEGIN_RES LYS A 135
REMARK  4 active torsions:
REMARK  status: ('A' for Active; 'I' for Inactive)
REMARK    5  A    between atoms: CA   and  CB  
REMARK    6  A    between atoms: CB   and  CG  
REMARK    7  A    between atoms: CG   and  CD  
REMARK    8  A    between atoms: CD   and  CE  
ROOT
ATOM      7  CA  LYS A 135      33.193  34.663   9.290  1.00 25.02     0.186 C 
ENDROOT
BRANCH   7   8
ATOM      8  CB  LYS A 135      32.060  35.360  10.034  1.00 26.63     0.034 C 
BRANCH   8   9
ATOM      9  CG  LYS A 135      32.476  35.934  11.364  1.00 29.45     0.005 C 
BRANCH   9  10
ATOM     10  CD  LYS A 135      31.884  37.322  11.558  1.00 32.00     0.041 C 
BRANCH  10  11
ATOM     11  CE  LYS A 135      30.591  37.243  12.347  1.00 34.25     0.338 C 
ATOM     12  NZ  LYS A 135      30.634  36.132  13.338  1.00 35.99     0.618 N 
ENDBRANCH  10  11
ENDBRANCH   9  10
ENDBRANCH   8   9
ENDBRANCH   7   8
END_RES LYS A 135
