REMARK VINA RESULT:    -4.853      4.216      6.694
REMARK INTER + INTRA:         -14.403
REMARK INTER:                  -6.624
REMARK INTRA:                  -7.779
REMARK UNBOUND:                -5.578
REMARK SMILES CC(=O)N[C@@H]1[C@@H](O)C[C@](O)(C(=O)O)O[C@H]1C(O)[C@H](O)CNC(=O)OCc1cn(C(C)(C)C(=O)O)nn1
REMARK SMILES IDX 21 1 22 2 23 3 20 5 18 6 16 7 15 8 9 9 8 10 14 11 6 12 5 13
REMARK SMILES IDX 10 14 11 16 12 17 13 18 7 20 4 22 2 23 1 25 3 26 17 27 19 29
REMARK SMILES IDX 24 31 25 32 26 33 27 34 36 35 28 36 35 37 29 38 30 39 31 40
REMARK SMILES IDX 32 41 33 42 34 43
REMARK H PARENT 21 4 10 15 13 19 7 21 4 24 17 28 19 30 34 44
REMARK Flexibility Score: inf
ROOT
ATOM      1  N   UNL     1      25.569  38.988   6.831  1.00  0.00    -0.319 N 
ATOM      2  C   UNL     1      24.633  38.489   7.767  1.00  0.00     0.407 C 
ATOM      3  O   UNL     1      23.809  39.277   8.348  1.00  0.00    -0.225 OA
ATOM      4  H   UNL     1      26.231  38.341   6.363  1.00  0.00     0.167 HD
ENDROOT
BRANCH   1   5
ATOM      5  C   UNL     1      25.562  40.402   6.556  1.00  0.00     0.154 C 
BRANCH   5   6
ATOM      6  C   UNL     1      26.763  41.147   7.018  1.00  0.00     0.165 C 
BRANCH   6   7
ATOM      7  C   UNL     1      27.921  41.085   6.053  1.00  0.00     0.176 C 
BRANCH   7   8
ATOM      8  C   UNL     1      29.072  40.349   6.749  1.00  0.00     0.178 C 
ATOM      9  C   UNL     1      31.048  40.876   7.856  1.00  0.00     0.269 C 
ATOM     10  C   UNL     1      31.806  39.836   7.061  1.00  0.00     0.112 C 
ATOM     11  O   UNL     1      29.923  41.342   7.221  1.00  0.00    -0.332 OA
ATOM     12  C   UNL     1      31.245  39.742   5.672  1.00  0.00     0.145 C 
ATOM     13  C   UNL     1      29.762  39.436   5.758  1.00  0.00     0.142 C 
BRANCH   9  14
ATOM     14  O   UNL     1      31.914  41.974   7.982  1.00  0.00    -0.357 OA
ATOM     15  H   UNL     1      31.919  42.291   8.904  1.00  0.00     0.214 HD
ENDBRANCH   9  14
BRANCH   9  16
ATOM     16  C   UNL     1      30.748  40.376   9.216  1.00  0.00     0.364 C 
ATOM     17  O   UNL     1      30.382  41.168  10.107  1.00  0.00    -0.246 OA
BRANCH  16  18
ATOM     18  O   UNL     1      30.859  39.033   9.546  1.00  0.00    -0.477 OA
ATOM     19  H   UNL     1      31.258  38.723  10.421  1.00  0.00     0.296 HD
ENDBRANCH  16  18
ENDBRANCH   9  16
BRANCH  12  20
ATOM     20  O   UNL     1      31.511  40.847   4.901  1.00  0.00    -0.391 OA
ATOM     21  H   UNL     1      31.551  40.676   3.935  1.00  0.00     0.211 HD
ENDBRANCH  12  20
BRANCH  13  22
ATOM     22  N   UNL     1      29.649  38.039   6.170  1.00  0.00    -0.348 N 
ATOM     23  C   UNL     1      28.603  37.207   5.683  1.00  0.00     0.217 C 
ATOM     24  H   UNL     1      30.340  37.633   6.834  1.00  0.00     0.163 HD
ATOM     25  C   UNL     1      28.472  35.778   6.095  1.00  0.00     0.114 C 
ATOM     26  O   UNL     1      27.785  37.751   4.876  1.00  0.00    -0.275 OA
ENDBRANCH  13  22
ENDBRANCH   7   8
BRANCH   7  27
ATOM     27  O   UNL     1      27.635  40.533   4.836  1.00  0.00    -0.388 OA
ATOM     28  H   UNL     1      26.858  39.945   4.891  1.00  0.00     0.211 HD
ENDBRANCH   7  27
ENDBRANCH   6   7
BRANCH   6  29
ATOM     29  O   UNL     1      27.156  40.535   8.236  1.00  0.00    -0.388 OA
ATOM     30  H   UNL     1      26.574  39.734   8.384  1.00  0.00     0.211 HD
ENDBRANCH   6  29
ENDBRANCH   5   6
ENDBRANCH   1   5
BRANCH   2  31
ATOM     31  O   UNL     1      24.534  37.159   8.120  1.00  0.00    -0.443 OA
BRANCH  31  32
ATOM     32  C   UNL     1      25.706  36.350   8.330  1.00  0.00     0.294 C 
BRANCH  32  33
ATOM     33  C   UNL     1      26.607  37.096   9.246  1.00  0.00     0.120 A 
ATOM     34  C   UNL     1      26.403  37.278  10.604  1.00  0.00     0.139 A 
ATOM     35  N   UNL     1      27.764  37.734   8.985  1.00  0.00    -0.132 NA
ATOM     36  N   UNL     1      27.420  38.004  11.121  1.00  0.00    -0.235 N 
ATOM     37  N   UNL     1      28.227  38.263  10.109  1.00  0.00    -0.066 NA
BRANCH  36  38
ATOM     38  C   UNL     1      27.561  38.398  12.508  1.00  0.00     0.155 C 
ATOM     39  C   UNL     1      26.251  38.950  13.030  1.00  0.00     0.049 C 
ATOM     40  C   UNL     1      27.974  37.195  13.331  1.00  0.00     0.049 C 
BRANCH  38  41
ATOM     41  C   UNL     1      28.578  39.480  12.655  1.00  0.00     0.331 C 
ATOM     42  O   UNL     1      28.166  40.616  13.001  1.00  0.00    -0.250 OA
BRANCH  41  43
ATOM     43  O   UNL     1      29.923  39.266  12.428  1.00  0.00    -0.479 OA
ATOM     44  H   UNL     1      30.569  39.983  12.744  1.00  0.00     0.296 HD
ENDBRANCH  41  43
ENDBRANCH  38  41
ENDBRANCH  36  38
ENDBRANCH  32  33
ENDBRANCH  31  32
ENDBRANCH   2  31
TORSDOF 17
BEGIN_RES LYS A 131
REMARK  4 active torsions:
REMARK  status: ('A' for Active; 'I' for Inactive)
REMARK    1  A    between atoms: CA   and  CB  
REMARK    2  A    between atoms: CB   and  CG  
REMARK    3  A    between atoms: CG   and  CD  
REMARK    4  A    between atoms: CD   and  CE  
ROOT
ATOM      1  CA  LYS A 131      29.867  25.555  16.977  1.00 20.52     0.186 C 
ENDROOT
BRANCH   1   2
ATOM      2  CB  LYS A 131      28.345  25.722  17.026  1.00 20.94     0.034 C 
BRANCH   2   3
ATOM      3  CG  LYS A 131      27.602  24.400  16.915  1.00 22.96     0.005 C 
BRANCH   3   4
ATOM      4  CD  LYS A 131      26.410  24.342  17.830  1.00 24.33     0.041 C 
BRANCH   4   5
ATOM      5  CE  LYS A 131      26.367  25.600  18.691  1.00 26.91     0.338 C 
ATOM      6  NZ  LYS A 131      25.589  25.355  19.929  1.00 27.40     0.618 N 
ENDBRANCH   4   5
ENDBRANCH   3   4
ENDBRANCH   2   3
ENDBRANCH   1   2
END_RES LYS A 131
BEGIN_RES LYS A 135
REMARK  4 active torsions:
REMARK  status: ('A' for Active; 'I' for Inactive)
REMARK    5  A    between atoms: CA   and  CB  
REMARK    6  A    between atoms: CB   and  CG  
REMARK    7  A    between atoms: CG   and  CD  
REMARK    8  A    between atoms: CD   and  CE  
ROOT
ATOM      7  CA  LYS A 135      33.193  34.663   9.290  1.00 25.02     0.186 C 
ENDROOT
BRANCH   7   8
ATOM      8  CB  LYS A 135      32.060  35.360  10.034  1.00 26.63     0.034 C 
BRANCH   8   9
ATOM      9  CG  LYS A 135      30.794  35.481   9.226  1.00 29.45     0.005 C 
BRANCH   9  10
ATOM     10  CD  LYS A 135      30.177  34.112   8.986  1.00 32.00     0.041 C 
BRANCH  10  11
ATOM     11  CE  LYS A 135      28.729  34.094   9.435  1.00 34.25     0.338 C 
ATOM     12  NZ  LYS A 135      28.605  34.490  10.865  1.00 35.99     0.618 N 
ENDBRANCH  10  11
ENDBRANCH   9  10
ENDBRANCH   8   9
ENDBRANCH   7   8
END_RES LYS A 135
