REMARK VINA RESULT:    -4.452      7.583     12.724
REMARK INTER + INTRA:         -14.102
REMARK INTER:                  -8.784
REMARK INTRA:                  -5.318
REMARK UNBOUND:                -6.136
REMARK SMILES CC(=O)N[C@@H]1[C@@H](O)C[C@](O)(C(=O)O)O[C@H]1C(O)[C@H](O)CNC(=O)OCc1cn(Cc2ccsc2)nn1
REMARK SMILES IDX 21 1 22 2 23 3 20 5 18 6 16 7 15 8 9 9 8 10 14 11 6 12 5 13
REMARK SMILES IDX 10 14 11 16 12 17 13 18 7 20 4 22 2 23 1 25 3 26 17 27 19 29
REMARK SMILES IDX 24 31 25 32 26 33 27 34 36 35 28 36 35 37 29 38 30 39 31 40
REMARK SMILES IDX 34 41 32 42 33 43
REMARK H PARENT 21 4 10 15 13 19 7 21 4 24 17 28 19 30
REMARK Flexibility Score: inf
ROOT
ATOM      1  N   UNL     1      29.578  27.025  20.299  1.00  0.00    -0.319 N 
ATOM      2  C   UNL     1      28.343  27.713  20.284  1.00  0.00     0.407 C 
ATOM      3  O   UNL     1      27.964  28.308  21.318  1.00  0.00    -0.225 OA
ATOM      4  H   UNL     1      29.851  26.538  19.388  1.00  0.00     0.167 HD
ENDROOT
BRANCH   1   5
ATOM      5  C   UNL     1      30.462  26.947  21.441  1.00  0.00     0.154 C 
BRANCH   5   6
ATOM      6  C   UNL     1      31.751  27.623  21.106  1.00  0.00     0.165 C 
BRANCH   6   7
ATOM      7  C   UNL     1      31.685  29.135  21.148  1.00  0.00     0.176 C 
BRANCH   7   8
ATOM      8  C   UNL     1      33.020  29.671  21.545  1.00  0.00     0.178 C 
ATOM      9  C   UNL     1      34.671  29.584  23.160  1.00  0.00     0.269 C 
ATOM     10  C   UNL     1      35.284  30.679  22.320  1.00  0.00     0.112 C 
ATOM     11  O   UNL     1      33.658  28.912  22.506  1.00  0.00    -0.332 OA
ATOM     12  C   UNL     1      34.295  31.707  21.881  1.00  0.00     0.145 C 
ATOM     13  C   UNL     1      32.903  31.127  22.016  1.00  0.00     0.142 C 
BRANCH   9  14
ATOM     14  O   UNL     1      34.296  30.044  24.423  1.00  0.00    -0.357 OA
ATOM     15  H   UNL     1      34.866  30.803  24.685  1.00  0.00     0.214 HD
ENDBRANCH   9  14
BRANCH   9  16
ATOM     16  C   UNL     1      35.768  28.576  23.391  1.00  0.00     0.364 C 
ATOM     17  O   UNL     1      36.849  28.862  23.922  1.00  0.00    -0.246 OA
BRANCH  16  18
ATOM     18  O   UNL     1      35.563  27.257  22.990  1.00  0.00    -0.477 OA
ATOM     19  H   UNL     1      34.784  26.970  22.410  1.00  0.00     0.296 HD
ENDBRANCH  16  18
ENDBRANCH   9  16
BRANCH  12  20
ATOM     20  O   UNL     1      34.428  32.924  22.514  1.00  0.00    -0.391 OA
ATOM     21  H   UNL     1      34.050  32.902  23.447  1.00  0.00     0.211 HD
ENDBRANCH  12  20
BRANCH  13  22
ATOM     22  N   UNL     1      31.928  31.825  21.219  1.00  0.00    -0.348 N 
ATOM     23  C   UNL     1      31.156  32.896  21.775  1.00  0.00     0.217 C 
ATOM     24  H   UNL     1      31.748  31.583  20.221  1.00  0.00     0.163 HD
ATOM     25  C   UNL     1      30.147  33.653  21.031  1.00  0.00     0.114 C 
ATOM     26  O   UNL     1      31.360  33.210  22.995  1.00  0.00    -0.275 OA
ENDBRANCH  13  22
ENDBRANCH   7   8
BRANCH   7  27
ATOM     27  O   UNL     1      30.731  29.460  22.114  1.00  0.00    -0.388 OA
ATOM     28  H   UNL     1      31.078  30.186  22.689  1.00  0.00     0.211 HD
ENDBRANCH   7  27
ENDBRANCH   6   7
BRANCH   6  29
ATOM     29  O   UNL     1      32.073  27.280  19.783  1.00  0.00    -0.388 OA
ATOM     30  H   UNL     1      32.686  26.515  19.727  1.00  0.00     0.211 HD
ENDBRANCH   6  29
ENDBRANCH   5   6
ENDBRANCH   1   5
BRANCH   2  31
ATOM     31  O   UNL     1      27.563  27.717  19.109  1.00  0.00    -0.443 OA
BRANCH  31  32
ATOM     32  C   UNL     1      26.979  28.970  18.779  1.00  0.00     0.294 C 
BRANCH  32  33
ATOM     33  C   UNL     1      27.825  29.614  17.765  1.00  0.00     0.120 A 
ATOM     34  C   UNL     1      28.840  30.537  17.965  1.00  0.00     0.138 A 
ATOM     35  N   UNL     1      27.757  29.411  16.432  1.00  0.00    -0.132 NA
ATOM     36  N   UNL     1      29.323  30.837  16.752  1.00  0.00    -0.248 N 
ATOM     37  N   UNL     1      28.674  30.161  15.822  1.00  0.00    -0.067 NA
BRANCH  36  38
ATOM     38  C   UNL     1      30.393  31.760  16.495  1.00  0.00     0.182 C 
BRANCH  38  39
ATOM     39  C   UNL     1      29.891  32.949  15.676  1.00  0.00    -0.016 A 
ATOM     40  C   UNL     1      30.334  33.194  14.449  1.00  0.00     0.017 A 
ATOM     41  C   UNL     1      28.951  33.775  16.251  1.00  0.00     0.070 A 
ATOM     42  C   UNL     1      29.855  34.270  13.752  1.00  0.00     0.065 A 
ATOM     43  S   UNL     1      28.685  34.998  14.917  1.00  0.00    -0.152 S 
ENDBRANCH  38  39
ENDBRANCH  36  38
ENDBRANCH  32  33
ENDBRANCH  31  32
ENDBRANCH   2  31
TORSDOF 16
BEGIN_RES LYS A 131
REMARK  4 active torsions:
REMARK  status: ('A' for Active; 'I' for Inactive)
REMARK    1  A    between atoms: CA   and  CB  
REMARK    2  A    between atoms: CB   and  CG  
REMARK    3  A    between atoms: CG   and  CD  
REMARK    4  A    between atoms: CD   and  CE  
ROOT
ATOM      1  CA  LYS A 131      29.867  25.555  16.977  1.00 20.52     0.186 C 
ENDROOT
BRANCH   1   2
ATOM      2  CB  LYS A 131      28.345  25.722  17.026  1.00 20.94     0.034 C 
BRANCH   2   3
ATOM      3  CG  LYS A 131      27.601  24.402  16.895  1.00 22.96     0.005 C 
BRANCH   3   4
ATOM      4  CD  LYS A 131      26.612  24.196  18.009  1.00 24.33     0.041 C 
BRANCH   4   5
ATOM      5  CE  LYS A 131      25.309  24.912  17.671  1.00 26.91     0.338 C 
ATOM      6  NZ  LYS A 131      24.438  24.042  16.845  1.00 27.40     0.618 N 
ENDBRANCH   4   5
ENDBRANCH   3   4
ENDBRANCH   2   3
ENDBRANCH   1   2
END_RES LYS A 131
BEGIN_RES LYS A 135
REMARK  4 active torsions:
REMARK  status: ('A' for Active; 'I' for Inactive)
REMARK    5  A    between atoms: CA   and  CB  
REMARK    6  A    between atoms: CB   and  CG  
REMARK    7  A    between atoms: CG   and  CD  
REMARK    8  A    between atoms: CD   and  CE  
ROOT
ATOM      7  CA  LYS A 135      33.193  34.663   9.290  1.00 25.02     0.186 C 
ENDROOT
BRANCH   7   8
ATOM      8  CB  LYS A 135      32.060  35.360  10.034  1.00 26.63     0.034 C 
BRANCH   8   9
ATOM      9  CG  LYS A 135      30.780  35.442   9.243  1.00 29.45     0.005 C 
BRANCH   9  10
ATOM     10  CD  LYS A 135      30.206  34.054   9.005  1.00 32.00     0.041 C 
BRANCH  10  11
ATOM     11  CE  LYS A 135      28.741  34.010   9.394  1.00 34.25     0.338 C 
ATOM     12  NZ  LYS A 135      28.407  35.099  10.353  1.00 35.99     0.618 N 
ENDBRANCH  10  11
ENDBRANCH   9  10
ENDBRANCH   8   9
ENDBRANCH   7   8
END_RES LYS A 135
