REMARK VINA RESULT:    -3.960      6.656     11.087
REMARK INTER + INTRA:         -14.511
REMARK INTER:                  -8.415
REMARK INTRA:                  -6.096
REMARK UNBOUND:                -7.426
REMARK SMILES CC(=O)N[C@@H]1[C@@H](O)C[C@](O)(C(=O)O)O[C@H]1C(O)[C@H](O)CNC(=O)OCc1cn(Cc2ccccc2Br)nn1
REMARK SMILES IDX 21 1 22 2 23 3 20 5 18 6 16 7 15 8 9 9 8 10 14 11 6 12 5 13
REMARK SMILES IDX 10 14 11 16 12 17 13 18 7 20 4 22 2 23 1 25 3 26 17 27 19 29
REMARK SMILES IDX 24 31 25 32 26 33 27 34 38 35 28 36 37 37 29 38 30 39 31 40
REMARK SMILES IDX 35 41 32 42 34 43 36 44 33 45
REMARK H PARENT 21 4 10 15 13 19 7 21 4 24 17 28 19 30
REMARK Flexibility Score: inf
ROOT
ATOM      1  N   UNL     1      26.460  38.733  11.942  1.00  0.00    -0.319 N 
ATOM      2  C   UNL     1      27.688  38.156  11.602  1.00  0.00     0.407 C 
ATOM      3  O   UNL     1      28.532  38.839  10.958  1.00  0.00    -0.225 OA
ATOM      4  H   UNL     1      25.781  38.128  12.482  1.00  0.00     0.167 HD
ENDROOT
BRANCH   1   5
ATOM      5  C   UNL     1      26.057  40.082  11.610  1.00  0.00     0.154 C 
BRANCH   5   6
ATOM      6  C   UNL     1      24.750  40.043  10.848  1.00  0.00     0.165 C 
BRANCH   6   7
ATOM      7  C   UNL     1      24.981  39.828   9.367  1.00  0.00     0.176 C 
BRANCH   7   8
ATOM      8  C   UNL     1      24.319  38.561   8.866  1.00  0.00     0.178 C 
ATOM      9  C   UNL     1      22.527  37.162   9.391  1.00  0.00     0.269 C 
ATOM     10  C   UNL     1      23.391  35.959   9.414  1.00  0.00     0.112 C 
ATOM     11  O   UNL     1      23.272  38.291   9.695  1.00  0.00    -0.332 OA
ATOM     12  C   UNL     1      24.855  36.163   9.371  1.00  0.00     0.145 C 
ATOM     13  C   UNL     1      25.312  37.441   8.730  1.00  0.00     0.142 C 
BRANCH   9  14
ATOM     14  O   UNL     1      21.579  37.059  10.442  1.00  0.00    -0.357 OA
ATOM     15  H   UNL     1      20.734  36.646  10.120  1.00  0.00     0.214 HD
ENDBRANCH   9  14
BRANCH   9  16
ATOM     16  C   UNL     1      21.782  37.274   8.135  1.00  0.00     0.364 C 
ATOM     17  O   UNL     1      21.947  36.491   7.160  1.00  0.00    -0.246 OA
BRANCH  16  18
ATOM     18  O   UNL     1      20.844  38.286   7.991  1.00  0.00    -0.477 OA
ATOM     19  H   UNL     1      19.860  38.160   8.196  1.00  0.00     0.296 HD
ENDBRANCH  16  18
ENDBRANCH   9  16
BRANCH  12  20
ATOM     20  O   UNL     1      25.406  36.026  10.659  1.00  0.00    -0.391 OA
ATOM     21  H   UNL     1      25.314  35.042  10.866  1.00  0.00     0.211 HD
ENDBRANCH  12  20
BRANCH  13  22
ATOM     22  N   UNL     1      25.721  37.230   7.359  1.00  0.00    -0.348 N 
ATOM     23  C   UNL     1      27.065  37.372   6.931  1.00  0.00     0.217 C 
ATOM     24  H   UNL     1      25.012  36.962   6.649  1.00  0.00     0.163 HD
ATOM     25  C   UNL     1      27.504  37.158   5.522  1.00  0.00     0.114 C 
ATOM     26  O   UNL     1      27.918  37.702   7.823  1.00  0.00    -0.275 OA
ENDBRANCH  13  22
ENDBRANCH   7   8
BRANCH   7  27
ATOM     27  O   UNL     1      26.345  39.850   9.095  1.00  0.00    -0.388 OA
ATOM     28  H   UNL     1      26.811  40.342   9.840  1.00  0.00     0.211 HD
ENDBRANCH   7  27
ENDBRANCH   6   7
BRANCH   6  29
ATOM     29  O   UNL     1      24.154  41.308  11.070  1.00  0.00    -0.388 OA
ATOM     30  H   UNL     1      24.555  42.002  10.523  1.00  0.00     0.211 HD
ENDBRANCH   6  29
ENDBRANCH   5   6
ENDBRANCH   1   5
BRANCH   2  31
ATOM     31  O   UNL     1      28.064  36.860  11.924  1.00  0.00    -0.443 OA
BRANCH  31  32
ATOM     32  C   UNL     1      29.435  36.529  12.062  1.00  0.00     0.294 C 
BRANCH  32  33
ATOM     33  C   UNL     1      29.628  35.384  12.976  1.00  0.00     0.120 A 
ATOM     34  C   UNL     1      30.847  34.891  13.464  1.00  0.00     0.138 A 
ATOM     35  N   UNL     1      28.715  34.577  13.528  1.00  0.00    -0.132 NA
ATOM     36  N   UNL     1      30.654  33.852  14.257  1.00  0.00    -0.248 N 
ATOM     37  N   UNL     1      29.311  33.677  14.280  1.00  0.00    -0.067 NA
BRANCH  36  38
ATOM     38  C   UNL     1      31.525  32.973  15.001  1.00  0.00     0.182 C 
BRANCH  38  39
ATOM     39  C   UNL     1      31.098  32.654  16.357  1.00  0.00    -0.012 A 
ATOM     40  C   UNL     1      30.459  31.445  16.645  1.00  0.00     0.007 A 
ATOM     41  C   UNL     1      31.324  33.495  17.409  1.00  0.00     0.023 A 
ATOM     42  C   UNL     1      30.094  31.149  17.929  1.00  0.00     0.000 A 
ATOM     43  C   UNL     1      30.953  33.191  18.706  1.00  0.00     0.016 A 
ATOM     44  Br  UNL     1      32.152  35.218  17.145  1.00  0.00    -0.050 Br
ATOM     45  C   UNL     1      30.328  32.001  18.980  1.00  0.00     0.001 A 
ENDBRANCH  38  39
ENDBRANCH  36  38
ENDBRANCH  32  33
ENDBRANCH  31  32
ENDBRANCH   2  31
TORSDOF 16
BEGIN_RES LYS A 131
REMARK  4 active torsions:
REMARK  status: ('A' for Active; 'I' for Inactive)
REMARK    1  A    between atoms: CA   and  CB  
REMARK    2  A    between atoms: CB   and  CG  
REMARK    3  A    between atoms: CG   and  CD  
REMARK    4  A    between atoms: CD   and  CE  
ROOT
ATOM      1  CA  LYS A 131      29.867  25.555  16.977  1.00 20.52     0.186 C 
ENDROOT
BRANCH   1   2
ATOM      2  CB  LYS A 131      28.345  25.722  17.026  1.00 20.94     0.034 C 
BRANCH   2   3
ATOM      3  CG  LYS A 131      27.599  24.445  16.671  1.00 22.96     0.005 C 
BRANCH   3   4
ATOM      4  CD  LYS A 131      27.018  23.773  17.885  1.00 24.33     0.041 C 
BRANCH   4   5
ATOM      5  CE  LYS A 131      25.600  23.303  17.576  1.00 26.91     0.338 C 
ATOM      6  NZ  LYS A 131      24.819  24.391  16.941  1.00 27.40     0.618 N 
ENDBRANCH   4   5
ENDBRANCH   3   4
ENDBRANCH   2   3
ENDBRANCH   1   2
END_RES LYS A 131
BEGIN_RES LYS A 135
REMARK  4 active torsions:
REMARK  status: ('A' for Active; 'I' for Inactive)
REMARK    5  A    between atoms: CA   and  CB  
REMARK    6  A    between atoms: CB   and  CG  
REMARK    7  A    between atoms: CG   and  CD  
REMARK    8  A    between atoms: CD   and  CE  
ROOT
ATOM      7  CA  LYS A 135      33.193  34.663   9.290  1.00 25.02     0.186 C 
ENDROOT
BRANCH   7   8
ATOM      8  CB  LYS A 135      32.060  35.360  10.034  1.00 26.63     0.034 C 
BRANCH   8   9
ATOM      9  CG  LYS A 135      30.822  35.559   9.197  1.00 29.45     0.005 C 
BRANCH   9  10
ATOM     10  CD  LYS A 135      30.090  34.241   9.001  1.00 32.00     0.041 C 
BRANCH  10  11
ATOM     11  CE  LYS A 135      28.603  34.479   8.824  1.00 34.25     0.338 C 
ATOM     12  NZ  LYS A 135      27.807  33.593   9.717  1.00 35.99     0.618 N 
ENDBRANCH  10  11
ENDBRANCH   9  10
ENDBRANCH   8   9
ENDBRANCH   7   8
END_RES LYS A 135
