REMARK VINA RESULT:    -5.196      2.907      6.023
REMARK INTER + INTRA:         -16.963
REMARK INTER:                 -10.617
REMARK INTRA:                  -6.345
REMARK UNBOUND:                -6.299
REMARK SMILES CC(=O)N[C@@H]1[C@@H](O)C[C@](O)(C(=O)O)O[C@H]1C(O)[C@H](O)CNC(=O)OCc1cn(C[C@@H](C(=O)O)C(c2ccccc2)c2ccccc2)nn1
REMARK SMILES IDX 21 1 22 2 23 3 20 5 18 6 16 7 15 8 9 9 8 10 14 11 6 12 5 13
REMARK SMILES IDX 10 14 11 16 12 17 13 18 7 20 4 22 2 23 1 25 3 26 17 27 19 29
REMARK SMILES IDX 24 31 25 32 26 33 27 34 48 35 28 36 47 37 29 38 30 39 31 40
REMARK SMILES IDX 32 41 33 42 34 44 35 45 36 46 40 47 37 48 39 49 38 50 41 51
REMARK SMILES IDX 42 52 46 53 43 54 45 55 44 56
REMARK H PARENT 21 4 10 15 13 19 7 21 4 24 17 28 19 30 33 43
REMARK Flexibility Score: inf
ROOT
ATOM      1  N   UNL     1      27.057  37.241  16.989  1.00  0.00    -0.319 N 
ATOM      2  C   UNL     1      25.823  37.467  17.653  1.00  0.00     0.407 C 
ATOM      3  O   UNL     1      25.796  38.179  18.699  1.00  0.00    -0.225 OA
ATOM      4  H   UNL     1      26.995  36.633  16.120  1.00  0.00     0.167 HD
ENDROOT
BRANCH   1   5
ATOM      5  C   UNL     1      28.316  37.786  17.440  1.00  0.00     0.154 C 
BRANCH   5   6
ATOM      6  C   UNL     1      29.391  37.753  16.353  1.00  0.00     0.165 C 
BRANCH   6   7
ATOM      7  C   UNL     1      28.985  36.677  15.394  1.00  0.00     0.176 C 
BRANCH   7   8
ATOM      8  C   UNL     1      29.996  35.573  15.270  1.00  0.00     0.178 C 
ATOM      9  C   UNL     1      31.519  34.728  13.740  1.00  0.00     0.269 C 
ATOM     10  C   UNL     1      31.729  33.615  14.733  1.00  0.00     0.112 C 
ATOM     11  O   UNL     1      30.844  35.814  14.225  1.00  0.00    -0.332 OA
ATOM     12  C   UNL     1      30.478  33.199  15.428  1.00  0.00     0.145 C 
ATOM     13  C   UNL     1      29.371  34.206  15.117  1.00  0.00     0.142 C 
BRANCH   9  14
ATOM     14  O   UNL     1      30.868  34.187  12.627  1.00  0.00    -0.357 OA
ATOM     15  H   UNL     1      31.163  34.635  11.788  1.00  0.00     0.214 HD
ENDBRANCH   9  14
BRANCH   9  16
ATOM     16  C   UNL     1      32.863  35.178  13.303  1.00  0.00     0.364 C 
ATOM     17  O   UNL     1      33.859  34.926  14.023  1.00  0.00    -0.246 OA
BRANCH  16  18
ATOM     18  O   UNL     1      33.053  35.868  12.125  1.00  0.00    -0.477 OA
ATOM     19  H   UNL     1      32.425  35.695  11.327  1.00  0.00     0.296 HD
ENDBRANCH  16  18
ENDBRANCH   9  16
BRANCH  12  20
ATOM     20  O   UNL     1      30.087  31.903  15.201  1.00  0.00    -0.391 OA
ATOM     21  H   UNL     1      30.646  31.480  14.500  1.00  0.00     0.211 HD
ENDBRANCH  12  20
BRANCH  13  22
ATOM     22  N   UNL     1      28.265  34.026  16.046  1.00  0.00    -0.348 N 
ATOM     23  C   UNL     1      26.982  33.741  15.522  1.00  0.00     0.217 C 
ATOM     24  H   UNL     1      28.443  34.109  17.059  1.00  0.00     0.163 HD
ATOM     25  C   UNL     1      25.823  33.548  16.419  1.00  0.00     0.114 C 
ATOM     26  O   UNL     1      26.807  33.648  14.282  1.00  0.00    -0.275 OA
ENDBRANCH  13  22
ENDBRANCH   7   8
BRANCH   7  27
ATOM     27  O   UNL     1      28.610  37.222  14.183  1.00  0.00    -0.388 OA
ATOM     28  H   UNL     1      28.011  36.622  13.655  1.00  0.00     0.211 HD
ENDBRANCH   7  27
ENDBRANCH   6   7
BRANCH   6  29
ATOM     29  O   UNL     1      30.588  37.418  17.010  1.00  0.00    -0.388 OA
ATOM     30  H   UNL     1      30.726  38.162  17.669  1.00  0.00     0.211 HD
ENDBRANCH   6  29
ENDBRANCH   5   6
ENDBRANCH   1   5
BRANCH   2  31
ATOM     31  O   UNL     1      24.644  36.924  17.182  1.00  0.00    -0.443 OA
BRANCH  31  32
ATOM     32  C   UNL     1      23.936  37.513  16.085  1.00  0.00     0.294 C 
BRANCH  32  33
ATOM     33  C   UNL     1      24.577  37.162  14.798  1.00  0.00     0.120 A 
ATOM     34  C   UNL     1      24.212  36.080  13.981  1.00  0.00     0.138 A 
ATOM     35  N   UNL     1      25.588  37.742  14.143  1.00  0.00    -0.132 NA
ATOM     36  N   UNL     1      24.985  36.044  12.896  1.00  0.00    -0.251 N 
ATOM     37  N   UNL     1      25.833  37.090  13.020  1.00  0.00    -0.067 NA
BRANCH  36  38
ATOM     38  C   UNL     1      25.034  35.185  11.748  1.00  0.00     0.162 C 
BRANCH  38  39
ATOM     39  C   UNL     1      26.059  35.509  10.713  1.00  0.00     0.132 C 
BRANCH  39  40
ATOM     40  C   UNL     1      27.270  34.707  10.888  1.00  0.00     0.309 C 
ATOM     41  O   UNL     1      27.641  33.773  10.157  1.00  0.00    -0.252 OA
BRANCH  40  42
ATOM     42  O   UNL     1      28.129  34.980  11.974  1.00  0.00    -0.481 OA
ATOM     43  H   UNL     1      27.912  34.570  12.886  1.00  0.00     0.296 HD
ENDBRANCH  40  42
ENDBRANCH  39  40
BRANCH  39  44
ATOM     44  C   UNL     1      25.497  35.405   9.306  1.00  0.00     0.065 C 
BRANCH  44  45
ATOM     45  C   UNL     1      26.412  36.007   8.308  1.00  0.00    -0.040 A 
ATOM     46  C   UNL     1      27.123  35.213   7.400  1.00  0.00     0.004 A 
ATOM     47  C   UNL     1      26.609  37.372   8.223  1.00  0.00     0.004 A 
ATOM     48  C   UNL     1      27.973  35.771   6.472  1.00  0.00     0.000 A 
ATOM     49  C   UNL     1      27.451  37.943   7.305  1.00  0.00     0.000 A 
ATOM     50  C   UNL     1      28.143  37.156   6.420  1.00  0.00     0.000 A 
ENDBRANCH  44  45
BRANCH  44  51
ATOM     51  C   UNL     1      24.170  36.009   9.151  1.00  0.00    -0.040 A 
ATOM     52  C   UNL     1      24.048  37.381   9.409  1.00  0.00     0.004 A 
ATOM     53  C   UNL     1      23.046  35.309   8.770  1.00  0.00     0.004 A 
ATOM     54  C   UNL     1      22.820  37.984   9.273  1.00  0.00     0.000 A 
ATOM     55  C   UNL     1      21.815  35.911   8.634  1.00  0.00     0.000 A 
ATOM     56  C   UNL     1      21.685  37.272   8.888  1.00  0.00     0.000 A 
ENDBRANCH  44  51
ENDBRANCH  39  44
ENDBRANCH  38  39
ENDBRANCH  36  38
ENDBRANCH  32  33
ENDBRANCH  31  32
ENDBRANCH   2  31
TORSDOF 21
BEGIN_RES LYS A 131
REMARK  4 active torsions:
REMARK  status: ('A' for Active; 'I' for Inactive)
REMARK    1  A    between atoms: CA   and  CB  
REMARK    2  A    between atoms: CB   and  CG  
REMARK    3  A    between atoms: CG   and  CD  
REMARK    4  A    between atoms: CD   and  CE  
ROOT
ATOM      1  CA  LYS A 131      29.867  25.555  16.977  1.00 20.52     0.186 C 
ENDROOT
BRANCH   1   2
ATOM      2  CB  LYS A 131      28.345  25.722  17.026  1.00 20.94     0.034 C 
BRANCH   2   3
ATOM      3  CG  LYS A 131      27.601  24.405  16.869  1.00 22.96     0.005 C 
BRANCH   3   4
ATOM      4  CD  LYS A 131      26.279  24.412  17.586  1.00 24.33     0.041 C 
BRANCH   4   5
ATOM      5  CE  LYS A 131      26.269  25.529  18.624  1.00 26.91     0.338 C 
ATOM      6  NZ  LYS A 131      24.958  26.220  18.631  1.00 27.40     0.618 N 
ENDBRANCH   4   5
ENDBRANCH   3   4
ENDBRANCH   2   3
ENDBRANCH   1   2
END_RES LYS A 131
BEGIN_RES LYS A 135
REMARK  4 active torsions:
REMARK  status: ('A' for Active; 'I' for Inactive)
REMARK    5  A    between atoms: CA   and  CB  
REMARK    6  A    between atoms: CB   and  CG  
REMARK    7  A    between atoms: CG   and  CD  
REMARK    8  A    between atoms: CD   and  CE  
ROOT
ATOM      7  CA  LYS A 135      33.193  34.663   9.290  1.00 25.02     0.186 C 
ENDROOT
BRANCH   7   8
ATOM      8  CB  LYS A 135      32.060  35.360  10.034  1.00 26.63     0.034 C 
BRANCH   8   9
ATOM      9  CG  LYS A 135      30.774  35.424   9.251  1.00 29.45     0.005 C 
BRANCH   9  10
ATOM     10  CD  LYS A 135      30.202  36.832   9.272  1.00 32.00     0.041 C 
BRANCH  10  11
ATOM     11  CE  LYS A 135      30.132  37.357  10.694  1.00 34.25     0.338 C 
ATOM     12  NZ  LYS A 135      28.905  38.174  10.904  1.00 35.99     0.618 N 
ENDBRANCH  10  11
ENDBRANCH   9  10
ENDBRANCH   8   9
ENDBRANCH   7   8
END_RES LYS A 135
