REMARK VINA RESULT:    -4.767      2.685      5.695
REMARK INTER + INTRA:         -14.046
REMARK INTER:                  -7.292
REMARK INTRA:                  -6.754
REMARK UNBOUND:                -5.796
REMARK SMILES CC(=O)N[C@@H]1[C@@H](O)C[C@](O)(C(=O)O)O[C@H]1C(O)[C@H](O)CNC(=O)OCc1cn(C2CCCCC2)nn1
REMARK SMILES IDX 20 1 18 2 16 3 15 4 9 5 8 6 14 7 6 8 5 9 10 10 11 12 12 13
REMARK SMILES IDX 13 14 7 16 4 18 2 19 1 21 3 22 17 23 19 25 21 27 22 28 23 30
REMARK SMILES IDX 24 31 25 32 26 33 27 34 36 35 28 36 35 37 29 38 30 39 34 40
REMARK SMILES IDX 31 41 33 42 32 43
REMARK H PARENT 10 11 13 15 7 17 4 20 17 24 19 26 21 29
REMARK Flexibility Score: inf
ROOT
ATOM      1  C   UNL     1      26.051  33.738  19.930  1.00  0.00     0.154 C 
ENDROOT
BRANCH   1   2
ATOM      2  C   UNL     1      25.757  33.012  18.625  1.00  0.00     0.165 C 
BRANCH   2   3
ATOM      3  C   UNL     1      26.733  31.880  18.521  1.00  0.00     0.176 C 
BRANCH   3   4
ATOM      4  C   UNL     1      26.113  30.528  18.243  1.00  0.00     0.178 C 
ATOM      5  C   UNL     1      27.544  28.816  18.994  1.00  0.00     0.269 C 
ATOM      6  C   UNL     1      27.409  28.077  17.673  1.00  0.00     0.112 C 
ATOM      7  O   UNL     1      26.449  29.590  19.181  1.00  0.00    -0.332 OA
ATOM      8  C   UNL     1      27.231  29.039  16.527  1.00  0.00     0.145 C 
ATOM      9  C   UNL     1      26.176  30.085  16.823  1.00  0.00     0.142 C 
BRANCH   5  10
ATOM     10  O   UNL     1      28.769  29.475  19.068  1.00  0.00    -0.357 OA
ATOM     11  H   UNL     1      29.486  28.777  19.196  1.00  0.00     0.214 HD
ENDBRANCH   5  10
BRANCH   5  12
ATOM     12  C   UNL     1      27.531  27.754  20.038  1.00  0.00     0.364 C 
ATOM     13  O   UNL     1      26.841  27.901  21.072  1.00  0.00    -0.246 OA
BRANCH  12  14
ATOM     14  O   UNL     1      28.272  26.621  19.865  1.00  0.00    -0.477 OA
ATOM     15  H   UNL     1      28.698  26.338  18.991  1.00  0.00     0.296 HD
ENDBRANCH  12  14
ENDBRANCH   5  12
BRANCH   8  16
ATOM     16  O   UNL     1      28.442  29.614  16.165  1.00  0.00    -0.391 OA
ATOM     17  H   UNL     1      28.656  30.364  16.772  1.00  0.00     0.211 HD
ENDBRANCH   8  16
BRANCH   9  18
ATOM     18  N   UNL     1      24.876  29.592  16.364  1.00  0.00    -0.348 N 
ATOM     19  C   UNL     1      24.424  29.978  15.084  1.00  0.00     0.217 C 
ATOM     20  H   UNL     1      24.288  28.971  16.952  1.00  0.00     0.163 HD
ATOM     21  C   UNL     1      23.112  29.527  14.527  1.00  0.00     0.114 C 
ATOM     22  O   UNL     1      25.102  30.735  14.320  1.00  0.00    -0.275 OA
ENDBRANCH   9  18
ENDBRANCH   3   4
BRANCH   3  23
ATOM     23  O   UNL     1      27.840  32.182  17.773  1.00  0.00    -0.388 OA
ATOM     24  H   UNL     1      28.446  32.858  18.214  1.00  0.00     0.211 HD
ENDBRANCH   3  23
ENDBRANCH   2   3
BRANCH   2  25
ATOM     25  O   UNL     1      25.808  33.935  17.608  1.00  0.00    -0.388 OA
ATOM     26  H   UNL     1      24.907  34.199  17.365  1.00  0.00     0.211 HD
ENDBRANCH   2  25
ENDBRANCH   1   2
BRANCH   1  27
ATOM     27  N   UNL     1      27.250  33.171  20.501  1.00  0.00    -0.319 N 
ATOM     28  C   UNL     1      28.124  33.837  21.395  1.00  0.00     0.407 C 
ATOM     29  H   UNL     1      27.541  32.173  20.261  1.00  0.00     0.167 HD
ATOM     30  O   UNL     1      27.871  35.017  21.738  1.00  0.00    -0.225 OA
BRANCH  28  31
ATOM     31  O   UNL     1      29.260  33.214  21.901  1.00  0.00    -0.443 OA
BRANCH  31  32
ATOM     32  C   UNL     1      30.527  33.567  21.408  1.00  0.00     0.294 C 
BRANCH  32  33
ATOM     33  C   UNL     1      30.649  33.045  20.022  1.00  0.00     0.120 A 
ATOM     34  C   UNL     1      31.172  33.737  18.921  1.00  0.00     0.138 A 
ATOM     35  N   UNL     1      30.303  31.848  19.513  1.00  0.00    -0.132 NA
ATOM     36  N   UNL     1      31.120  32.951  17.832  1.00  0.00    -0.249 N 
ATOM     37  N   UNL     1      30.585  31.808  18.223  1.00  0.00    -0.067 NA
BRANCH  36  38
ATOM     38  C   UNL     1      31.564  33.293  16.488  1.00  0.00     0.109 C 
ATOM     39  C   UNL     1      31.029  32.268  15.513  1.00  0.00     0.027 C 
ATOM     40  C   UNL     1      31.016  34.646  16.093  1.00  0.00     0.027 C 
ATOM     41  C   UNL     1      29.861  32.813  14.714  1.00  0.00     0.002 C 
ATOM     42  C   UNL     1      31.312  34.825  14.614  1.00  0.00     0.002 C 
ATOM     43  C   UNL     1      30.318  33.964  13.858  1.00  0.00     0.000 C 
ENDBRANCH  36  38
ENDBRANCH  32  33
ENDBRANCH  31  32
ENDBRANCH  28  31
ENDBRANCH   1  27
TORSDOF 15
BEGIN_RES LYS A 131
REMARK  4 active torsions:
REMARK  status: ('A' for Active; 'I' for Inactive)
REMARK    1  A    between atoms: CA   and  CB  
REMARK    2  A    between atoms: CB   and  CG  
REMARK    3  A    between atoms: CG   and  CD  
REMARK    4  A    between atoms: CD   and  CE  
ROOT
ATOM      1  CA  LYS A 131      29.867  25.555  16.977  1.00 20.52     0.186 C 
ENDROOT
BRANCH   1   2
ATOM      2  CB  LYS A 131      28.345  25.722  17.026  1.00 20.94     0.034 C 
BRANCH   2   3
ATOM      3  CG  LYS A 131      27.601  24.403  16.887  1.00 22.96     0.005 C 
BRANCH   3   4
ATOM      4  CD  LYS A 131      26.599  24.199  17.990  1.00 24.33     0.041 C 
BRANCH   4   5
ATOM      5  CE  LYS A 131      25.307  24.933  17.645  1.00 26.91     0.338 C 
ATOM      6  NZ  LYS A 131      24.402  24.053  16.867  1.00 27.40     0.618 N 
ENDBRANCH   4   5
ENDBRANCH   3   4
ENDBRANCH   2   3
ENDBRANCH   1   2
END_RES LYS A 131
BEGIN_RES LYS A 135
REMARK  4 active torsions:
REMARK  status: ('A' for Active; 'I' for Inactive)
REMARK    5  A    between atoms: CA   and  CB  
REMARK    6  A    between atoms: CB   and  CG  
REMARK    7  A    between atoms: CG   and  CD  
REMARK    8  A    between atoms: CD   and  CE  
ROOT
ATOM      7  CA  LYS A 135      33.193  34.663   9.290  1.00 25.02     0.186 C 
ENDROOT
BRANCH   7   8
ATOM      8  CB  LYS A 135      32.060  35.360  10.034  1.00 26.63     0.034 C 
BRANCH   8   9
ATOM      9  CG  LYS A 135      30.780  35.441   9.243  1.00 29.45     0.005 C 
BRANCH   9  10
ATOM     10  CD  LYS A 135      30.132  34.070   9.127  1.00 32.00     0.041 C 
BRANCH  10  11
ATOM     11  CE  LYS A 135      28.632  34.203   8.950  1.00 34.25     0.338 C 
ATOM     12  NZ  LYS A 135      28.304  35.053   7.773  1.00 35.99     0.618 N 
ENDBRANCH  10  11
ENDBRANCH   9  10
ENDBRANCH   8   9
ENDBRANCH   7   8
END_RES LYS A 135
