REMARK VINA RESULT:    -4.823      2.218      5.921
REMARK INTER + INTRA:         -14.311
REMARK INTER:                  -7.821
REMARK INTRA:                  -6.490
REMARK UNBOUND:                -5.118
REMARK SMILES COc1ccc(Cn2cc(COC(=O)NC[C@@H](O)C(O)[C@@H]3O[C@@](O)(C(=O)O)C[C@H](O)[C@H]3NC(C)=O)nn2)cc1OC
REMARK SMILES IDX 15 1 13 2 14 3 16 5 17 6 19 7 21 8 23 9 28 10 22 11 29 12
REMARK SMILES IDX 31 13 24 14 25 16 26 17 27 18 30 20 32 22 33 23 34 25 35 26
REMARK SMILES IDX 20 27 18 29 12 31 11 32 10 33 9 34 36 35 8 36 37 37 7 38
REMARK SMILES IDX 6 39 38 40 5 41 39 42 4 43 3 44 40 45 41 46 2 47 1 48
REMARK H PARENT 15 4 24 15 27 19 30 21 32 24 20 28 18 30
REMARK Flexibility Score: inf
ROOT
ATOM      1  N   UNL     1      26.925  32.958  17.828  1.00  0.00    -0.319 N 
ATOM      2  C   UNL     1      27.243  31.823  18.587  1.00  0.00     0.407 C 
ATOM      3  O   UNL     1      26.590  30.763  18.478  1.00  0.00    -0.225 OA
ATOM      4  H   UNL     1      27.524  33.824  17.988  1.00  0.00     0.167 HD
ENDROOT
BRANCH   1   5
ATOM      5  C   UNL     1      25.859  33.056  16.846  1.00  0.00     0.154 C 
BRANCH   5   6
ATOM      6  C   UNL     1      26.342  32.665  15.496  1.00  0.00     0.165 C 
BRANCH   6   7
ATOM      7  C   UNL     1      25.505  31.610  14.815  1.00  0.00     0.176 C 
BRANCH   7   8
ATOM      8  C   UNL     1      24.106  32.024  14.506  1.00  0.00     0.178 C 
ATOM      9  C   UNL     1      23.079  30.162  13.549  1.00  0.00     0.269 C 
ATOM     10  C   UNL     1      22.131  30.962  12.666  1.00  0.00     0.112 C 
ATOM     11  O   UNL     1      23.283  30.895  14.686  1.00  0.00    -0.332 OA
ATOM     12  C   UNL     1      22.308  32.424  12.956  1.00  0.00     0.145 C 
ATOM     13  C   UNL     1      23.818  32.745  13.260  1.00  0.00     0.142 C 
BRANCH   9  14
ATOM     14  O   UNL     1      24.234  29.810  12.858  1.00  0.00    -0.357 OA
ATOM     15  H   UNL     1      24.053  29.556  11.916  1.00  0.00     0.214 HD
ENDBRANCH   9  14
BRANCH   9  16
ATOM     16  C   UNL     1      22.414  28.885  13.940  1.00  0.00     0.364 C 
ATOM     17  O   UNL     1      21.374  28.534  13.334  1.00  0.00    -0.246 OA
BRANCH  16  18
ATOM     18  O   UNL     1      22.899  28.068  14.950  1.00  0.00    -0.477 OA
ATOM     19  H   UNL     1      22.279  27.626  15.641  1.00  0.00     0.296 HD
ENDBRANCH  16  18
ENDBRANCH   9  16
BRANCH  12  20
ATOM     20  O   UNL     1      21.897  33.227  11.898  1.00  0.00    -0.391 OA
ATOM     21  H   UNL     1      21.142  33.800  12.152  1.00  0.00     0.211 HD
ENDBRANCH  12  20
BRANCH  13  22
ATOM     22  N   UNL     1      23.786  34.200  13.464  1.00  0.00    -0.348 N 
ATOM     23  C   UNL     1      24.832  35.075  13.084  1.00  0.00     0.217 C 
ATOM     24  H   UNL     1      22.943  34.657  13.920  1.00  0.00     0.163 HD
ATOM     25  C   UNL     1      24.773  36.542  13.307  1.00  0.00     0.114 C 
ATOM     26  O   UNL     1      25.860  34.608  12.535  1.00  0.00    -0.275 OA
ENDBRANCH  13  22
ENDBRANCH   7   8
BRANCH   7  27
ATOM     27  O   UNL     1      25.362  30.520  15.767  1.00  0.00    -0.388 OA
ATOM     28  H   UNL     1      26.174  29.964  15.684  1.00  0.00     0.211 HD
ENDBRANCH   7  27
ENDBRANCH   6   7
BRANCH   6  29
ATOM     29  O   UNL     1      27.696  32.508  15.357  1.00  0.00    -0.388 OA
ATOM     30  H   UNL     1      28.022  32.609  14.443  1.00  0.00     0.211 HD
ENDBRANCH   6  29
ENDBRANCH   5   6
ENDBRANCH   1   5
BRANCH   2  31
ATOM     31  O   UNL     1      28.315  31.842  19.504  1.00  0.00    -0.443 OA
BRANCH  31  32
ATOM     32  C   UNL     1      29.488  31.084  19.171  1.00  0.00     0.294 C 
BRANCH  32  33
ATOM     33  C   UNL     1      30.041  31.492  17.882  1.00  0.00     0.120 A 
ATOM     34  C   UNL     1      30.759  32.632  17.623  1.00  0.00     0.138 A 
ATOM     35  N   UNL     1      29.943  30.808  16.732  1.00  0.00    -0.132 NA
ATOM     36  N   UNL     1      31.081  32.622  16.334  1.00  0.00    -0.248 N 
ATOM     37  N   UNL     1      30.583  31.520  15.813  1.00  0.00    -0.067 NA
BRANCH  36  38
ATOM     38  C   UNL     1      31.836  33.633  15.603  1.00  0.00     0.181 C 
BRANCH  38  39
ATOM     39  C   UNL     1      30.867  34.476  14.836  1.00  0.00    -0.023 A 
ATOM     40  C   UNL     1      30.375  35.646  15.414  1.00  0.00     0.056 A 
ATOM     41  C   UNL     1      30.441  34.151  13.566  1.00  0.00     0.010 A 
ATOM     42  C   UNL     1      29.491  36.453  14.741  1.00  0.00     0.161 A 
ATOM     43  C   UNL     1      29.553  34.942  12.864  1.00  0.00     0.051 A 
ATOM     44  C   UNL     1      29.091  36.087  13.469  1.00  0.00     0.160 A 
BRANCH  42  45
ATOM     45  O   UNL     1      28.991  37.623  15.306  1.00  0.00    -0.493 OA
ATOM     46  C   UNL     1      29.848  38.748  15.392  1.00  0.00     0.278 C 
ENDBRANCH  42  45
BRANCH  44  47
ATOM     47  O   UNL     1      28.199  36.908  12.798  1.00  0.00    -0.493 OA
ATOM     48  C   UNL     1      28.290  37.134  11.404  1.00  0.00     0.278 C 
ENDBRANCH  44  47
ENDBRANCH  38  39
ENDBRANCH  36  38
ENDBRANCH  32  33
ENDBRANCH  31  32
ENDBRANCH   2  31
TORSDOF 18
BEGIN_RES LYS A 131
REMARK  4 active torsions:
REMARK  status: ('A' for Active; 'I' for Inactive)
REMARK    1  A    between atoms: CA   and  CB  
REMARK    2  A    between atoms: CB   and  CG  
REMARK    3  A    between atoms: CG   and  CD  
REMARK    4  A    between atoms: CD   and  CE  
ROOT
ATOM      1  CA  LYS A 131      29.867  25.555  16.977  1.00 20.52     0.186 C 
ENDROOT
BRANCH   1   2
ATOM      2  CB  LYS A 131      28.345  25.722  17.026  1.00 20.94     0.034 C 
BRANCH   2   3
ATOM      3  CG  LYS A 131      27.601  24.402  16.893  1.00 22.96     0.005 C 
BRANCH   3   4
ATOM      4  CD  LYS A 131      26.212  24.475  17.464  1.00 24.33     0.041 C 
BRANCH   4   5
ATOM      5  CE  LYS A 131      26.098  25.695  18.372  1.00 26.91     0.338 C 
ATOM      6  NZ  LYS A 131      25.588  25.304  19.707  1.00 27.40     0.618 N 
ENDBRANCH   4   5
ENDBRANCH   3   4
ENDBRANCH   2   3
ENDBRANCH   1   2
END_RES LYS A 131
BEGIN_RES LYS A 135
REMARK  4 active torsions:
REMARK  status: ('A' for Active; 'I' for Inactive)
REMARK    5  A    between atoms: CA   and  CB  
REMARK    6  A    between atoms: CB   and  CG  
REMARK    7  A    between atoms: CG   and  CD  
REMARK    8  A    between atoms: CD   and  CE  
ROOT
ATOM      7  CA  LYS A 135      33.193  34.663   9.290  1.00 25.02     0.186 C 
ENDROOT
BRANCH   7   8
ATOM      8  CB  LYS A 135      32.060  35.360  10.034  1.00 26.63     0.034 C 
BRANCH   8   9
ATOM      9  CG  LYS A 135      30.800  35.498   9.219  1.00 29.45     0.005 C 
BRANCH   9  10
ATOM     10  CD  LYS A 135      30.124  34.147   9.043  1.00 32.00     0.041 C 
BRANCH  10  11
ATOM     11  CE  LYS A 135      28.667  34.327   8.662  1.00 34.25     0.338 C 
ATOM     12  NZ  LYS A 135      27.767  33.728   9.687  1.00 35.99     0.618 N 
ENDBRANCH  10  11
ENDBRANCH   9  10
ENDBRANCH   8   9
ENDBRANCH   7   8
END_RES LYS A 135
