REMARK VINA RESULT:    -5.100      3.197      8.055
REMARK INTER + INTRA:         -13.991
REMARK INTER:                  -8.895
REMARK INTRA:                  -5.095
REMARK UNBOUND:                -5.164
REMARK SMILES CC(=O)N[C@@H]1[C@@H](O)C[C@](O)(C(=O)O)O[C@H]1C(O)[C@H](O)CNC(=O)OCc1cn(-c2cccnc2)nn1
REMARK SMILES IDX 20 1 18 2 16 3 15 4 9 5 8 6 14 7 6 8 5 9 10 10 11 12 12 13
REMARK SMILES IDX 13 14 7 16 4 18 2 19 1 21 3 22 17 23 19 25 21 27 22 28 23 30
REMARK SMILES IDX 24 31 25 32 26 33 27 34 36 35 28 36 35 37 29 38 30 39 34 40
REMARK SMILES IDX 31 41 33 42 32 43
REMARK H PARENT 10 11 13 15 7 17 4 20 17 24 19 26 21 29
REMARK Flexibility Score: inf
ROOT
ATOM      1  C   UNL     1      29.800  31.152  15.954  1.00  0.00     0.154 C 
ENDROOT
BRANCH   1   2
ATOM      2  C   UNL     1      30.516  32.429  15.713  1.00  0.00     0.165 C 
BRANCH   2   3
ATOM      3  C   UNL     1      29.672  33.484  15.104  1.00  0.00     0.176 C 
BRANCH   3   4
ATOM      4  C   UNL     1      30.343  34.600  14.382  1.00  0.00     0.178 C 
ATOM      5  C   UNL     1      32.078  36.056  14.298  1.00  0.00     0.269 C 
ATOM      6  C   UNL     1      31.425  36.808  13.193  1.00  0.00     0.112 C 
ATOM      7  O   UNL     1      31.250  35.303  15.108  1.00  0.00    -0.332 OA
ATOM      8  C   UNL     1      30.211  36.197  12.586  1.00  0.00     0.145 C 
ATOM      9  C   UNL     1      29.368  35.522  13.706  1.00  0.00     0.142 C 
BRANCH   5  10
ATOM     10  O   UNL     1      32.626  37.059  15.160  1.00  0.00    -0.357 OA
ATOM     11  H   UNL     1      31.925  37.201  15.838  1.00  0.00     0.214 HD
ENDBRANCH   5  10
BRANCH   5  12
ATOM     12  C   UNL     1      33.236  35.252  13.846  1.00  0.00     0.364 C 
ATOM     13  O   UNL     1      34.073  34.839  14.687  1.00  0.00    -0.246 OA
BRANCH  12  14
ATOM     14  O   UNL     1      33.489  34.901  12.526  1.00  0.00    -0.477 OA
ATOM     15  H   UNL     1      34.159  35.497  12.026  1.00  0.00     0.296 HD
ENDBRANCH  12  14
ENDBRANCH   5  12
BRANCH   8  16
ATOM     16  O   UNL     1      29.374  37.177  12.049  1.00  0.00    -0.391 OA
ATOM     17  H   UNL     1      29.663  38.067  12.370  1.00  0.00     0.211 HD
ENDBRANCH   8  16
BRANCH   9  18
ATOM     18  N   UNL     1      28.387  34.732  13.011  1.00  0.00    -0.348 N 
ATOM     19  C   UNL     1      27.049  35.137  12.804  1.00  0.00     0.217 C 
ATOM     20  H   UNL     1      28.670  33.793  12.624  1.00  0.00     0.163 HD
ATOM     21  C   UNL     1      26.114  34.251  12.074  1.00  0.00     0.114 C 
ATOM     22  O   UNL     1      26.667  36.246  13.243  1.00  0.00    -0.275 OA
ENDBRANCH   9  18
ENDBRANCH   3   4
BRANCH   3  23
ATOM     23  O   UNL     1      28.574  33.850  15.858  1.00  0.00    -0.388 OA
ATOM     24  H   UNL     1      28.619  34.710  16.306  1.00  0.00     0.211 HD
ENDBRANCH   3  23
ENDBRANCH   2   3
BRANCH   2  25
ATOM     25  O   UNL     1      31.587  32.213  14.811  1.00  0.00    -0.388 OA
ATOM     26  H   UNL     1      32.035  33.074  14.690  1.00  0.00     0.211 HD
ENDBRANCH   2  25
ENDBRANCH   1   2
BRANCH   1  27
ATOM     27  N   UNL     1      29.748  30.683  17.307  1.00  0.00    -0.319 N 
ATOM     28  C   UNL     1      28.851  31.092  18.286  1.00  0.00     0.407 C 
ATOM     29  H   UNL     1      30.462  29.948  17.603  1.00  0.00     0.167 HD
ATOM     30  O   UNL     1      27.984  31.946  18.058  1.00  0.00    -0.225 OA
BRANCH  28  31
ATOM     31  O   UNL     1      28.859  30.575  19.593  1.00  0.00    -0.443 OA
BRANCH  31  32
ATOM     32  C   UNL     1      29.619  31.192  20.607  1.00  0.00     0.294 C 
BRANCH  32  33
ATOM     33  C   UNL     1      30.871  30.461  20.875  1.00  0.00     0.121 A 
ATOM     34  C   UNL     1      31.986  31.055  21.445  1.00  0.00     0.144 A 
ATOM     35  N   UNL     1      31.213  29.191  20.662  1.00  0.00    -0.131 NA
ATOM     36  N   UNL     1      32.956  30.131  21.557  1.00  0.00    -0.219 N 
ATOM     37  N   UNL     1      32.475  29.011  21.081  1.00  0.00    -0.062 NA
BRANCH  36  38
ATOM     38  C   UNL     1      34.270  30.317  22.092  1.00  0.00     0.085 A 
ATOM     39  C   UNL     1      34.993  31.470  21.844  1.00  0.00     0.031 A 
ATOM     40  C   UNL     1      34.841  29.332  22.874  1.00  0.00     0.139 A 
ATOM     41  C   UNL     1      36.272  31.606  22.389  1.00  0.00     0.022 A 
ATOM     42  N   UNL     1      36.090  29.491  23.392  1.00  0.00    -0.262 NA
ATOM     43  C   UNL     1      36.816  30.601  23.168  1.00  0.00     0.111 A 
ENDBRANCH  36  38
ENDBRANCH  32  33
ENDBRANCH  31  32
ENDBRANCH  28  31
ENDBRANCH   1  27
TORSDOF 15
BEGIN_RES LYS A 131
REMARK  4 active torsions:
REMARK  status: ('A' for Active; 'I' for Inactive)
REMARK    1  A    between atoms: CA   and  CB  
REMARK    2  A    between atoms: CB   and  CG  
REMARK    3  A    between atoms: CG   and  CD  
REMARK    4  A    between atoms: CD   and  CE  
ROOT
ATOM      1  CA  LYS A 131      29.867  25.555  16.977  1.00 20.52     0.186 C 
ENDROOT
BRANCH   1   2
ATOM      2  CB  LYS A 131      28.345  25.722  17.026  1.00 20.94     0.034 C 
BRANCH   2   3
ATOM      3  CG  LYS A 131      27.599  24.434  16.715  1.00 22.96     0.005 C 
BRANCH   3   4
ATOM      4  CD  LYS A 131      26.911  23.871  17.928  1.00 24.33     0.041 C 
BRANCH   4   5
ATOM      5  CE  LYS A 131      26.153  24.983  18.645  1.00 26.91     0.338 C 
ATOM      6  NZ  LYS A 131      25.486  24.456  19.860  1.00 27.40     0.618 N 
ENDBRANCH   4   5
ENDBRANCH   3   4
ENDBRANCH   2   3
ENDBRANCH   1   2
END_RES LYS A 131
BEGIN_RES LYS A 135
REMARK  4 active torsions:
REMARK  status: ('A' for Active; 'I' for Inactive)
REMARK    5  A    between atoms: CA   and  CB  
REMARK    6  A    between atoms: CB   and  CG  
REMARK    7  A    between atoms: CG   and  CD  
REMARK    8  A    between atoms: CD   and  CE  
ROOT
ATOM      7  CA  LYS A 135      33.193  34.663   9.290  1.00 25.02     0.186 C 
ENDROOT
BRANCH   7   8
ATOM      8  CB  LYS A 135      32.060  35.360  10.034  1.00 26.63     0.034 C 
BRANCH   8   9
ATOM      9  CG  LYS A 135      30.874  35.682   9.161  1.00 29.45     0.005 C 
BRANCH   9  10
ATOM     10  CD  LYS A 135      30.273  34.410   8.583  1.00 32.00     0.041 C 
BRANCH  10  11
ATOM     11  CE  LYS A 135      29.047  33.994   9.373  1.00 34.25     0.338 C 
ATOM     12  NZ  LYS A 135      27.795  34.387   8.669  1.00 35.99     0.618 N 
ENDBRANCH  10  11
ENDBRANCH   9  10
ENDBRANCH   8   9
ENDBRANCH   7   8
END_RES LYS A 135
