REMARK VINA RESULT:    -5.273      2.349      7.091
REMARK INTER + INTRA:         -14.848
REMARK INTER:                  -8.521
REMARK INTRA:                  -6.327
REMARK UNBOUND:                -5.414
REMARK SMILES CC(=O)N[C@@H]1[C@@H](O)C[C@](O)(C(=O)O)O[C@H]1C(O)[C@H](O)CNC(=O)OCc1cn(-c2ccccc2C(N)=O)nn1
REMARK SMILES IDX 21 1 22 2 23 3 20 5 18 6 16 7 15 8 9 9 8 10 14 11 6 12 5 13
REMARK SMILES IDX 10 14 11 16 12 17 13 18 7 20 4 22 2 23 1 25 3 26 17 27 19 29
REMARK SMILES IDX 24 31 25 32 26 33 27 34 39 35 28 36 38 37 29 38 34 39 30 40
REMARK SMILES IDX 33 41 31 42 32 43 35 44 37 45 36 46
REMARK H PARENT 21 4 10 15 13 19 7 21 4 24 17 28 19 30 36 47 36 48
REMARK Flexibility Score: inf
ROOT
ATOM      1  N   UNL     1      30.301  33.617  17.737  1.00  0.00    -0.319 N 
ATOM      2  C   UNL     1      31.238  34.130  18.672  1.00  0.00     0.407 C 
ATOM      3  O   UNL     1      32.244  34.729  18.252  1.00  0.00    -0.225 OA
ATOM      4  H   UNL     1      29.467  33.118  18.160  1.00  0.00     0.167 HD
ENDROOT
BRANCH   1   5
ATOM      5  C   UNL     1      30.418  33.735  16.304  1.00  0.00     0.154 C 
BRANCH   5   6
ATOM      6  C   UNL     1      30.161  32.418  15.591  1.00  0.00     0.165 C 
BRANCH   6   7
ATOM      7  C   UNL     1      29.369  31.467  16.437  1.00  0.00     0.176 C 
BRANCH   7   8
ATOM      8  C   UNL     1      27.995  31.200  15.953  1.00  0.00     0.178 C 
ATOM      9  C   UNL     1      26.020  32.395  15.569  1.00  0.00     0.269 C 
ATOM     10  C   UNL     1      25.612  31.092  14.948  1.00  0.00     0.112 C 
ATOM     11  O   UNL     1      27.316  32.447  15.975  1.00  0.00    -0.332 OA
ATOM     12  C   UNL     1      25.982  29.889  15.746  1.00  0.00     0.145 C 
ATOM     13  C   UNL     1      27.135  30.246  16.678  1.00  0.00     0.142 C 
BRANCH   9  14
ATOM     14  O   UNL     1      25.113  32.715  16.607  1.00  0.00    -0.357 OA
ATOM     15  H   UNL     1      25.583  32.550  17.476  1.00  0.00     0.214 HD
ENDBRANCH   9  14
BRANCH   9  16
ATOM     16  C   UNL     1      25.823  33.447  14.530  1.00  0.00     0.364 C 
ATOM     17  O   UNL     1      24.690  33.517  13.961  1.00  0.00    -0.246 OA
BRANCH  16  18
ATOM     18  O   UNL     1      26.797  34.345  14.153  1.00  0.00    -0.477 OA
ATOM     19  H   UNL     1      27.061  35.111  14.753  1.00  0.00     0.296 HD
ENDBRANCH  16  18
ENDBRANCH   9  16
BRANCH  12  20
ATOM     20  O   UNL     1      24.872  29.459  16.456  1.00  0.00    -0.391 OA
ATOM     21  H   UNL     1      24.320  30.198  16.815  1.00  0.00     0.211 HD
ENDBRANCH  12  20
BRANCH  13  22
ATOM     22  N   UNL     1      27.718  29.116  17.292  1.00  0.00    -0.348 N 
ATOM     23  C   UNL     1      27.273  28.622  18.536  1.00  0.00     0.217 C 
ATOM     24  H   UNL     1      28.488  28.594  16.829  1.00  0.00     0.163 HD
ATOM     25  C   UNL     1      27.845  27.445  19.223  1.00  0.00     0.114 C 
ATOM     26  O   UNL     1      26.328  29.221  19.096  1.00  0.00    -0.275 OA
ENDBRANCH  13  22
ENDBRANCH   7   8
BRANCH   7  27
ATOM     27  O   UNL     1      30.074  30.406  16.956  1.00  0.00    -0.388 OA
ATOM     28  H   UNL     1      29.444  29.761  17.398  1.00  0.00     0.211 HD
ENDBRANCH   7  27
ENDBRANCH   6   7
BRANCH   6  29
ATOM     29  O   UNL     1      31.287  31.908  15.009  1.00  0.00    -0.388 OA
ATOM     30  H   UNL     1      31.959  31.640  15.694  1.00  0.00     0.211 HD
ENDBRANCH   6  29
ENDBRANCH   5   6
ENDBRANCH   1   5
BRANCH   2  31
ATOM     31  O   UNL     1      31.071  33.989  20.044  1.00  0.00    -0.443 OA
BRANCH  31  32
ATOM     32  C   UNL     1      31.799  33.035  20.799  1.00  0.00     0.294 C 
BRANCH  32  33
ATOM     33  C   UNL     1      31.143  31.695  20.710  1.00  0.00     0.121 A 
ATOM     34  C   UNL     1      30.791  30.901  21.785  1.00  0.00     0.144 A 
ATOM     35  N   UNL     1      30.779  31.022  19.608  1.00  0.00    -0.131 NA
ATOM     36  N   UNL     1      30.220  29.765  21.284  1.00  0.00    -0.220 N 
ATOM     37  N   UNL     1      30.229  29.868  19.987  1.00  0.00    -0.062 NA
BRANCH  36  38
ATOM     38  C   UNL     1      29.726  28.679  22.077  1.00  0.00     0.079 A 
ATOM     39  C   UNL     1      30.436  27.512  22.240  1.00  0.00     0.065 A 
ATOM     40  C   UNL     1      28.488  28.831  22.691  1.00  0.00     0.029 A 
ATOM     41  C   UNL     1      29.887  26.498  23.030  1.00  0.00     0.016 A 
ATOM     42  C   UNL     1      27.964  27.823  23.463  1.00  0.00     0.002 A 
ATOM     43  C   UNL     1      28.672  26.661  23.625  1.00  0.00     0.001 A 
BRANCH  39  44
ATOM     44  C   UNL     1      31.737  27.289  21.627  1.00  0.00     0.250 C 
ATOM     45  O   UNL     1      32.751  27.275  22.397  1.00  0.00    -0.269 OA
ATOM     46  N   UNL     1      31.909  27.091  20.231  1.00  0.00    -0.366 N 
ATOM     47  H   UNL     1      31.616  26.224  19.753  1.00  0.00     0.159 HD
ATOM     48  H   UNL     1      32.368  27.888  19.695  1.00  0.00     0.159 HD
ENDBRANCH  39  44
ENDBRANCH  36  38
ENDBRANCH  32  33
ENDBRANCH  31  32
ENDBRANCH   2  31
TORSDOF 16
BEGIN_RES LYS A 131
REMARK  4 active torsions:
REMARK  status: ('A' for Active; 'I' for Inactive)
REMARK    1  A    between atoms: CA   and  CB  
REMARK    2  A    between atoms: CB   and  CG  
REMARK    3  A    between atoms: CG   and  CD  
REMARK    4  A    between atoms: CD   and  CE  
ROOT
ATOM      1  CA  LYS A 131      29.867  25.555  16.977  1.00 20.52     0.186 C 
ENDROOT
BRANCH   1   2
ATOM      2  CB  LYS A 131      28.345  25.722  17.026  1.00 20.94     0.034 C 
BRANCH   2   3
ATOM      3  CG  LYS A 131      27.599  24.434  16.712  1.00 22.96     0.005 C 
BRANCH   3   4
ATOM      4  CD  LYS A 131      26.991  23.818  17.942  1.00 24.33     0.041 C 
BRANCH   4   5
ATOM      5  CE  LYS A 131      25.522  23.503  17.680  1.00 26.91     0.338 C 
ATOM      6  NZ  LYS A 131      24.838  24.676  17.086  1.00 27.40     0.618 N 
ENDBRANCH   4   5
ENDBRANCH   3   4
ENDBRANCH   2   3
ENDBRANCH   1   2
END_RES LYS A 131
BEGIN_RES LYS A 135
REMARK  4 active torsions:
REMARK  status: ('A' for Active; 'I' for Inactive)
REMARK    5  A    between atoms: CA   and  CB  
REMARK    6  A    between atoms: CB   and  CG  
REMARK    7  A    between atoms: CG   and  CD  
REMARK    8  A    between atoms: CD   and  CE  
ROOT
ATOM      7  CA  LYS A 135      33.193  34.663   9.290  1.00 25.02     0.186 C 
ENDROOT
BRANCH   7   8
ATOM      8  CB  LYS A 135      32.060  35.360  10.034  1.00 26.63     0.034 C 
BRANCH   8   9
ATOM      9  CG  LYS A 135      30.791  35.473   9.230  1.00 29.45     0.005 C 
BRANCH   9  10
ATOM     10  CD  LYS A 135      30.196  34.097   8.969  1.00 32.00     0.041 C 
BRANCH  10  11
ATOM     11  CE  LYS A 135      28.719  34.081   9.314  1.00 34.25     0.338 C 
ATOM     12  NZ  LYS A 135      28.498  34.438  10.743  1.00 35.99     0.618 N 
ENDBRANCH  10  11
ENDBRANCH   9  10
ENDBRANCH   8   9
ENDBRANCH   7   8
END_RES LYS A 135
