REMARK VINA RESULT:    -4.411      2.026      4.980
REMARK INTER + INTRA:         -13.923
REMARK INTER:                  -9.211
REMARK INTRA:                  -4.712
REMARK UNBOUND:                -5.644
REMARK SMILES CC(=O)N[C@@H]1[C@@H](O)C[C@](O)(C(=O)O)O[C@H]1C(O)[C@H](O)CNC(=O)OCc1cn(CCC(=O)O)nn1
REMARK SMILES IDX 21 1 22 2 23 3 20 5 18 6 16 7 15 8 9 9 8 10 14 11 6 12 5 13
REMARK SMILES IDX 10 14 11 16 12 17 13 18 7 20 4 22 2 23 1 25 3 26 17 27 19 29
REMARK SMILES IDX 24 31 25 32 26 33 27 34 35 35 28 36 34 37 29 38 30 39 31 40
REMARK SMILES IDX 32 41 33 42
REMARK H PARENT 21 4 10 15 13 19 7 21 4 24 17 28 19 30 33 43
REMARK Flexibility Score: inf
ROOT
ATOM      1  N   UNL     1      29.398  27.001  20.343  1.00  0.00    -0.319 N 
ATOM      2  C   UNL     1      28.094  27.395  20.737  1.00  0.00     0.407 C 
ATOM      3  O   UNL     1      27.825  27.664  21.946  1.00  0.00    -0.225 OA
ATOM      4  H   UNL     1      29.579  26.790  19.343  1.00  0.00     0.167 HD
ENDROOT
BRANCH   1   5
ATOM      5  C   UNL     1      30.476  26.884  21.295  1.00  0.00     0.154 C 
BRANCH   5   6
ATOM      6  C   UNL     1      31.650  27.776  20.996  1.00  0.00     0.165 C 
BRANCH   6   7
ATOM      7  C   UNL     1      31.215  29.238  20.896  1.00  0.00     0.176 C 
BRANCH   7   8
ATOM      8  C   UNL     1      32.355  30.146  21.322  1.00  0.00     0.178 C 
ATOM      9  C   UNL     1      34.071  30.021  22.901  1.00  0.00     0.269 C 
ATOM     10  C   UNL     1      34.235  31.514  22.836  1.00  0.00     0.112 C 
ATOM     11  O   UNL     1      33.431  29.478  21.810  1.00  0.00    -0.332 OA
ATOM     12  C   UNL     1      33.080  32.251  22.258  1.00  0.00     0.145 C 
ATOM     13  C   UNL     1      31.894  31.275  22.205  1.00  0.00     0.142 C 
BRANCH   9  14
ATOM     14  O   UNL     1      33.451  29.700  24.104  1.00  0.00    -0.357 OA
ATOM     15  H   UNL     1      33.911  28.880  24.435  1.00  0.00     0.214 HD
ENDBRANCH   9  14
BRANCH   9  16
ATOM     16  C   UNL     1      35.435  29.447  22.930  1.00  0.00     0.364 C 
ATOM     17  O   UNL     1      36.477  30.137  22.949  1.00  0.00    -0.246 OA
BRANCH  16  18
ATOM     18  O   UNL     1      35.587  28.072  22.936  1.00  0.00    -0.477 OA
ATOM     19  H   UNL     1      36.249  27.584  23.527  1.00  0.00     0.296 HD
ENDBRANCH  16  18
ENDBRANCH   9  16
BRANCH  12  20
ATOM     20  O   UNL     1      32.740  33.392  22.978  1.00  0.00    -0.391 OA
ATOM     21  H   UNL     1      31.754  33.530  23.021  1.00  0.00     0.211 HD
ENDBRANCH  12  20
BRANCH  13  22
ATOM     22  N   UNL     1      30.722  31.936  21.665  1.00  0.00    -0.348 N 
ATOM     23  C   UNL     1      30.837  32.804  20.543  1.00  0.00     0.217 C 
ATOM     24  H   UNL     1      29.767  31.805  22.073  1.00  0.00     0.163 HD
ATOM     25  C   UNL     1      29.652  33.510  19.950  1.00  0.00     0.114 C 
ATOM     26  O   UNL     1      31.973  33.004  20.005  1.00  0.00    -0.275 OA
ENDBRANCH  13  22
ENDBRANCH   7   8
BRANCH   7  27
ATOM     27  O   UNL     1      30.896  29.501  19.567  1.00  0.00    -0.388 OA
ATOM     28  H   UNL     1      31.626  29.240  18.942  1.00  0.00     0.211 HD
ENDBRANCH   7  27
ENDBRANCH   6   7
BRANCH   6  29
ATOM     29  O   UNL     1      32.193  27.347  19.782  1.00  0.00    -0.388 OA
ATOM     30  H   UNL     1      33.102  27.727  19.690  1.00  0.00     0.211 HD
ENDBRANCH   6  29
ENDBRANCH   5   6
ENDBRANCH   1   5
BRANCH   2  31
ATOM     31  O   UNL     1      27.105  27.487  19.784  1.00  0.00    -0.443 OA
BRANCH  31  32
ATOM     32  C   UNL     1      26.539  28.715  19.362  1.00  0.00     0.294 C 
BRANCH  32  33
ATOM     33  C   UNL     1      27.210  29.187  18.104  1.00  0.00     0.120 A 
ATOM     34  C   UNL     1      27.913  30.350  17.929  1.00  0.00     0.138 A 
ATOM     35  N   UNL     1      27.212  28.526  16.930  1.00  0.00    -0.132 NA
ATOM     36  N   UNL     1      28.334  30.371  16.641  1.00  0.00    -0.252 N 
ATOM     37  N   UNL     1      27.895  29.259  16.066  1.00  0.00    -0.067 NA
BRANCH  36  38
ATOM     38  C   UNL     1      29.118  31.440  16.061  1.00  0.00     0.158 C 
BRANCH  38  39
ATOM     39  C   UNL     1      30.431  31.525  16.835  1.00  0.00     0.146 C 
BRANCH  39  40
ATOM     40  C   UNL     1      31.279  32.531  16.127  1.00  0.00     0.305 C 
ATOM     41  O   UNL     1      31.680  33.574  16.660  1.00  0.00    -0.252 OA
BRANCH  40  42
ATOM     42  O   UNL     1      31.611  32.243  14.803  1.00  0.00    -0.481 OA
ATOM     43  H   UNL     1      31.100  32.693  14.046  1.00  0.00     0.296 HD
ENDBRANCH  40  42
ENDBRANCH  39  40
ENDBRANCH  38  39
ENDBRANCH  36  38
ENDBRANCH  32  33
ENDBRANCH  31  32
ENDBRANCH   2  31
TORSDOF 18
BEGIN_RES LYS A 131
REMARK  4 active torsions:
REMARK  status: ('A' for Active; 'I' for Inactive)
REMARK    1  A    between atoms: CA   and  CB  
REMARK    2  A    between atoms: CB   and  CG  
REMARK    3  A    between atoms: CG   and  CD  
REMARK    4  A    between atoms: CD   and  CE  
ROOT
ATOM      1  CA  LYS A 131      29.867  25.555  16.977  1.00 20.52     0.186 C 
ENDROOT
BRANCH   1   2
ATOM      2  CB  LYS A 131      28.345  25.722  17.026  1.00 20.94     0.034 C 
BRANCH   2   3
ATOM      3  CG  LYS A 131      27.603  24.396  16.968  1.00 22.96     0.005 C 
BRANCH   3   4
ATOM      4  CD  LYS A 131      26.201  24.507  17.501  1.00 24.33     0.041 C 
BRANCH   4   5
ATOM      5  CE  LYS A 131      25.800  23.189  18.155  1.00 26.91     0.338 C 
ATOM      6  NZ  LYS A 131      24.673  22.567  17.421  1.00 27.40     0.618 N 
ENDBRANCH   4   5
ENDBRANCH   3   4
ENDBRANCH   2   3
ENDBRANCH   1   2
END_RES LYS A 131
BEGIN_RES LYS A 135
REMARK  4 active torsions:
REMARK  status: ('A' for Active; 'I' for Inactive)
REMARK    5  A    between atoms: CA   and  CB  
REMARK    6  A    between atoms: CB   and  CG  
REMARK    7  A    between atoms: CG   and  CD  
REMARK    8  A    between atoms: CD   and  CE  
ROOT
ATOM      7  CA  LYS A 135      33.193  34.663   9.290  1.00 25.02     0.186 C 
ENDROOT
BRANCH   7   8
ATOM      8  CB  LYS A 135      32.060  35.360  10.034  1.00 26.63     0.034 C 
BRANCH   8   9
ATOM      9  CG  LYS A 135      30.728  34.670   9.887  1.00 29.45     0.005 C 
BRANCH   9  10
ATOM     10  CD  LYS A 135      30.347  34.547   8.420  1.00 32.00     0.041 C 
BRANCH  10  11
ATOM     11  CE  LYS A 135      28.840  34.592   8.256  1.00 34.25     0.338 C 
ATOM     12  NZ  LYS A 135      28.157  33.900   9.385  1.00 35.99     0.618 N 
ENDBRANCH  10  11
ENDBRANCH   9  10
ENDBRANCH   8   9
ENDBRANCH   7   8
END_RES LYS A 135
