REMARK VINA RESULT:    -4.971      7.628     12.839
REMARK INTER + INTRA:         -13.877
REMARK INTER:                  -9.257
REMARK INTRA:                  -4.620
REMARK UNBOUND:                -5.272
REMARK SMILES CC(=O)N[C@@H]1[C@@H](O)C[C@](O)(C(=O)O)O[C@H]1C(O)[C@H](O)CNC(=O)OCc1cn(-c2ccncc2)nn1
REMARK SMILES IDX 20 1 18 2 16 3 15 4 9 5 8 6 14 7 6 8 5 9 10 10 11 12 12 13
REMARK SMILES IDX 13 14 7 16 4 18 2 19 1 21 3 22 17 23 19 25 21 27 22 28 23 30
REMARK SMILES IDX 24 31 25 32 26 33 27 34 36 35 28 36 35 37 29 38 30 39 34 40
REMARK SMILES IDX 31 41 33 42 32 43
REMARK H PARENT 10 11 13 15 7 17 4 20 17 24 19 26 21 29
REMARK Flexibility Score: inf
ROOT
ATOM      1  C   UNL     1      23.564  38.312   9.277  1.00  0.00     0.154 C 
ENDROOT
BRANCH   1   2
ATOM      2  C   UNL     1      23.911  37.478   8.095  1.00  0.00     0.165 C 
BRANCH   2   3
ATOM      3  C   UNL     1      25.277  37.815   7.521  1.00  0.00     0.176 C 
BRANCH   3   4
ATOM      4  C   UNL     1      26.260  36.706   7.632  1.00  0.00     0.178 C 
ATOM      5  C   UNL     1      27.838  35.716   8.994  1.00  0.00     0.269 C 
ATOM      6  C   UNL     1      28.078  34.829   7.798  1.00  0.00     0.112 C 
ATOM      7  O   UNL     1      26.693  36.460   8.905  1.00  0.00    -0.332 OA
ATOM      8  C   UNL     1      28.101  35.592   6.502  1.00  0.00     0.145 C 
ATOM      9  C   UNL     1      27.483  36.952   6.764  1.00  0.00     0.142 C 
BRANCH   5  10
ATOM     10  O   UNL     1      28.947  36.512   9.281  1.00  0.00    -0.357 OA
ATOM     11  H   UNL     1      28.736  37.211   9.956  1.00  0.00     0.214 HD
ENDBRANCH   5  10
BRANCH   5  12
ATOM     12  C   UNL     1      27.673  34.796  10.173  1.00  0.00     0.364 C 
ATOM     13  O   UNL     1      26.598  34.251  10.468  1.00  0.00    -0.246 OA
BRANCH  12  14
ATOM     14  O   UNL     1      28.817  34.581  10.936  1.00  0.00    -0.477 OA
ATOM     15  H   UNL     1      29.052  35.212  11.698  1.00  0.00     0.296 HD
ENDBRANCH  12  14
ENDBRANCH   5  12
BRANCH   8  16
ATOM     16  O   UNL     1      29.395  35.736   6.003  1.00  0.00    -0.391 OA
ATOM     17  H   UNL     1      29.486  35.214   5.170  1.00  0.00     0.211 HD
ENDBRANCH   8  16
BRANCH   9  18
ATOM     18  N   UNL     1      27.150  37.635   5.536  1.00  0.00    -0.348 N 
ATOM     19  C   UNL     1      27.684  38.921   5.249  1.00  0.00     0.217 C 
ATOM     20  H   UNL     1      26.517  37.212   4.833  1.00  0.00     0.163 HD
ATOM     21  C   UNL     1      27.360  39.656   3.986  1.00  0.00     0.114 C 
ATOM     22  O   UNL     1      28.455  39.457   6.085  1.00  0.00    -0.275 OA
ENDBRANCH   9  18
ENDBRANCH   3   4
BRANCH   3  23
ATOM     23  O   UNL     1      25.702  39.049   7.943  1.00  0.00    -0.388 OA
ATOM     24  H   UNL     1      26.255  38.939   8.763  1.00  0.00     0.211 HD
ENDBRANCH   3  23
ENDBRANCH   2   3
BRANCH   2  25
ATOM     25  O   UNL     1      23.018  37.620   7.048  1.00  0.00    -0.388 OA
ATOM     26  H   UNL     1      23.447  37.747   6.172  1.00  0.00     0.211 HD
ENDBRANCH   2  25
ENDBRANCH   1   2
BRANCH   1  27
ATOM     27  N   UNL     1      24.530  38.156  10.327  1.00  0.00    -0.319 N 
ATOM     28  C   UNL     1      24.551  37.194  11.345  1.00  0.00     0.407 C 
ATOM     29  H   UNL     1      25.349  38.856  10.353  1.00  0.00     0.167 HD
ATOM     30  O   UNL     1      23.666  36.342  11.431  1.00  0.00    -0.225 OA
BRANCH  28  31
ATOM     31  O   UNL     1      25.569  37.142  12.317  1.00  0.00    -0.443 OA
BRANCH  31  32
ATOM     32  C   UNL     1      25.490  36.161  13.357  1.00  0.00     0.294 C 
BRANCH  32  33
ATOM     33  C   UNL     1      26.815  35.623  13.678  1.00  0.00     0.121 A 
ATOM     34  C   UNL     1      27.154  34.475  14.357  1.00  0.00     0.144 A 
ATOM     35  N   UNL     1      27.984  36.204  13.335  1.00  0.00    -0.131 NA
ATOM     36  N   UNL     1      28.505  34.417  14.392  1.00  0.00    -0.220 N 
ATOM     37  N   UNL     1      28.995  35.462  13.774  1.00  0.00    -0.062 NA
BRANCH  36  38
ATOM     38  C   UNL     1      29.299  33.395  14.997  1.00  0.00     0.069 A 
ATOM     39  C   UNL     1      28.665  32.316  15.564  1.00  0.00     0.048 A 
ATOM     40  C   UNL     1      30.685  33.496  15.009  1.00  0.00     0.048 A 
ATOM     41  C   UNL     1      29.446  31.339  16.143  1.00  0.00     0.113 A 
ATOM     42  C   UNL     1      31.415  32.502  15.594  1.00  0.00     0.113 A 
ATOM     43  N   UNL     1      30.781  31.447  16.147  1.00  0.00    -0.265 NA
ENDBRANCH  36  38
ENDBRANCH  32  33
ENDBRANCH  31  32
ENDBRANCH  28  31
ENDBRANCH   1  27
TORSDOF 15
BEGIN_RES LYS A 131
REMARK  4 active torsions:
REMARK  status: ('A' for Active; 'I' for Inactive)
REMARK    1  A    between atoms: CA   and  CB  
REMARK    2  A    between atoms: CB   and  CG  
REMARK    3  A    between atoms: CG   and  CD  
REMARK    4  A    between atoms: CD   and  CE  
ROOT
ATOM      1  CA  LYS A 131      29.867  25.555  16.977  1.00 20.52     0.186 C 
ENDROOT
BRANCH   1   2
ATOM      2  CB  LYS A 131      28.345  25.722  17.026  1.00 20.94     0.034 C 
BRANCH   2   3
ATOM      3  CG  LYS A 131      27.601  24.402  16.892  1.00 22.96     0.005 C 
BRANCH   3   4
ATOM      4  CD  LYS A 131      26.469  24.287  17.875  1.00 24.33     0.041 C 
BRANCH   4   5
ATOM      5  CE  LYS A 131      25.697  22.998  17.614  1.00 26.91     0.338 C 
ATOM      6  NZ  LYS A 131      24.915  22.611  18.811  1.00 27.40     0.618 N 
ENDBRANCH   4   5
ENDBRANCH   3   4
ENDBRANCH   2   3
ENDBRANCH   1   2
END_RES LYS A 131
BEGIN_RES LYS A 135
REMARK  4 active torsions:
REMARK  status: ('A' for Active; 'I' for Inactive)
REMARK    5  A    between atoms: CA   and  CB  
REMARK    6  A    between atoms: CB   and  CG  
REMARK    7  A    between atoms: CG   and  CD  
REMARK    8  A    between atoms: CD   and  CE  
ROOT
ATOM      7  CA  LYS A 135      33.193  34.663   9.290  1.00 25.02     0.186 C 
ENDROOT
BRANCH   7   8
ATOM      8  CB  LYS A 135      32.060  35.360  10.034  1.00 26.63     0.034 C 
BRANCH   8   9
ATOM      9  CG  LYS A 135      32.254  35.399  11.528  1.00 29.45     0.005 C 
BRANCH   9  10
ATOM     10  CD  LYS A 135      32.193  36.830  12.040  1.00 32.00     0.041 C 
BRANCH  10  11
ATOM     11  CE  LYS A 135      31.857  37.785  10.911  1.00 34.25     0.338 C 
ATOM     12  NZ  LYS A 135      31.434  39.112  11.439  1.00 35.99     0.618 N 
ENDBRANCH  10  11
ENDBRANCH   9  10
ENDBRANCH   8   9
ENDBRANCH   7   8
END_RES LYS A 135
