REMARK VINA RESULT:    -5.429      4.792      9.635
REMARK INTER + INTRA:         -17.908
REMARK INTER:                 -10.475
REMARK INTRA:                  -7.432
REMARK UNBOUND:                -7.717
REMARK SMILES CC(=O)N[C@@H]1[C@@H](O)C[C@](O)(C(=O)O)O[C@H]1C(O)[C@H](O)CNC(=O)OCc1cn(-c2ccc(-c3c4ccc(=O)cc-4oc4cc(O)ccc34)c(C(=O)[O-])c2)nn1
REMARK SMILES IDX 21 1 22 2 23 3 20 5 18 6 16 7 15 8 9 9 8 10 14 11 6 12 5 13
REMARK SMILES IDX 10 14 11 16 12 17 13 18 7 20 4 22 2 23 1 25 3 26 17 27 19 29
REMARK SMILES IDX 24 31 25 32 26 33 27 34 55 35 28 36 54 37 29 38 53 39 30 40
REMARK SMILES IDX 49 41 31 42 32 43 50 44 51 45 52 46 33 47 48 48 34 49 47 50
REMARK SMILES IDX 42 51 40 52 35 53 46 54 43 55 41 56 39 57 36 58 44 59 37 60
REMARK SMILES IDX 38 61 45 62
REMARK H PARENT 21 4 10 15 13 19 7 21 4 24 17 28 19 30 45 63
REMARK Flexibility Score: inf
ROOT
ATOM      1  N   UNL     1      25.359  40.107   5.979  1.00  0.00    -0.319 N 
ATOM      2  C   UNL     1      25.050  40.498   7.327  1.00  0.00     0.407 C 
ATOM      3  O   UNL     1      25.957  41.097   7.967  1.00  0.00    -0.225 OA
ATOM      4  H   UNL     1      24.652  39.611   5.407  1.00  0.00     0.167 HD
ENDROOT
BRANCH   1   5
ATOM      5  C   UNL     1      26.649  40.390   5.397  1.00  0.00     0.154 C 
BRANCH   5   6
ATOM      6  C   UNL     1      27.588  39.274   5.715  1.00  0.00     0.165 C 
BRANCH   6   7
ATOM      7  C   UNL     1      29.021  39.594   5.293  1.00  0.00     0.176 C 
BRANCH   7   8
ATOM      8  C   UNL     1      30.004  39.116   6.349  1.00  0.00     0.178 C 
ATOM      9  C   UNL     1      29.649  39.741   8.565  1.00  0.00     0.269 C 
ATOM     10  C   UNL     1      31.110  39.559   8.914  1.00  0.00     0.112 C 
ATOM     11  O   UNL     1      29.312  38.929   7.512  1.00  0.00    -0.332 OA
ATOM     12  C   UNL     1      31.974  39.810   7.731  1.00  0.00     0.145 C 
ATOM     13  C   UNL     1      31.207  39.988   6.444  1.00  0.00     0.142 C 
BRANCH   9  14
ATOM     14  O   UNL     1      29.435  41.078   8.347  1.00  0.00    -0.357 OA
ATOM     15  H   UNL     1      28.525  41.308   8.088  1.00  0.00     0.214 HD
ENDBRANCH   9  14
BRANCH   9  16
ATOM     16  C   UNL     1      28.869  39.299   9.746  1.00  0.00     0.364 C 
ATOM     17  O   UNL     1      29.370  38.484  10.560  1.00  0.00    -0.246 OA
BRANCH  16  18
ATOM     18  O   UNL     1      27.584  39.744  10.011  1.00  0.00    -0.477 OA
ATOM     19  H   UNL     1      27.410  40.567  10.607  1.00  0.00     0.296 HD
ENDBRANCH  16  18
ENDBRANCH   9  16
BRANCH  12  20
ATOM     20  O   UNL     1      32.785  40.929   7.904  1.00  0.00    -0.391 OA
ATOM     21  H   UNL     1      33.535  40.780   8.522  1.00  0.00     0.211 HD
ENDBRANCH  12  20
BRANCH  13  22
ATOM     22  N   UNL     1      32.153  39.664   5.367  1.00  0.00    -0.348 N 
ATOM     23  C   UNL     1      32.517  40.569   4.354  1.00  0.00     0.217 C 
ATOM     24  H   UNL     1      32.566  38.704   5.376  1.00  0.00     0.163 HD
ATOM     25  C   UNL     1      33.478  40.168   3.301  1.00  0.00     0.114 C 
ATOM     26  O   UNL     1      31.982  41.725   4.399  1.00  0.00    -0.275 OA
ENDBRANCH  13  22
ENDBRANCH   7   8
BRANCH   7  27
ATOM     27  O   UNL     1      29.075  40.986   5.153  1.00  0.00    -0.388 OA
ATOM     28  H   UNL     1      28.132  41.301   5.124  1.00  0.00     0.211 HD
ENDBRANCH   7  27
ENDBRANCH   6   7
BRANCH   6  29
ATOM     29  O   UNL     1      27.168  38.067   5.162  1.00  0.00    -0.388 OA
ATOM     30  H   UNL     1      27.837  37.680   4.548  1.00  0.00     0.211 HD
ENDBRANCH   6  29
ENDBRANCH   5   6
ENDBRANCH   1   5
BRANCH   2  31
ATOM     31  O   UNL     1      23.847  40.253   7.919  1.00  0.00    -0.443 OA
BRANCH  31  32
ATOM     32  C   UNL     1      23.308  38.954   7.990  1.00  0.00     0.294 C 
BRANCH  32  33
ATOM     33  C   UNL     1      24.378  38.013   8.373  1.00  0.00     0.121 A 
ATOM     34  C   UNL     1      24.820  37.723   9.666  1.00  0.00     0.144 A 
ATOM     35  N   UNL     1      25.139  37.262   7.564  1.00  0.00    -0.131 NA
ATOM     36  N   UNL     1      25.815  36.820   9.591  1.00  0.00    -0.220 N 
ATOM     37  N   UNL     1      25.983  36.563   8.311  1.00  0.00    -0.062 NA
BRANCH  36  38
ATOM     38  C   UNL     1      26.498  36.305  10.722  1.00  0.00     0.067 A 
ATOM     39  C   UNL     1      26.705  36.983  11.886  1.00  0.00     0.039 A 
ATOM     40  C   UNL     1      27.003  35.004  10.640  1.00  0.00     0.029 A 
ATOM     41  C   UNL     1      27.385  36.437  12.971  1.00  0.00     0.007 A 
ATOM     42  C   UNL     1      27.674  34.446  11.694  1.00  0.00     0.012 A 
ATOM     43  C   UNL     1      27.866  35.169  12.870  1.00  0.00    -0.008 A 
BRANCH  41  44
ATOM     44  C   UNL     1      27.586  37.195  14.204  1.00  0.00     0.072 C 
ATOM     45  O   UNL     1      28.617  37.920  14.370  1.00  0.00    -0.545 OA
ATOM     46  O   UNL     1      26.661  37.139  15.211  1.00  0.00    -0.545 OA
ENDBRANCH  41  44
BRANCH  43  47
ATOM     47  C   UNL     1      28.592  34.488  13.930  1.00  0.00     0.004 A 
ATOM     48  C   UNL     1      27.999  33.737  14.922  1.00  0.00     0.026 A 
ATOM     49  C   UNL     1      29.973  34.592  13.953  1.00  0.00     0.026 A 
ATOM     50  C   UNL     1      26.624  33.610  14.933  1.00  0.00     0.016 A 
ATOM     51  C   UNL     1      28.749  33.107  15.907  1.00  0.00     0.139 A 
ATOM     52  C   UNL     1      30.713  33.914  15.005  1.00  0.00     0.139 A 
ATOM     53  C   UNL     1      30.663  35.319  13.009  1.00  0.00     0.016 A 
ATOM     54  C   UNL     1      25.981  32.863  15.910  1.00  0.00     0.047 A 
ATOM     55  C   UNL     1      28.141  32.360  16.890  1.00  0.00     0.093 A 
ATOM     56  O   UNL     1      30.056  33.209  15.924  1.00  0.00    -0.456 OA
ATOM     57  C   UNL     1      32.073  34.010  15.035  1.00  0.00     0.099 A 
ATOM     58  C   UNL     1      32.026  35.385  13.082  1.00  0.00     0.053 A 
ATOM     59  C   UNL     1      26.753  32.249  16.876  1.00  0.00     0.119 A 
ATOM     60  C   UNL     1      32.743  34.742  14.080  1.00  0.00     0.182 A 
ATOM     61  O   UNL     1      33.999  34.834  14.103  1.00  0.00    -0.290 OA
BRANCH  59  62
ATOM     62  O   UNL     1      26.120  31.504  17.857  1.00  0.00    -0.508 OA
ATOM     63  H   UNL     1      25.573  31.897  18.600  1.00  0.00     0.293 HD
ENDBRANCH  59  62
ENDBRANCH  43  47
ENDBRANCH  36  38
ENDBRANCH  32  33
ENDBRANCH  31  32
ENDBRANCH   2  31
TORSDOF 18
BEGIN_RES LYS A 131
REMARK  4 active torsions:
REMARK  status: ('A' for Active; 'I' for Inactive)
REMARK    1  A    between atoms: CA   and  CB  
REMARK    2  A    between atoms: CB   and  CG  
REMARK    3  A    between atoms: CG   and  CD  
REMARK    4  A    between atoms: CD   and  CE  
ROOT
ATOM      1  CA  LYS A 131      29.867  25.555  16.977  1.00 20.52     0.186 C 
ENDROOT
BRANCH   1   2
ATOM      2  CB  LYS A 131      28.345  25.722  17.026  1.00 20.94     0.034 C 
BRANCH   2   3
ATOM      3  CG  LYS A 131      27.600  24.408  16.848  1.00 22.96     0.005 C 
BRANCH   3   4
ATOM      4  CD  LYS A 131      26.620  24.157  17.960  1.00 24.33     0.041 C 
BRANCH   4   5
ATOM      5  CE  LYS A 131      25.759  22.946  17.616  1.00 26.91     0.338 C 
ATOM      6  NZ  LYS A 131      24.675  22.780  18.613  1.00 27.40     0.618 N 
ENDBRANCH   4   5
ENDBRANCH   3   4
ENDBRANCH   2   3
ENDBRANCH   1   2
END_RES LYS A 131
BEGIN_RES LYS A 135
REMARK  4 active torsions:
REMARK  status: ('A' for Active; 'I' for Inactive)
REMARK    5  A    between atoms: CA   and  CB  
REMARK    6  A    between atoms: CB   and  CG  
REMARK    7  A    between atoms: CG   and  CD  
REMARK    8  A    between atoms: CD   and  CE  
ROOT
ATOM      7  CA  LYS A 135      33.193  34.663   9.290  1.00 25.02     0.186 C 
ENDROOT
BRANCH   7   8
ATOM      8  CB  LYS A 135      32.060  35.360  10.034  1.00 26.63     0.034 C 
BRANCH   8   9
ATOM      9  CG  LYS A 135      30.879  35.692   9.159  1.00 29.45     0.005 C 
BRANCH   9  10
ATOM     10  CD  LYS A 135      30.391  34.454   8.423  1.00 32.00     0.041 C 
BRANCH  10  11
ATOM     11  CE  LYS A 135      28.987  34.669   7.891  1.00 34.25     0.338 C 
ATOM     12  NZ  LYS A 135      28.999  35.531   6.677  1.00 35.99     0.618 N 
ENDBRANCH  10  11
ENDBRANCH   9  10
ENDBRANCH   8   9
ENDBRANCH   7   8
END_RES LYS A 135
