REMARK VINA RESULT:    -4.952      3.817      8.886
REMARK INTER + INTRA:         -15.846
REMARK INTER:                  -8.800
REMARK INTRA:                  -7.046
REMARK UNBOUND:                -6.408
REMARK SMILES CC(=O)N[C@@H]1[C@@H](O)C[C@](O)(C(=O)O)O[C@H]1C(O)[C@H](O)CNC(=O)OCc1cn(-c2ccc(S(=O)(=O)Nc3nccs3)cc2)nn1
REMARK SMILES IDX 21 1 22 2 23 3 20 5 18 6 16 7 15 8 9 9 8 10 14 11 6 12 5 13
REMARK SMILES IDX 10 14 11 16 12 17 13 18 7 20 4 22 2 23 1 25 3 26 17 27 19 29
REMARK SMILES IDX 24 31 25 32 26 33 27 34 45 35 28 36 44 37 29 38 30 39 43 40
REMARK SMILES IDX 31 41 42 42 32 43 33 44 34 45 35 46 36 47 37 49 38 50 41 51
REMARK SMILES IDX 39 52 40 53
REMARK H PARENT 21 4 10 15 13 19 7 21 4 24 17 28 19 30 36 48
REMARK Flexibility Score: inf
ROOT
ATOM      1  N   UNL     1      26.760  34.453  14.097  1.00  0.00    -0.319 N 
ATOM      2  C   UNL     1      25.513  33.963  14.542  1.00  0.00     0.407 C 
ATOM      3  O   UNL     1      24.672  34.791  15.034  1.00  0.00    -0.225 OA
ATOM      4  H   UNL     1      27.445  33.790  13.697  1.00  0.00     0.167 HD
ENDROOT
BRANCH   1   5
ATOM      5  C   UNL     1      27.101  35.848  14.184  1.00  0.00     0.154 C 
BRANCH   5   6
ATOM      6  C   UNL     1      28.219  36.115  15.160  1.00  0.00     0.165 C 
BRANCH   6   7
ATOM      7  C   UNL     1      28.956  34.862  15.536  1.00  0.00     0.176 C 
BRANCH   7   8
ATOM      8  C   UNL     1      30.385  35.191  16.004  1.00  0.00     0.178 C 
ATOM      9  C   UNL     1      31.675  34.910  14.049  1.00  0.00     0.269 C 
ATOM     10  C   UNL     1      32.530  33.893  14.780  1.00  0.00     0.112 C 
ATOM     11  O   UNL     1      31.044  35.712  14.933  1.00  0.00    -0.332 OA
ATOM     12  C   UNL     1      31.572  33.077  15.615  1.00  0.00     0.145 C 
ATOM     13  C   UNL     1      30.964  33.993  16.648  1.00  0.00     0.142 C 
BRANCH   9  14
ATOM     14  O   UNL     1      30.726  34.163  13.338  1.00  0.00    -0.357 OA
ATOM     15  H   UNL     1      31.111  33.662  12.595  1.00  0.00     0.214 HD
ENDBRANCH   9  14
BRANCH   9  16
ATOM     16  C   UNL     1      32.479  35.660  13.050  1.00  0.00     0.364 C 
ATOM     17  O   UNL     1      32.188  36.835  12.787  1.00  0.00    -0.246 OA
BRANCH  16  18
ATOM     18  O   UNL     1      33.547  35.062  12.408  1.00  0.00    -0.477 OA
ATOM     19  H   UNL     1      33.432  34.687  11.455  1.00  0.00     0.296 HD
ENDBRANCH  16  18
ENDBRANCH   9  16
BRANCH  12  20
ATOM     20  O   UNL     1      30.626  32.472  14.796  1.00  0.00    -0.391 OA
ATOM     21  H   UNL     1      30.519  31.529  15.114  1.00  0.00     0.211 HD
ENDBRANCH  12  20
BRANCH  13  22
ATOM     22  N   UNL     1      31.956  34.238  17.645  1.00  0.00    -0.348 N 
ATOM     23  C   UNL     1      31.593  34.336  19.006  1.00  0.00     0.217 C 
ATOM     24  H   UNL     1      32.949  34.348  17.379  1.00  0.00     0.163 HD
ATOM     25  C   UNL     1      32.557  34.589  20.106  1.00  0.00     0.114 C 
ATOM     26  O   UNL     1      30.398  34.203  19.297  1.00  0.00    -0.275 OA
ENDBRANCH  13  22
ENDBRANCH   7   8
BRANCH   7  27
ATOM     27  O   UNL     1      28.292  34.133  16.549  1.00  0.00    -0.388 OA
ATOM     28  H   UNL     1      27.518  33.704  16.139  1.00  0.00     0.211 HD
ENDBRANCH   7  27
ENDBRANCH   6   7
BRANCH   6  29
ATOM     29  O   UNL     1      27.600  36.703  16.285  1.00  0.00    -0.388 OA
ATOM     30  H   UNL     1      27.031  35.999  16.683  1.00  0.00     0.211 HD
ENDBRANCH   6  29
ENDBRANCH   5   6
ENDBRANCH   1   5
BRANCH   2  31
ATOM     31  O   UNL     1      25.142  32.636  14.479  1.00  0.00    -0.443 OA
BRANCH  31  32
ATOM     32  C   UNL     1      24.983  31.837  15.660  1.00  0.00     0.294 C 
BRANCH  32  33
ATOM     33  C   UNL     1      26.362  31.486  16.112  1.00  0.00     0.121 A 
ATOM     34  C   UNL     1      26.740  31.049  17.384  1.00  0.00     0.144 A 
ATOM     35  N   UNL     1      27.515  31.511  15.412  1.00  0.00    -0.131 NA
ATOM     36  N   UNL     1      28.065  30.835  17.405  1.00  0.00    -0.220 N 
ATOM     37  N   UNL     1      28.494  31.125  16.194  1.00  0.00    -0.062 NA
BRANCH  36  38
ATOM     38  C   UNL     1      28.804  30.384  18.533  1.00  0.00     0.066 A 
ATOM     39  C   UNL     1      30.049  30.878  18.850  1.00  0.00     0.030 A 
ATOM     40  C   UNL     1      28.272  29.413  19.354  1.00  0.00     0.030 A 
ATOM     41  C   UNL     1      30.758  30.421  19.960  1.00  0.00     0.024 A 
ATOM     42  C   UNL     1      28.970  28.961  20.451  1.00  0.00     0.024 A 
ATOM     43  C   UNL     1      30.236  29.453  20.786  1.00  0.00     0.088 A 
BRANCH  43  44
ATOM     44  S   UNL     1      31.077  28.861  22.188  1.00  0.00     0.263 S 
ATOM     45  O   UNL     1      30.643  29.730  23.361  1.00  0.00    -0.201 OA
ATOM     46  O   UNL     1      32.531  29.117  21.990  1.00  0.00    -0.201 OA
BRANCH  44  47
ATOM     47  N   UNL     1      30.771  27.231  22.558  1.00  0.00    -0.255 N 
ATOM     48  H   UNL     1      31.491  26.519  22.256  1.00  0.00     0.182 HD
BRANCH  47  49
ATOM     49  C   UNL     1      29.655  26.708  23.230  1.00  0.00     0.196 A 
ATOM     50  N   UNL     1      28.446  26.839  23.336  1.00  0.00    -0.228 NA
ATOM     51  S   UNL     1      29.901  25.278  24.441  1.00  0.00    -0.105 S 
ATOM     52  C   UNL     1      27.620  26.171  24.075  1.00  0.00     0.125 A 
ATOM     53  C   UNL     1      28.093  25.178  24.862  1.00  0.00     0.089 A 
ENDBRANCH  47  49
ENDBRANCH  44  47
ENDBRANCH  43  44
ENDBRANCH  36  38
ENDBRANCH  32  33
ENDBRANCH  31  32
ENDBRANCH   2  31
TORSDOF 18
BEGIN_RES LYS A 131
REMARK  4 active torsions:
REMARK  status: ('A' for Active; 'I' for Inactive)
REMARK    1  A    between atoms: CA   and  CB  
REMARK    2  A    between atoms: CB   and  CG  
REMARK    3  A    between atoms: CG   and  CD  
REMARK    4  A    between atoms: CD   and  CE  
ROOT
ATOM      1  CA  LYS A 131      29.867  25.555  16.977  1.00 20.52     0.186 C 
ENDROOT
BRANCH   1   2
ATOM      2  CB  LYS A 131      28.345  25.722  17.026  1.00 20.94     0.034 C 
BRANCH   2   3
ATOM      3  CG  LYS A 131      27.602  24.399  16.920  1.00 22.96     0.005 C 
BRANCH   3   4
ATOM      4  CD  LYS A 131      26.636  24.199  18.055  1.00 24.33     0.041 C 
BRANCH   4   5
ATOM      5  CE  LYS A 131      25.409  23.445  17.553  1.00 26.91     0.338 C 
ATOM      6  NZ  LYS A 131      24.461  24.376  16.897  1.00 27.40     0.618 N 
ENDBRANCH   4   5
ENDBRANCH   3   4
ENDBRANCH   2   3
ENDBRANCH   1   2
END_RES LYS A 131
BEGIN_RES LYS A 135
REMARK  4 active torsions:
REMARK  status: ('A' for Active; 'I' for Inactive)
REMARK    5  A    between atoms: CA   and  CB  
REMARK    6  A    between atoms: CB   and  CG  
REMARK    7  A    between atoms: CG   and  CD  
REMARK    8  A    between atoms: CD   and  CE  
ROOT
ATOM      7  CA  LYS A 135      33.193  34.663   9.290  1.00 25.02     0.186 C 
ENDROOT
BRANCH   7   8
ATOM      8  CB  LYS A 135      32.060  35.360  10.034  1.00 26.63     0.034 C 
BRANCH   8   9
ATOM      9  CG  LYS A 135      30.712  34.725   9.811  1.00 29.45     0.005 C 
BRANCH   9  10
ATOM     10  CD  LYS A 135      30.459  34.511   8.326  1.00 32.00     0.041 C 
BRANCH  10  11
ATOM     11  CE  LYS A 135      29.015  34.822   7.982  1.00 34.25     0.338 C 
ATOM     12  NZ  LYS A 135      28.918  35.566   6.696  1.00 35.99     0.618 N 
ENDBRANCH  10  11
ENDBRANCH   9  10
ENDBRANCH   8   9
ENDBRANCH   7   8
END_RES LYS A 135
