REMARK VINA RESULT:    -4.988      5.730     11.937
REMARK INTER + INTRA:         -15.890
REMARK INTER:                 -10.629
REMARK INTRA:                  -5.261
REMARK UNBOUND:                -6.527
REMARK SMILES CC(=O)N[C@@H]1[C@@H](O)C[C@](O)(C(=O)O)O[C@H]1C(O)[C@H](O)CNC(=O)OCc1cn(-c2ccc(S(=O)(=O)c3ccc(N)cc3)cc2)nn1
REMARK SMILES IDX 21 1 22 2 23 3 20 5 18 6 16 7 15 8 9 9 8 10 14 11 6 12 5 13
REMARK SMILES IDX 10 14 11 16 12 17 13 18 7 20 4 22 2 23 1 25 3 26 17 27 19 29
REMARK SMILES IDX 24 31 25 32 26 33 27 34 46 35 28 36 45 37 29 38 30 39 44 40
REMARK SMILES IDX 31 41 43 42 32 43 33 44 34 45 35 46 36 47 37 48 42 49 38 50
REMARK SMILES IDX 41 51 39 52 40 53
REMARK H PARENT 21 4 10 15 13 19 7 21 4 24 17 28 19 30 40 54 40 55
REMARK Flexibility Score: inf
ROOT
ATOM      1  N   UNL     1      24.236  38.063   7.244  1.00  0.00    -0.319 N 
ATOM      2  C   UNL     1      23.057  37.905   8.009  1.00  0.00     0.407 C 
ATOM      3  O   UNL     1      22.644  38.836   8.710  1.00  0.00    -0.225 OA
ATOM      4  H   UNL     1      24.515  37.209   6.668  1.00  0.00     0.167 HD
ENDROOT
BRANCH   1   5
ATOM      5  C   UNL     1      25.049  39.257   7.199  1.00  0.00     0.154 C 
BRANCH   5   6
ATOM      6  C   UNL     1      26.393  38.960   7.768  1.00  0.00     0.165 C 
BRANCH   6   7
ATOM      7  C   UNL     1      27.414  38.593   6.711  1.00  0.00     0.176 C 
BRANCH   7   8
ATOM      8  C   UNL     1      28.689  38.036   7.246  1.00  0.00     0.178 C 
ATOM      9  C   UNL     1      29.367  36.373   8.710  1.00  0.00     0.269 C 
ATOM     10  C   UNL     1      30.745  36.956   8.703  1.00  0.00     0.112 C 
ATOM     11  O   UNL     1      28.620  36.707   7.594  1.00  0.00    -0.332 OA
ATOM     12  C   UNL     1      30.807  38.400   8.355  1.00  0.00     0.145 C 
ATOM     13  C   UNL     1      29.362  38.921   8.267  1.00  0.00     0.142 C 
BRANCH   9  14
ATOM     14  O   UNL     1      28.680  36.686   9.905  1.00  0.00    -0.357 OA
ATOM     15  H   UNL     1      29.300  36.592  10.649  1.00  0.00     0.214 HD
ENDBRANCH   9  14
BRANCH   9  16
ATOM     16  C   UNL     1      29.509  34.887   8.709  1.00  0.00     0.364 C 
ATOM     17  O   UNL     1      30.606  34.383   8.317  1.00  0.00    -0.246 OA
BRANCH  16  18
ATOM     18  O   UNL     1      28.523  34.021   9.110  1.00  0.00    -0.477 OA
ATOM     19  H   UNL     1      28.757  33.083   9.429  1.00  0.00     0.296 HD
ENDBRANCH  16  18
ENDBRANCH   9  16
BRANCH  12  20
ATOM     20  O   UNL     1      31.547  39.160   9.247  1.00  0.00    -0.391 OA
ATOM     21  H   UNL     1      32.106  38.545   9.819  1.00  0.00     0.211 HD
ENDBRANCH  12  20
BRANCH  13  22
ATOM     22  N   UNL     1      29.398  40.273   7.724  1.00  0.00    -0.348 N 
ATOM     23  C   UNL     1      29.329  41.390   8.593  1.00  0.00     0.217 C 
ATOM     24  H   UNL     1      29.473  40.461   6.702  1.00  0.00     0.163 HD
ATOM     25  C   UNL     1      29.360  42.799   8.064  1.00  0.00     0.114 C 
ATOM     26  O   UNL     1      29.238  41.276   9.834  1.00  0.00    -0.275 OA
ENDBRANCH  13  22
ENDBRANCH   7   8
BRANCH   7  27
ATOM     27  O   UNL     1      26.764  37.696   5.855  1.00  0.00    -0.388 OA
ATOM     28  H   UNL     1      27.444  37.276   5.287  1.00  0.00     0.211 HD
ENDBRANCH   7  27
ENDBRANCH   6   7
BRANCH   6  29
ATOM     29  O   UNL     1      26.310  38.028   8.792  1.00  0.00    -0.388 OA
ATOM     30  H   UNL     1      27.228  37.748   9.038  1.00  0.00     0.211 HD
ENDBRANCH   6  29
ENDBRANCH   5   6
ENDBRANCH   1   5
BRANCH   2  31
ATOM     31  O   UNL     1      22.315  36.729   8.017  1.00  0.00    -0.443 OA
BRANCH  31  32
ATOM     32  C   UNL     1      22.329  35.837   9.122  1.00  0.00     0.294 C 
BRANCH  32  33
ATOM     33  C   UNL     1      23.718  35.536   9.572  1.00  0.00     0.121 A 
ATOM     34  C   UNL     1      24.064  35.267  10.868  1.00  0.00     0.144 A 
ATOM     35  N   UNL     1      24.839  35.473   8.840  1.00  0.00    -0.131 NA
ATOM     36  N   UNL     1      25.398  35.043  10.899  1.00  0.00    -0.220 N 
ATOM     37  N   UNL     1      25.817  35.176   9.672  1.00  0.00    -0.062 NA
BRANCH  36  38
ATOM     38  C   UNL     1      26.108  34.732  12.087  1.00  0.00     0.066 A 
ATOM     39  C   UNL     1      25.483  34.054  13.111  1.00  0.00     0.030 A 
ATOM     40  C   UNL     1      27.427  35.084  12.272  1.00  0.00     0.030 A 
ATOM     41  C   UNL     1      26.139  33.730  14.287  1.00  0.00     0.023 A 
ATOM     42  C   UNL     1      28.099  34.761  13.456  1.00  0.00     0.023 A 
ATOM     43  C   UNL     1      27.454  34.084  14.463  1.00  0.00     0.072 A 
BRANCH  43  44
ATOM     44  S   UNL     1      28.272  33.679  15.931  1.00  0.00     0.206 S 
ATOM     45  O   UNL     1      28.179  32.211  16.176  1.00  0.00    -0.219 OA
ATOM     46  O   UNL     1      27.698  34.383  17.124  1.00  0.00    -0.219 OA
BRANCH  44  47
ATOM     47  C   UNL     1      29.947  34.196  15.769  1.00  0.00     0.072 A 
ATOM     48  C   UNL     1      30.859  33.324  15.239  1.00  0.00     0.023 A 
ATOM     49  C   UNL     1      30.357  35.465  16.165  1.00  0.00     0.023 A 
ATOM     50  C   UNL     1      32.191  33.690  15.093  1.00  0.00     0.027 A 
ATOM     51  C   UNL     1      31.678  35.863  16.034  1.00  0.00     0.027 A 
ATOM     52  C   UNL     1      32.563  34.957  15.498  1.00  0.00     0.031 A 
BRANCH  52  53
ATOM     53  N   UNL     1      33.915  35.343  15.355  1.00  0.00    -0.399 N 
ATOM     54  H   UNL     1      34.202  35.970  14.586  1.00  0.00     0.156 HD
ATOM     55  H   UNL     1      34.617  34.990  16.027  1.00  0.00     0.156 HD
ENDBRANCH  52  53
ENDBRANCH  44  47
ENDBRANCH  43  44
ENDBRANCH  36  38
ENDBRANCH  32  33
ENDBRANCH  31  32
ENDBRANCH   2  31
TORSDOF 18
BEGIN_RES LYS A 131
REMARK  4 active torsions:
REMARK  status: ('A' for Active; 'I' for Inactive)
REMARK    1  A    between atoms: CA   and  CB  
REMARK    2  A    between atoms: CB   and  CG  
REMARK    3  A    between atoms: CG   and  CD  
REMARK    4  A    between atoms: CD   and  CE  
ROOT
ATOM      1  CA  LYS A 131      29.867  25.555  16.977  1.00 20.52     0.186 C 
ENDROOT
BRANCH   1   2
ATOM      2  CB  LYS A 131      28.345  25.722  17.026  1.00 20.94     0.034 C 
BRANCH   2   3
ATOM      3  CG  LYS A 131      27.602  24.399  16.922  1.00 22.96     0.005 C 
BRANCH   3   4
ATOM      4  CD  LYS A 131      26.513  24.279  17.951  1.00 24.33     0.041 C 
BRANCH   4   5
ATOM      5  CE  LYS A 131      25.239  23.765  17.288  1.00 26.91     0.338 C 
ATOM      6  NZ  LYS A 131      24.243  24.856  17.162  1.00 27.40     0.618 N 
ENDBRANCH   4   5
ENDBRANCH   3   4
ENDBRANCH   2   3
ENDBRANCH   1   2
END_RES LYS A 131
BEGIN_RES LYS A 135
REMARK  4 active torsions:
REMARK  status: ('A' for Active; 'I' for Inactive)
REMARK    5  A    between atoms: CA   and  CB  
REMARK    6  A    between atoms: CB   and  CG  
REMARK    7  A    between atoms: CG   and  CD  
REMARK    8  A    between atoms: CD   and  CE  
ROOT
ATOM      7  CA  LYS A 135      33.193  34.663   9.290  1.00 25.02     0.186 C 
ENDROOT
BRANCH   7   8
ATOM      8  CB  LYS A 135      32.060  35.360  10.034  1.00 26.63     0.034 C 
BRANCH   8   9
ATOM      9  CG  LYS A 135      32.206  35.314  11.533  1.00 29.45     0.005 C 
BRANCH   9  10
ATOM     10  CD  LYS A 135      32.242  36.720  12.112  1.00 32.00     0.041 C 
BRANCH  10  11
ATOM     11  CE  LYS A 135      30.876  37.113  12.642  1.00 34.25     0.338 C 
ATOM     12  NZ  LYS A 135      30.619  38.566  12.438  1.00 35.99     0.618 N 
ENDBRANCH  10  11
ENDBRANCH   9  10
ENDBRANCH   8   9
ENDBRANCH   7   8
END_RES LYS A 135
