REMARK VINA RESULT:    -5.538      2.527      3.886
REMARK INTER + INTRA:         -14.658
REMARK INTER:                  -9.067
REMARK INTRA:                  -5.591
REMARK UNBOUND:                -4.749
REMARK SMILES CC(=O)N[C@@H]1[C@@H](O)C[C@](O)(C(=O)O)O[C@H]1C(O)[C@H](O)CNC(=O)OCc1cn(-c2ccc([N+](=O)[O-])cc2)nn1
REMARK SMILES IDX 21 1 22 2 23 3 20 5 18 6 16 7 15 8 9 9 8 10 14 11 6 12 5 13
REMARK SMILES IDX 10 14 11 16 12 17 13 18 7 20 4 22 2 23 1 25 3 26 17 27 19 29
REMARK SMILES IDX 24 31 25 32 26 33 27 34 39 35 28 36 38 37 29 38 30 39 37 40
REMARK SMILES IDX 31 41 36 42 32 43 33 44 34 45 35 46
REMARK H PARENT 21 4 10 15 13 19 7 21 4 24 17 28 19 30
REMARK Flexibility Score: inf
ROOT
ATOM      1  N   UNL     1      26.569  28.604  19.197  1.00  0.00    -0.319 N 
ATOM      2  C   UNL     1      25.407  28.331  18.452  1.00  0.00     0.407 C 
ATOM      3  O   UNL     1      24.438  27.697  18.908  1.00  0.00    -0.225 OA
ATOM      4  H   UNL     1      27.326  29.186  18.696  1.00  0.00     0.167 HD
ENDROOT
BRANCH   1   5
ATOM      5  C   UNL     1      26.804  28.173  20.519  1.00  0.00     0.154 C 
BRANCH   5   6
ATOM      6  C   UNL     1      27.876  27.201  20.811  1.00  0.00     0.165 C 
BRANCH   6   7
ATOM      7  C   UNL     1      28.852  27.394  21.878  1.00  0.00     0.176 C 
BRANCH   7   8
ATOM      8  C   UNL     1      29.389  28.829  21.930  1.00  0.00     0.178 C 
ATOM      9  C   UNL     1      30.776  30.212  20.675  1.00  0.00     0.269 C 
ATOM     10  C   UNL     1      30.477  31.185  21.792  1.00  0.00     0.112 C 
ATOM     11  O   UNL     1      29.957  29.106  20.668  1.00  0.00    -0.332 OA
ATOM     12  C   UNL     1      30.567  30.559  23.148  1.00  0.00     0.145 C 
ATOM     13  C   UNL     1      30.457  29.036  22.941  1.00  0.00     0.142 C 
BRANCH   9  14
ATOM     14  O   UNL     1      32.121  29.894  20.752  1.00  0.00    -0.357 OA
ATOM     15  H   UNL     1      32.215  28.942  20.953  1.00  0.00     0.214 HD
ENDBRANCH   9  14
BRANCH   9  16
ATOM     16  C   UNL     1      30.541  30.943  19.402  1.00  0.00     0.364 C 
ATOM     17  O   UNL     1      30.783  32.174  19.313  1.00  0.00    -0.246 OA
BRANCH  16  18
ATOM     18  O   UNL     1      30.052  30.290  18.283  1.00  0.00    -0.477 OA
ATOM     19  H   UNL     1      29.261  30.651  17.745  1.00  0.00     0.296 HD
ENDBRANCH  16  18
ENDBRANCH   9  16
BRANCH  12  20
ATOM     20  O   UNL     1      31.701  30.885  23.855  1.00  0.00    -0.391 OA
ATOM     21  H   UNL     1      31.440  31.060  24.794  1.00  0.00     0.211 HD
ENDBRANCH  12  20
BRANCH  13  22
ATOM     22  N   UNL     1      30.175  28.496  24.254  1.00  0.00    -0.348 N 
ATOM     23  C   UNL     1      31.004  27.467  24.812  1.00  0.00     0.217 C 
ATOM     24  H   UNL     1      29.382  28.819  24.841  1.00  0.00     0.163 HD
ATOM     25  C   UNL     1      30.776  26.870  26.146  1.00  0.00     0.114 C 
ATOM     26  O   UNL     1      31.964  27.066  24.121  1.00  0.00    -0.275 OA
ENDBRANCH  13  22
ENDBRANCH   7   8
BRANCH   7  27
ATOM     27  O   UNL     1      29.874  26.483  21.812  1.00  0.00    -0.388 OA
ATOM     28  H   UNL     1      29.653  25.605  21.428  1.00  0.00     0.211 HD
ENDBRANCH   7  27
ENDBRANCH   6   7
BRANCH   6  29
ATOM     29  O   UNL     1      28.481  26.925  19.551  1.00  0.00    -0.388 OA
ATOM     30  H   UNL     1      29.460  26.815  19.667  1.00  0.00     0.211 HD
ENDBRANCH   6  29
ENDBRANCH   5   6
ENDBRANCH   1   5
BRANCH   2  31
ATOM     31  O   UNL     1      25.361  28.811  17.124  1.00  0.00    -0.443 OA
BRANCH  31  32
ATOM     32  C   UNL     1      25.557  30.201  16.957  1.00  0.00     0.294 C 
BRANCH  32  33
ATOM     33  C   UNL     1      26.937  30.464  16.423  1.00  0.00     0.121 A 
ATOM     34  C   UNL     1      27.499  31.685  16.117  1.00  0.00     0.144 A 
ATOM     35  N   UNL     1      27.904  29.560  16.134  1.00  0.00    -0.131 NA
ATOM     36  N   UNL     1      28.762  31.510  15.661  1.00  0.00    -0.220 N 
ATOM     37  N   UNL     1      28.955  30.208  15.691  1.00  0.00    -0.062 NA
BRANCH  36  38
ATOM     38  C   UNL     1      29.670  32.525  15.240  1.00  0.00     0.067 A 
ATOM     39  C   UNL     1      29.271  33.588  14.458  1.00  0.00     0.035 A 
ATOM     40  C   UNL     1      31.003  32.486  15.606  1.00  0.00     0.035 A 
ATOM     41  C   UNL     1      30.168  34.561  14.063  1.00  0.00     0.088 A 
ATOM     42  C   UNL     1      31.900  33.459  15.212  1.00  0.00     0.088 A 
ATOM     43  C   UNL     1      31.505  34.523  14.429  1.00  0.00     0.269 A 
BRANCH  43  44
ATOM     44  N   UNL     1      32.429  35.516  14.030  1.00  0.00     0.062 N 
ATOM     45  O   UNL     1      32.668  36.454  14.809  1.00  0.00    -0.258 OA
ATOM     46  O   UNL     1      33.084  35.506  12.831  1.00  0.00    -0.258 OA
ENDBRANCH  43  44
ENDBRANCH  36  38
ENDBRANCH  32  33
ENDBRANCH  31  32
ENDBRANCH   2  31
TORSDOF 16
BEGIN_RES LYS A 131
REMARK  4 active torsions:
REMARK  status: ('A' for Active; 'I' for Inactive)
REMARK    1  A    between atoms: CA   and  CB  
REMARK    2  A    between atoms: CB   and  CG  
REMARK    3  A    between atoms: CG   and  CD  
REMARK    4  A    between atoms: CD   and  CE  
ROOT
ATOM      1  CA  LYS A 131      29.867  25.555  16.977  1.00 20.52     0.186 C 
ENDROOT
BRANCH   1   2
ATOM      2  CB  LYS A 131      28.345  25.722  17.026  1.00 20.94     0.034 C 
BRANCH   2   3
ATOM      3  CG  LYS A 131      27.607  24.395  17.112  1.00 22.96     0.005 C 
BRANCH   3   4
ATOM      4  CD  LYS A 131      26.336  24.503  17.907  1.00 24.33     0.041 C 
BRANCH   4   5
ATOM      5  CE  LYS A 131      25.189  23.877  17.121  1.00 26.91     0.338 C 
ATOM      6  NZ  LYS A 131      23.990  24.747  17.172  1.00 27.40     0.618 N 
ENDBRANCH   4   5
ENDBRANCH   3   4
ENDBRANCH   2   3
ENDBRANCH   1   2
END_RES LYS A 131
BEGIN_RES LYS A 135
REMARK  4 active torsions:
REMARK  status: ('A' for Active; 'I' for Inactive)
REMARK    5  A    between atoms: CA   and  CB  
REMARK    6  A    between atoms: CB   and  CG  
REMARK    7  A    between atoms: CG   and  CD  
REMARK    8  A    between atoms: CD   and  CE  
ROOT
ATOM      7  CA  LYS A 135      33.193  34.663   9.290  1.00 25.02     0.186 C 
ENDROOT
BRANCH   7   8
ATOM      8  CB  LYS A 135      32.060  35.360  10.034  1.00 26.63     0.034 C 
BRANCH   8   9
ATOM      9  CG  LYS A 135      30.721  34.693   9.853  1.00 29.45     0.005 C 
BRANCH   9  10
ATOM     10  CD  LYS A 135      30.273  34.772   8.402  1.00 32.00     0.041 C 
BRANCH  10  11
ATOM     11  CE  LYS A 135      28.782  34.520   8.290  1.00 34.25     0.338 C 
ATOM     12  NZ  LYS A 135      28.259  33.842   9.508  1.00 35.99     0.618 N 
ENDBRANCH  10  11
ENDBRANCH   9  10
ENDBRANCH   8   9
ENDBRANCH   7   8
END_RES LYS A 135
