REMARK VINA RESULT:    -4.971      3.895      7.558
REMARK INTER + INTRA:         -14.461
REMARK INTER:                  -8.453
REMARK INTRA:                  -6.007
REMARK UNBOUND:                -5.276
REMARK SMILES COc1ccc(Cn2cc(COC(=O)NC[C@@H](O)C(O)[C@@H]3O[C@@](O)(C(=O)O)C[C@H](O)[C@H]3NC(C)=O)nn2)cc1
REMARK SMILES IDX 15 1 13 2 14 3 16 5 17 6 19 7 21 8 23 9 28 10 22 11 29 12
REMARK SMILES IDX 31 13 24 14 25 16 26 17 27 18 30 20 32 22 33 23 34 25 35 26
REMARK SMILES IDX 20 27 18 29 12 31 11 32 10 33 9 34 36 35 8 36 37 37 7 38
REMARK SMILES IDX 6 39 5 40 38 41 4 42 39 43 3 44 2 45 1 46
REMARK H PARENT 15 4 24 15 27 19 30 21 32 24 20 28 18 30
REMARK Flexibility Score: inf
ROOT
ATOM      1  N   UNL     1      26.158  30.002  18.393  1.00  0.00    -0.319 N 
ATOM      2  C   UNL     1      26.205  28.593  18.329  1.00  0.00     0.407 C 
ATOM      3  O   UNL     1      27.202  27.921  18.688  1.00  0.00    -0.225 OA
ATOM      4  H   UNL     1      25.277  30.460  18.062  1.00  0.00     0.167 HD
ENDROOT
BRANCH   1   5
ATOM      5  C   UNL     1      27.222  30.824  18.875  1.00  0.00     0.154 C 
BRANCH   5   6
ATOM      6  C   UNL     1      28.271  31.150  17.868  1.00  0.00     0.165 C 
BRANCH   6   7
ATOM      7  C   UNL     1      27.693  31.597  16.544  1.00  0.00     0.176 C 
BRANCH   7   8
ATOM      8  C   UNL     1      28.524  32.591  15.815  1.00  0.00     0.178 C 
ATOM      9  C   UNL     1      30.292  34.070  16.018  1.00  0.00     0.269 C 
ATOM     10  C   UNL     1      29.586  35.125  15.215  1.00  0.00     0.112 C 
ATOM     11  O   UNL     1      29.493  33.162  16.636  1.00  0.00    -0.332 OA
ATOM     12  C   UNL     1      28.389  34.582  14.461  1.00  0.00     0.145 C 
ATOM     13  C   UNL     1      27.606  33.754  15.423  1.00  0.00     0.142 C 
BRANCH   9  14
ATOM     14  O   UNL     1      30.953  34.782  17.054  1.00  0.00    -0.357 OA
ATOM     15  H   UNL     1      31.312  35.595  16.621  1.00  0.00     0.214 HD
ENDBRANCH   9  14
BRANCH   9  16
ATOM     16  C   UNL     1      31.362  33.495  15.169  1.00  0.00     0.364 C 
ATOM     17  O   UNL     1      31.750  32.295  15.286  1.00  0.00    -0.246 OA
BRANCH  16  18
ATOM     18  O   UNL     1      32.004  34.248  14.187  1.00  0.00    -0.477 OA
ATOM     19  H   UNL     1      32.147  33.878  13.267  1.00  0.00     0.296 HD
ENDBRANCH  16  18
ENDBRANCH   9  16
BRANCH  12  20
ATOM     20  O   UNL     1      27.670  35.625  13.912  1.00  0.00    -0.391 OA
ATOM     21  H   UNL     1      27.156  35.305  13.155  1.00  0.00     0.211 HD
ENDBRANCH  12  20
BRANCH  13  22
ATOM     22  N   UNL     1      26.325  33.337  14.949  1.00  0.00    -0.348 N 
ATOM     23  C   UNL     1      25.131  34.056  15.098  1.00  0.00     0.217 C 
ATOM     24  H   UNL     1      26.270  32.412  14.442  1.00  0.00     0.163 HD
ATOM     25  C   UNL     1      23.863  33.513  14.559  1.00  0.00     0.114 C 
ATOM     26  O   UNL     1      25.130  35.146  15.679  1.00  0.00    -0.275 OA
ENDBRANCH  13  22
ENDBRANCH   7   8
BRANCH   7  27
ATOM     27  O   UNL     1      27.442  30.491  15.760  1.00  0.00    -0.388 OA
ATOM     28  H   UNL     1      28.142  30.266  15.109  1.00  0.00     0.211 HD
ENDBRANCH   7  27
ENDBRANCH   6   7
BRANCH   6  29
ATOM     29  O   UNL     1      29.211  30.174  17.718  1.00  0.00    -0.388 OA
ATOM     30  H   UNL     1      30.114  30.592  17.859  1.00  0.00     0.211 HD
ENDBRANCH   6  29
ENDBRANCH   5   6
ENDBRANCH   1   5
BRANCH   2  31
ATOM     31  O   UNL     1      25.090  27.884  17.843  1.00  0.00    -0.443 OA
BRANCH  31  32
ATOM     32  C   UNL     1      23.942  28.616  17.478  1.00  0.00     0.294 C 
BRANCH  32  33
ATOM     33  C   UNL     1      23.984  29.064  16.075  1.00  0.00     0.120 A 
ATOM     34  C   UNL     1      23.271  28.531  14.997  1.00  0.00     0.138 A 
ATOM     35  N   UNL     1      24.710  30.066  15.548  1.00  0.00    -0.132 NA
ATOM     36  N   UNL     1      23.588  29.217  13.889  1.00  0.00    -0.248 N 
ATOM     37  N   UNL     1      24.460  30.139  14.250  1.00  0.00    -0.067 NA
BRANCH  36  38
ATOM     38  C   UNL     1      23.093  29.013  12.553  1.00  0.00     0.181 C 
BRANCH  38  39
ATOM     39  C   UNL     1      21.749  29.603  12.376  1.00  0.00    -0.026 A 
ATOM     40  C   UNL     1      20.679  28.811  12.028  1.00  0.00     0.009 A 
ATOM     41  C   UNL     1      21.568  30.949  12.560  1.00  0.00     0.009 A 
ATOM     42  C   UNL     1      19.416  29.375  11.864  1.00  0.00     0.047 A 
ATOM     43  C   UNL     1      20.309  31.527  12.399  1.00  0.00     0.047 A 
ATOM     44  C   UNL     1      19.243  30.737  12.053  1.00  0.00     0.118 A 
BRANCH  44  45
ATOM     45  O   UNL     1      17.970  31.284  11.884  1.00  0.00    -0.497 OA
ATOM     46  C   UNL     1      17.118  31.430  13.007  1.00  0.00     0.278 C 
ENDBRANCH  44  45
ENDBRANCH  38  39
ENDBRANCH  36  38
ENDBRANCH  32  33
ENDBRANCH  31  32
ENDBRANCH   2  31
TORSDOF 17
BEGIN_RES LYS A 131
REMARK  4 active torsions:
REMARK  status: ('A' for Active; 'I' for Inactive)
REMARK    1  A    between atoms: CA   and  CB  
REMARK    2  A    between atoms: CB   and  CG  
REMARK    3  A    between atoms: CG   and  CD  
REMARK    4  A    between atoms: CD   and  CE  
ROOT
ATOM      1  CA  LYS A 131      29.867  25.555  16.977  1.00 20.52     0.186 C 
ENDROOT
BRANCH   1   2
ATOM      2  CB  LYS A 131      28.345  25.722  17.026  1.00 20.94     0.034 C 
BRANCH   2   3
ATOM      3  CG  LYS A 131      27.601  24.401  16.899  1.00 22.96     0.005 C 
BRANCH   3   4
ATOM      4  CD  LYS A 131      26.150  24.531  17.269  1.00 24.33     0.041 C 
BRANCH   4   5
ATOM      5  CE  LYS A 131      25.999  24.429  18.783  1.00 26.91     0.338 C 
ATOM      6  NZ  LYS A 131      24.625  24.804  19.194  1.00 27.40     0.618 N 
ENDBRANCH   4   5
ENDBRANCH   3   4
ENDBRANCH   2   3
ENDBRANCH   1   2
END_RES LYS A 131
BEGIN_RES LYS A 135
REMARK  4 active torsions:
REMARK  status: ('A' for Active; 'I' for Inactive)
REMARK    5  A    between atoms: CA   and  CB  
REMARK    6  A    between atoms: CB   and  CG  
REMARK    7  A    between atoms: CG   and  CD  
REMARK    8  A    between atoms: CD   and  CE  
ROOT
ATOM      7  CA  LYS A 135      33.193  34.663   9.290  1.00 25.02     0.186 C 
ENDROOT
BRANCH   7   8
ATOM      8  CB  LYS A 135      32.060  35.360  10.034  1.00 26.63     0.034 C 
BRANCH   8   9
ATOM      9  CG  LYS A 135      30.742  34.636   9.939  1.00 29.45     0.005 C 
BRANCH   9  10
ATOM     10  CD  LYS A 135      30.321  34.475   8.486  1.00 32.00     0.041 C 
BRANCH  10  11
ATOM     11  CE  LYS A 135      28.812  34.551   8.357  1.00 34.25     0.338 C 
ATOM     12  NZ  LYS A 135      28.141  33.802   9.456  1.00 35.99     0.618 N 
ENDBRANCH  10  11
ENDBRANCH   9  10
ENDBRANCH   8   9
ENDBRANCH   7   8
END_RES LYS A 135
