REMARK VINA RESULT:    -4.291      1.898      6.775
REMARK INTER + INTRA:         -13.698
REMARK INTER:                  -6.791
REMARK INTRA:                  -6.906
REMARK UNBOUND:                -5.644
REMARK SMILES CC(=O)N[C@@H]1[C@@H](O)C[C@](O)(C(=O)O)O[C@H]1C(O)[C@H](O)CNC(=O)OCc1cn(CCC(=O)O)nn1
REMARK SMILES IDX 21 1 22 2 23 3 20 5 18 6 16 7 15 8 9 9 8 10 14 11 6 12 5 13
REMARK SMILES IDX 10 14 11 16 12 17 13 18 7 20 4 22 2 23 1 25 3 26 17 27 19 29
REMARK SMILES IDX 24 31 25 32 26 33 27 34 35 35 28 36 34 37 29 38 30 39 31 40
REMARK SMILES IDX 32 41 33 42
REMARK H PARENT 21 4 10 15 13 19 7 21 4 24 17 28 19 30 33 43
REMARK Flexibility Score: inf
ROOT
ATOM      1  N   UNL     1      29.148  30.113  22.906  1.00  0.00    -0.319 N 
ATOM      2  C   UNL     1      28.693  28.774  22.808  1.00  0.00     0.407 C 
ATOM      3  O   UNL     1      27.874  28.423  21.906  1.00  0.00    -0.225 OA
ATOM      4  H   UNL     1      29.820  30.361  23.657  1.00  0.00     0.167 HD
ENDROOT
BRANCH   1   5
ATOM      5  C   UNL     1      28.699  31.137  21.994  1.00  0.00     0.154 C 
BRANCH   5   6
ATOM      6  C   UNL     1      29.723  31.521  20.961  1.00  0.00     0.165 C 
BRANCH   6   7
ATOM      7  C   UNL     1      29.447  30.820  19.630  1.00  0.00     0.176 C 
BRANCH   7   8
ATOM      8  C   UNL     1      30.327  31.412  18.543  1.00  0.00     0.178 C 
ATOM      9  C   UNL     1      30.983  33.569  17.934  1.00  0.00     0.269 C 
ATOM     10  C   UNL     1      31.352  33.067  16.566  1.00  0.00     0.112 C 
ATOM     11  O   UNL     1      30.913  32.584  18.894  1.00  0.00    -0.332 OA
ATOM     12  C   UNL     1      30.752  31.759  16.191  1.00  0.00     0.145 C 
ATOM     13  C   UNL     1      29.637  31.459  17.205  1.00  0.00     0.142 C 
BRANCH   9  14
ATOM     14  O   UNL     1      29.807  34.303  17.831  1.00  0.00    -0.357 OA
ATOM     15  H   UNL     1      30.086  35.260  17.815  1.00  0.00     0.214 HD
ENDBRANCH   9  14
BRANCH   9  16
ATOM     16  C   UNL     1      32.060  34.497  18.348  1.00  0.00     0.364 C 
ATOM     17  O   UNL     1      32.657  35.261  17.559  1.00  0.00    -0.246 OA
BRANCH  16  18
ATOM     18  O   UNL     1      32.441  34.537  19.677  1.00  0.00    -0.477 OA
ATOM     19  H   UNL     1      32.936  35.315  20.094  1.00  0.00     0.296 HD
ENDBRANCH  16  18
ENDBRANCH   9  16
BRANCH  12  20
ATOM     20  O   UNL     1      30.249  31.736  14.894  1.00  0.00    -0.391 OA
ATOM     21  H   UNL     1      29.289  31.471  14.867  1.00  0.00     0.211 HD
ENDBRANCH  12  20
BRANCH  13  22
ATOM     22  N   UNL     1      28.993  30.199  16.887  1.00  0.00    -0.348 N 
ATOM     23  C   UNL     1      27.575  30.087  16.917  1.00  0.00     0.217 C 
ATOM     24  H   UNL     1      29.537  29.342  16.631  1.00  0.00     0.163 HD
ATOM     25  C   UNL     1      26.865  28.803  16.595  1.00  0.00     0.114 C 
ATOM     26  O   UNL     1      26.861  31.095  17.223  1.00  0.00    -0.275 OA
ENDBRANCH  13  22
ENDBRANCH   7   8
BRANCH   7  27
ATOM     27  O   UNL     1      29.757  29.471  19.782  1.00  0.00    -0.388 OA
ATOM     28  H   UNL     1      29.015  28.956  20.201  1.00  0.00     0.211 HD
ENDBRANCH   7  27
ENDBRANCH   6   7
BRANCH   6  29
ATOM     29  O   UNL     1      30.972  31.141  21.459  1.00  0.00    -0.388 OA
ATOM     30  H   UNL     1      31.013  30.153  21.492  1.00  0.00     0.211 HD
ENDBRANCH   6  29
ENDBRANCH   5   6
ENDBRANCH   1   5
BRANCH   2  31
ATOM     31  O   UNL     1      29.154  27.841  23.708  1.00  0.00    -0.443 OA
BRANCH  31  32
ATOM     32  C   UNL     1      30.240  26.970  23.443  1.00  0.00     0.294 C 
BRANCH  32  33
ATOM     33  C   UNL     1      31.369  27.731  22.809  1.00  0.00     0.120 A 
ATOM     34  C   UNL     1      32.487  28.221  23.431  1.00  0.00     0.138 A 
ATOM     35  N   UNL     1      31.448  28.058  21.504  1.00  0.00    -0.132 NA
ATOM     36  N   UNL     1      33.230  28.842  22.482  1.00  0.00    -0.252 N 
ATOM     37  N   UNL     1      32.577  28.726  21.334  1.00  0.00    -0.067 NA
BRANCH  36  38
ATOM     38  C   UNL     1      34.498  29.491  22.741  1.00  0.00     0.158 C 
BRANCH  38  39
ATOM     39  C   UNL     1      34.203  30.905  23.234  1.00  0.00     0.146 C 
BRANCH  39  40
ATOM     40  C   UNL     1      34.398  31.813  22.064  1.00  0.00     0.305 C 
ATOM     41  O   UNL     1      33.485  32.487  21.570  1.00  0.00    -0.252 OA
BRANCH  40  42
ATOM     42  O   UNL     1      35.687  31.876  21.533  1.00  0.00    -0.481 OA
ATOM     43  H   UNL     1      36.078  31.060  21.064  1.00  0.00     0.296 HD
ENDBRANCH  40  42
ENDBRANCH  39  40
ENDBRANCH  38  39
ENDBRANCH  36  38
ENDBRANCH  32  33
ENDBRANCH  31  32
ENDBRANCH   2  31
TORSDOF 18
BEGIN_RES LYS A 131
REMARK  4 active torsions:
REMARK  status: ('A' for Active; 'I' for Inactive)
REMARK    1  A    between atoms: CA   and  CB  
REMARK    2  A    between atoms: CB   and  CG  
REMARK    3  A    between atoms: CG   and  CD  
REMARK    4  A    between atoms: CD   and  CE  
ROOT
ATOM      1  CA  LYS A 131      29.867  25.555  16.977  1.00 20.52     0.186 C 
ENDROOT
BRANCH   1   2
ATOM      2  CB  LYS A 131      28.345  25.722  17.026  1.00 20.94     0.034 C 
BRANCH   2   3
ATOM      3  CG  LYS A 131      27.601  24.402  16.891  1.00 22.96     0.005 C 
BRANCH   3   4
ATOM      4  CD  LYS A 131      26.162  24.518  17.310  1.00 24.33     0.041 C 
BRANCH   4   5
ATOM      5  CE  LYS A 131      25.898  23.584  18.486  1.00 26.91     0.338 C 
ATOM      6  NZ  LYS A 131      25.524  24.361  19.692  1.00 27.40     0.618 N 
ENDBRANCH   4   5
ENDBRANCH   3   4
ENDBRANCH   2   3
ENDBRANCH   1   2
END_RES LYS A 131
BEGIN_RES LYS A 135
REMARK  4 active torsions:
REMARK  status: ('A' for Active; 'I' for Inactive)
REMARK    5  A    between atoms: CA   and  CB  
REMARK    6  A    between atoms: CB   and  CG  
REMARK    7  A    between atoms: CG   and  CD  
REMARK    8  A    between atoms: CD   and  CE  
ROOT
ATOM      7  CA  LYS A 135      33.193  34.663   9.290  1.00 25.02     0.186 C 
ENDROOT
BRANCH   7   8
ATOM      8  CB  LYS A 135      32.060  35.360  10.034  1.00 26.63     0.034 C 
BRANCH   8   9
ATOM      9  CG  LYS A 135      30.814  35.537   9.205  1.00 29.45     0.005 C 
BRANCH   9  10
ATOM     10  CD  LYS A 135      30.135  34.197   8.965  1.00 32.00     0.041 C 
BRANCH  10  11
ATOM     11  CE  LYS A 135      28.744  34.400   8.395  1.00 34.25     0.338 C 
ATOM     12  NZ  LYS A 135      28.761  35.383   7.276  1.00 35.99     0.618 N 
ENDBRANCH  10  11
ENDBRANCH   9  10
ENDBRANCH   8   9
ENDBRANCH   7   8
END_RES LYS A 135
