REMARK VINA RESULT:    -4.038      3.385      5.060
REMARK INTER + INTRA:         -14.461
REMARK INTER:                  -9.995
REMARK INTRA:                  -4.467
REMARK UNBOUND:                -7.237
REMARK SMILES CC(=O)N[C@@H]1[C@@H](O)C[C@](O)(C(=O)O)O[C@H]1C(O)[C@H](O)CNC(=O)OCc1cn(-c2ccccc2C(C)C)nn1
REMARK SMILES IDX 21 1 22 2 23 3 20 5 18 6 16 7 15 8 9 9 8 10 14 11 6 12 5 13
REMARK SMILES IDX 10 14 11 16 12 17 13 18 7 20 4 22 2 23 1 25 3 26 17 27 19 29
REMARK SMILES IDX 24 31 25 32 26 33 27 34 39 35 28 36 38 37 29 38 34 39 30 40
REMARK SMILES IDX 33 41 31 42 32 43 35 44 36 45 37 46
REMARK H PARENT 21 4 10 15 13 19 7 21 4 24 17 28 19 30
REMARK Flexibility Score: inf
ROOT
ATOM      1  N   UNL     1      24.184  36.507  10.314  1.00  0.00    -0.319 N 
ATOM      2  C   UNL     1      25.329  36.610  11.127  1.00  0.00     0.407 C 
ATOM      3  O   UNL     1      26.056  37.625  11.097  1.00  0.00    -0.225 OA
ATOM      4  H   UNL     1      23.600  35.630  10.392  1.00  0.00     0.167 HD
ENDROOT
BRANCH   1   5
ATOM      5  C   UNL     1      23.795  37.532   9.410  1.00  0.00     0.154 C 
BRANCH   5   6
ATOM      6  C   UNL     1      23.868  37.139   7.936  1.00  0.00     0.165 C 
BRANCH   6   7
ATOM      7  C   UNL     1      25.169  37.793   7.465  1.00  0.00     0.176 C 
BRANCH   7   8
ATOM      8  C   UNL     1      26.210  36.799   7.058  1.00  0.00     0.178 C 
ATOM      9  C   UNL     1      27.932  35.871   8.304  1.00  0.00     0.269 C 
ATOM     10  C   UNL     1      28.823  35.810   7.114  1.00  0.00     0.112 C 
ATOM     11  O   UNL     1      26.593  36.030   8.105  1.00  0.00    -0.332 OA
ATOM     12  C   UNL     1      28.439  36.713   5.962  1.00  0.00     0.145 C 
ATOM     13  C   UNL     1      27.354  37.614   6.473  1.00  0.00     0.142 C 
BRANCH   9  14
ATOM     14  O   UNL     1      28.437  36.823   9.227  1.00  0.00    -0.357 OA
ATOM     15  H   UNL     1      28.629  36.448  10.105  1.00  0.00     0.214 HD
ENDBRANCH   9  14
BRANCH   9  16
ATOM     16  C   UNL     1      28.071  34.540   9.001  1.00  0.00     0.364 C 
ATOM     17  O   UNL     1      29.143  33.913   8.866  1.00  0.00    -0.246 OA
BRANCH  16  18
ATOM     18  O   UNL     1      27.069  33.991   9.789  1.00  0.00    -0.477 OA
ATOM     19  H   UNL     1      27.062  33.029  10.122  1.00  0.00     0.296 HD
ENDBRANCH  16  18
ENDBRANCH   9  16
BRANCH  12  20
ATOM     20  O   UNL     1      29.580  37.507   5.628  1.00  0.00    -0.391 OA
ATOM     21  H   UNL     1      30.054  37.130   4.850  1.00  0.00     0.211 HD
ENDBRANCH  12  20
BRANCH  13  22
ATOM     22  N   UNL     1      26.863  38.632   5.630  1.00  0.00    -0.348 N 
ATOM     23  C   UNL     1      27.049  40.021   5.831  1.00  0.00     0.217 C 
ATOM     24  H   UNL     1      26.297  38.357   4.756  1.00  0.00     0.163 HD
ATOM     25  C   UNL     1      26.529  41.065   4.939  1.00  0.00     0.114 C 
ATOM     26  O   UNL     1      27.727  40.342   6.897  1.00  0.00    -0.275 OA
ENDBRANCH  13  22
ENDBRANCH   7   8
BRANCH   7  27
ATOM     27  O   UNL     1      25.567  38.605   8.531  1.00  0.00    -0.388 OA
ATOM     28  H   UNL     1      26.535  38.790   8.411  1.00  0.00     0.211 HD
ENDBRANCH   7  27
ENDBRANCH   6   7
BRANCH   6  29
ATOM     29  O   UNL     1      22.827  37.582   7.188  1.00  0.00    -0.388 OA
ATOM     30  H   UNL     1      22.080  36.988   7.163  1.00  0.00     0.211 HD
ENDBRANCH   6  29
ENDBRANCH   5   6
ENDBRANCH   1   5
BRANCH   2  31
ATOM     31  O   UNL     1      25.685  35.576  11.995  1.00  0.00    -0.443 OA
BRANCH  31  32
ATOM     32  C   UNL     1      26.150  35.934  13.288  1.00  0.00     0.294 C 
BRANCH  32  33
ATOM     33  C   UNL     1      27.576  35.525  13.325  1.00  0.00     0.121 A 
ATOM     34  C   UNL     1      28.416  35.728  14.427  1.00  0.00     0.144 A 
ATOM     35  N   UNL     1      28.278  34.822  12.423  1.00  0.00    -0.131 NA
ATOM     36  N   UNL     1      29.574  35.119  14.112  1.00  0.00    -0.220 N 
ATOM     37  N   UNL     1      29.452  34.610  12.954  1.00  0.00    -0.062 NA
BRANCH  36  38
ATOM     38  C   UNL     1      30.655  34.974  15.013  1.00  0.00     0.070 A 
ATOM     39  C   UNL     1      30.697  33.939  15.867  1.00  0.00    -0.020 A 
ATOM     40  C   UNL     1      31.586  36.017  15.120  1.00  0.00     0.029 A 
ATOM     41  C   UNL     1      31.677  33.916  16.858  1.00  0.00     0.006 A 
ATOM     42  C   UNL     1      32.540  36.011  16.070  1.00  0.00     0.002 A 
ATOM     43  C   UNL     1      32.610  34.956  16.969  1.00  0.00     0.000 A 
BRANCH  39  44
ATOM     44  C   UNL     1      29.835  32.786  15.696  1.00  0.00     0.015 C 
ATOM     45  C   UNL     1      28.699  32.748  16.705  1.00  0.00     0.012 C 
ATOM     46  C   UNL     1      30.693  31.553  16.228  1.00  0.00     0.012 C 
ENDBRANCH  39  44
ENDBRANCH  36  38
ENDBRANCH  32  33
ENDBRANCH  31  32
ENDBRANCH   2  31
TORSDOF 16
BEGIN_RES LYS A 131
REMARK  4 active torsions:
REMARK  status: ('A' for Active; 'I' for Inactive)
REMARK    1  A    between atoms: CA   and  CB  
REMARK    2  A    between atoms: CB   and  CG  
REMARK    3  A    between atoms: CG   and  CD  
REMARK    4  A    between atoms: CD   and  CE  
ROOT
ATOM      1  CA  LYS A 131      29.867  25.555  16.977  1.00 20.52     0.186 C 
ENDROOT
BRANCH   1   2
ATOM      2  CB  LYS A 131      28.345  25.722  17.026  1.00 20.94     0.034 C 
BRANCH   2   3
ATOM      3  CG  LYS A 131      27.679  24.779  18.016  1.00 22.96     0.005 C 
BRANCH   3   4
ATOM      4  CD  LYS A 131      27.137  23.546  17.346  1.00 24.33     0.041 C 
BRANCH   4   5
ATOM      5  CE  LYS A 131      25.663  23.379  17.703  1.00 26.91     0.338 C 
ATOM      6  NZ  LYS A 131      24.832  24.336  16.935  1.00 27.40     0.618 N 
ENDBRANCH   4   5
ENDBRANCH   3   4
ENDBRANCH   2   3
ENDBRANCH   1   2
END_RES LYS A 131
BEGIN_RES LYS A 135
REMARK  4 active torsions:
REMARK  status: ('A' for Active; 'I' for Inactive)
REMARK    5  A    between atoms: CA   and  CB  
REMARK    6  A    between atoms: CB   and  CG  
REMARK    7  A    between atoms: CG   and  CD  
REMARK    8  A    between atoms: CD   and  CE  
ROOT
ATOM      7  CA  LYS A 135      33.193  34.663   9.290  1.00 25.02     0.186 C 
ENDROOT
BRANCH   7   8
ATOM      8  CB  LYS A 135      32.060  35.360  10.034  1.00 26.63     0.034 C 
BRANCH   8   9
ATOM      9  CG  LYS A 135      32.447  35.837  11.410  1.00 29.45     0.005 C 
BRANCH   9  10
ATOM     10  CD  LYS A 135      31.942  37.252  11.649  1.00 32.00     0.041 C 
BRANCH  10  11
ATOM     11  CE  LYS A 135      31.686  37.956  10.330  1.00 34.25     0.338 C 
ATOM     12  NZ  LYS A 135      30.811  39.146  10.518  1.00 35.99     0.618 N 
ENDBRANCH  10  11
ENDBRANCH   9  10
ENDBRANCH   8   9
ENDBRANCH   7   8
END_RES LYS A 135
