REMARK VINA RESULT:    -3.922      3.235      5.019
REMARK INTER + INTRA:         -13.495
REMARK INTER:                  -8.427
REMARK INTRA:                  -5.068
REMARK UNBOUND:                -6.362
REMARK SMILES CC(=O)N[C@@H]1[C@@H](O)C[C@](O)(C(=O)O)O[C@H]1C(O)[C@H](O)CNC(=O)OCc1cn(CC(=O)O)nn1
REMARK SMILES IDX 21 1 22 2 23 3 20 5 18 6 16 7 15 8 9 9 8 10 14 11 6 12 5 13
REMARK SMILES IDX 10 14 11 16 12 17 13 18 7 20 4 22 2 23 1 25 3 26 17 27 19 29
REMARK SMILES IDX 24 31 25 32 26 33 27 34 34 35 28 36 33 37 29 38 30 39 31 40
REMARK SMILES IDX 32 41
REMARK H PARENT 21 4 10 15 13 19 7 21 4 24 17 28 19 30 32 42
REMARK Flexibility Score: inf
ROOT
ATOM      1  N   UNL     1      26.773  36.936  10.515  1.00  0.00    -0.319 N 
ATOM      2  C   UNL     1      25.785  36.620   9.563  1.00  0.00     0.407 C 
ATOM      3  O   UNL     1      24.935  35.752   9.761  1.00  0.00    -0.225 OA
ATOM      4  H   UNL     1      27.443  37.711  10.224  1.00  0.00     0.167 HD
ENDROOT
BRANCH   1   5
ATOM      5  C   UNL     1      26.954  36.323  11.805  1.00  0.00     0.154 C 
BRANCH   5   6
ATOM      6  C   UNL     1      28.348  35.888  12.129  1.00  0.00     0.165 C 
BRANCH   6   7
ATOM      7  C   UNL     1      28.427  34.863  13.197  1.00  0.00     0.176 C 
BRANCH   7   8
ATOM      8  C   UNL     1      29.678  34.895  14.032  1.00  0.00     0.178 C 
ATOM      9  C   UNL     1      32.012  35.089  13.799  1.00  0.00     0.269 C 
ATOM     10  C   UNL     1      32.261  34.169  14.949  1.00  0.00     0.112 C 
ATOM     11  O   UNL     1      30.800  35.049  13.204  1.00  0.00    -0.332 OA
ATOM     12  C   UNL     1      31.050  34.062  15.822  1.00  0.00     0.145 C 
ATOM     13  C   UNL     1      29.901  33.668  14.876  1.00  0.00     0.142 C 
BRANCH   9  14
ATOM     14  O   UNL     1      33.045  34.825  12.852  1.00  0.00    -0.357 OA
ATOM     15  H   UNL     1      33.878  34.754  13.392  1.00  0.00     0.214 HD
ENDBRANCH   9  14
BRANCH   9  16
ATOM     16  C   UNL     1      32.294  36.484  14.254  1.00  0.00     0.364 C 
ATOM     17  O   UNL     1      32.865  36.778  15.325  1.00  0.00    -0.246 OA
BRANCH  16  18
ATOM     18  O   UNL     1      31.903  37.529  13.444  1.00  0.00    -0.477 OA
ATOM     19  H   UNL     1      32.544  38.021  12.826  1.00  0.00     0.296 HD
ENDBRANCH  16  18
ENDBRANCH   9  16
BRANCH  12  20
ATOM     20  O   UNL     1      31.195  33.110  16.826  1.00  0.00    -0.391 OA
ATOM     21  H   UNL     1      32.083  33.261  17.242  1.00  0.00     0.211 HD
ENDBRANCH  12  20
BRANCH  13  22
ATOM     22  N   UNL     1      28.799  33.210  15.657  1.00  0.00    -0.348 N 
ATOM     23  C   UNL     1      28.573  31.827  15.927  1.00  0.00     0.217 C 
ATOM     24  H   UNL     1      28.132  33.891  16.064  1.00  0.00     0.163 HD
ATOM     25  C   UNL     1      27.441  31.314  16.732  1.00  0.00     0.114 C 
ATOM     26  O   UNL     1      29.385  31.000  15.452  1.00  0.00    -0.275 OA
ENDBRANCH  13  22
ENDBRANCH   7   8
BRANCH   7  27
ATOM     27  O   UNL     1      27.263  34.811  13.947  1.00  0.00    -0.388 OA
ATOM     28  H   UNL     1      26.516  35.295  13.510  1.00  0.00     0.211 HD
ENDBRANCH   7  27
ENDBRANCH   6   7
BRANCH   6  29
ATOM     29  O   UNL     1      29.102  37.027  12.451  1.00  0.00    -0.388 OA
ATOM     30  H   UNL     1      28.784  37.825  11.972  1.00  0.00     0.211 HD
ENDBRANCH   6  29
ENDBRANCH   5   6
ENDBRANCH   1   5
BRANCH   2  31
ATOM     31  O   UNL     1      25.730  37.288   8.343  1.00  0.00    -0.443 OA
BRANCH  31  32
ATOM     32  C   UNL     1      26.346  36.864   7.168  1.00  0.00     0.294 C 
BRANCH  32  33
ATOM     33  C   UNL     1      27.576  37.613   6.810  1.00  0.00     0.120 A 
ATOM     34  C   UNL     1      28.134  38.706   7.396  1.00  0.00     0.139 A 
ATOM     35  N   UNL     1      28.403  37.307   5.768  1.00  0.00    -0.132 NA
ATOM     36  N   UNL     1      29.251  39.033   6.722  1.00  0.00    -0.241 N 
ATOM     37  N   UNL     1      29.401  38.180   5.744  1.00  0.00    -0.066 NA
BRANCH  36  38
ATOM     38  C   UNL     1      30.126  40.142   7.040  1.00  0.00     0.268 C 
BRANCH  38  39
ATOM     39  C   UNL     1      31.529  39.682   7.057  1.00  0.00     0.325 C 
ATOM     40  O   UNL     1      32.404  40.348   6.433  1.00  0.00    -0.250 OA
BRANCH  39  41
ATOM     41  O   UNL     1      31.886  38.542   7.744  1.00  0.00    -0.480 OA
ATOM     42  H   UNL     1      31.984  38.628   8.761  1.00  0.00     0.296 HD
ENDBRANCH  39  41
ENDBRANCH  38  39
ENDBRANCH  36  38
ENDBRANCH  32  33
ENDBRANCH  31  32
ENDBRANCH   2  31
TORSDOF 17
BEGIN_RES LYS A 131
REMARK  4 active torsions:
REMARK  status: ('A' for Active; 'I' for Inactive)
REMARK    1  A    between atoms: CA   and  CB  
REMARK    2  A    between atoms: CB   and  CG  
REMARK    3  A    between atoms: CG   and  CD  
REMARK    4  A    between atoms: CD   and  CE  
ROOT
ATOM      1  CA  LYS A 131      29.867  25.555  16.977  1.00 20.52     0.186 C 
ENDROOT
BRANCH   1   2
ATOM      2  CB  LYS A 131      28.345  25.722  17.026  1.00 20.94     0.034 C 
BRANCH   2   3
ATOM      3  CG  LYS A 131      27.603  24.396  16.954  1.00 22.96     0.005 C 
BRANCH   3   4
ATOM      4  CD  LYS A 131      26.124  24.563  17.170  1.00 24.33     0.041 C 
BRANCH   4   5
ATOM      5  CE  LYS A 131      25.548  23.280  17.760  1.00 26.91     0.338 C 
ATOM      6  NZ  LYS A 131      25.675  23.286  19.237  1.00 27.40     0.618 N 
ENDBRANCH   4   5
ENDBRANCH   3   4
ENDBRANCH   2   3
ENDBRANCH   1   2
END_RES LYS A 131
BEGIN_RES LYS A 135
REMARK  4 active torsions:
REMARK  status: ('A' for Active; 'I' for Inactive)
REMARK    5  A    between atoms: CA   and  CB  
REMARK    6  A    between atoms: CB   and  CG  
REMARK    7  A    between atoms: CG   and  CD  
REMARK    8  A    between atoms: CD   and  CE  
ROOT
ATOM      7  CA  LYS A 135      33.193  34.663   9.290  1.00 25.02     0.186 C 
ENDROOT
BRANCH   7   8
ATOM      8  CB  LYS A 135      32.060  35.360  10.034  1.00 26.63     0.034 C 
BRANCH   8   9
ATOM      9  CG  LYS A 135      30.804  35.509   9.215  1.00 29.45     0.005 C 
BRANCH   9  10
ATOM     10  CD  LYS A 135      30.121  34.163   9.029  1.00 32.00     0.041 C 
BRANCH  10  11
ATOM     11  CE  LYS A 135      28.666  34.353   8.644  1.00 34.25     0.338 C 
ATOM     12  NZ  LYS A 135      27.768  33.581   9.547  1.00 35.99     0.618 N 
ENDBRANCH  10  11
ENDBRANCH   9  10
ENDBRANCH   8   9
ENDBRANCH   7   8
END_RES LYS A 135
