REMARK VINA RESULT:    -5.258      1.911      2.382
REMARK INTER + INTRA:         -15.295
REMARK INTER:                  -9.029
REMARK INTRA:                  -6.266
REMARK UNBOUND:                -5.735
REMARK SMILES CC(=O)N[C@@H]1[C@@H](O)C[C@](O)(C(=O)O)O[C@H]1C(O)[C@H](O)CNC(=O)OCc1cn(-c2ccc(CO)cn2)nn1
REMARK SMILES IDX 21 1 22 2 23 3 20 5 18 6 16 7 15 8 9 9 8 10 14 11 6 12 5 13
REMARK SMILES IDX 10 14 11 16 12 17 13 18 7 20 4 22 2 23 1 25 3 26 17 27 19 29
REMARK SMILES IDX 24 31 25 32 26 33 27 34 38 35 28 36 37 37 29 38 30 39 36 40
REMARK SMILES IDX 31 41 35 42 32 43 33 44 34 45
REMARK H PARENT 21 4 10 15 13 19 7 21 4 24 17 28 19 30 34 46
REMARK Flexibility Score: inf
ROOT
ATOM      1  N   UNL     1      27.990  27.031  21.133  1.00  0.00    -0.319 N 
ATOM      2  C   UNL     1      27.072  27.260  20.053  1.00  0.00     0.407 C 
ATOM      3  O   UNL     1      25.870  27.410  20.369  1.00  0.00    -0.225 OA
ATOM      4  H   UNL     1      28.981  26.925  20.826  1.00  0.00     0.167 HD
ENDROOT
BRANCH   1   5
ATOM      5  C   UNL     1      27.537  26.989  22.496  1.00  0.00     0.154 C 
BRANCH   5   6
ATOM      6  C   UNL     1      28.254  28.060  23.303  1.00  0.00     0.165 C 
BRANCH   6   7
ATOM      7  C   UNL     1      29.611  27.501  23.622  1.00  0.00     0.176 C 
BRANCH   7   8
ATOM      8  C   UNL     1      30.789  28.131  22.938  1.00  0.00     0.178 C 
ATOM      9  C   UNL     1      30.994  29.740  21.224  1.00  0.00     0.269 C 
ATOM     10  C   UNL     1      32.129  28.998  20.564  1.00  0.00     0.112 C 
ATOM     11  O   UNL     1      30.219  28.940  21.989  1.00  0.00    -0.332 OA
ATOM     12  C   UNL     1      31.821  27.531  20.797  1.00  0.00     0.145 C 
ATOM     13  C   UNL     1      31.788  27.250  22.320  1.00  0.00     0.142 C 
BRANCH   9  14
ATOM     14  O   UNL     1      30.208  30.254  20.145  1.00  0.00    -0.357 OA
ATOM     15  H   UNL     1      29.426  29.661  20.004  1.00  0.00     0.214 HD
ENDBRANCH   9  14
BRANCH   9  16
ATOM     16  C   UNL     1      31.428  30.925  21.993  1.00  0.00     0.364 C 
ATOM     17  O   UNL     1      32.645  31.170  22.109  1.00  0.00    -0.246 OA
BRANCH  16  18
ATOM     18  O   UNL     1      30.509  31.771  22.583  1.00  0.00    -0.477 OA
ATOM     19  H   UNL     1      29.872  32.291  21.993  1.00  0.00     0.296 HD
ENDBRANCH  16  18
ENDBRANCH   9  16
BRANCH  12  20
ATOM     20  O   UNL     1      30.665  27.123  20.179  1.00  0.00    -0.391 OA
ATOM     21  H   UNL     1      30.108  27.923  19.956  1.00  0.00     0.211 HD
ENDBRANCH  12  20
BRANCH  13  22
ATOM     22  N   UNL     1      33.140  27.434  22.738  1.00  0.00    -0.348 N 
ATOM     23  C   UNL     1      33.628  26.922  23.951  1.00  0.00     0.217 C 
ATOM     24  H   UNL     1      33.783  27.967  22.127  1.00  0.00     0.163 HD
ATOM     25  C   UNL     1      35.033  27.111  24.385  1.00  0.00     0.114 C 
ATOM     26  O   UNL     1      32.858  26.282  24.695  1.00  0.00    -0.275 OA
ENDBRANCH  13  22
ENDBRANCH   7   8
BRANCH   7  27
ATOM     27  O   UNL     1      29.619  26.152  23.221  1.00  0.00    -0.388 OA
ATOM     28  H   UNL     1      30.547  25.812  23.103  1.00  0.00     0.211 HD
ENDBRANCH   7  27
ENDBRANCH   6   7
BRANCH   6  29
ATOM     29  O   UNL     1      27.482  28.129  24.495  1.00  0.00    -0.388 OA
ATOM     30  H   UNL     1      28.080  28.037  25.255  1.00  0.00     0.211 HD
ENDBRANCH   6  29
ENDBRANCH   5   6
ENDBRANCH   1   5
BRANCH   2  31
ATOM     31  O   UNL     1      27.456  27.317  18.742  1.00  0.00    -0.443 OA
BRANCH  31  32
ATOM     32  C   UNL     1      26.942  28.217  17.807  1.00  0.00     0.294 C 
BRANCH  32  33
ATOM     33  C   UNL     1      27.559  29.565  17.873  1.00  0.00     0.121 A 
ATOM     34  C   UNL     1      28.453  30.063  16.921  1.00  0.00     0.146 A 
ATOM     35  N   UNL     1      27.436  30.544  18.760  1.00  0.00    -0.131 NA
ATOM     36  N   UNL     1      28.820  31.294  17.276  1.00  0.00    -0.202 N 
ATOM     37  N   UNL     1      28.198  31.578  18.395  1.00  0.00    -0.061 NA
BRANCH  36  38
ATOM     38  C   UNL     1      29.735  32.142  16.565  1.00  0.00     0.155 A 
ATOM     39  C   UNL     1      30.814  32.754  17.168  1.00  0.00     0.049 A 
ATOM     40  N   UNL     1      29.549  32.375  15.257  1.00  0.00    -0.237 NA
ATOM     41  C   UNL     1      31.683  33.574  16.499  1.00  0.00     0.011 A 
ATOM     42  C   UNL     1      30.374  33.169  14.558  1.00  0.00     0.119 A 
ATOM     43  C   UNL     1      31.465  33.794  15.153  1.00  0.00    -0.004 A 
BRANCH  43  44
ATOM     44  C   UNL     1      32.352  34.666  14.329  1.00  0.00     0.193 C 
BRANCH  44  45
ATOM     45  O   UNL     1      31.884  34.675  13.021  1.00  0.00    -0.392 OA
ATOM     46  H   UNL     1      31.208  35.392  12.910  1.00  0.00     0.211 HD
ENDBRANCH  44  45
ENDBRANCH  43  44
ENDBRANCH  36  38
ENDBRANCH  32  33
ENDBRANCH  31  32
ENDBRANCH   2  31
TORSDOF 17
BEGIN_RES LYS A 131
REMARK  4 active torsions:
REMARK  status: ('A' for Active; 'I' for Inactive)
REMARK    1  A    between atoms: CA   and  CB  
REMARK    2  A    between atoms: CB   and  CG  
REMARK    3  A    between atoms: CG   and  CD  
REMARK    4  A    between atoms: CD   and  CE  
ROOT
ATOM      1  CA  LYS A 131      29.867  25.555  16.977  1.00 20.52     0.186 C 
ENDROOT
BRANCH   1   2
ATOM      2  CB  LYS A 131      28.345  25.722  17.026  1.00 20.94     0.034 C 
BRANCH   2   3
ATOM      3  CG  LYS A 131      27.599  24.436  16.705  1.00 22.96     0.005 C 
BRANCH   3   4
ATOM      4  CD  LYS A 131      27.014  23.798  17.934  1.00 24.33     0.041 C 
BRANCH   4   5
ATOM      5  CE  LYS A 131      25.623  24.370  18.191  1.00 26.91     0.338 C 
ATOM      6  NZ  LYS A 131      24.784  24.262  16.974  1.00 27.40     0.618 N 
ENDBRANCH   4   5
ENDBRANCH   3   4
ENDBRANCH   2   3
ENDBRANCH   1   2
END_RES LYS A 131
BEGIN_RES LYS A 135
REMARK  4 active torsions:
REMARK  status: ('A' for Active; 'I' for Inactive)
REMARK    5  A    between atoms: CA   and  CB  
REMARK    6  A    between atoms: CB   and  CG  
REMARK    7  A    between atoms: CG   and  CD  
REMARK    8  A    between atoms: CD   and  CE  
ROOT
ATOM      7  CA  LYS A 135      33.193  34.663   9.290  1.00 25.02     0.186 C 
ENDROOT
BRANCH   7   8
ATOM      8  CB  LYS A 135      32.060  35.360  10.034  1.00 26.63     0.034 C 
BRANCH   8   9
ATOM      9  CG  LYS A 135      30.843  35.609   9.181  1.00 29.45     0.005 C 
BRANCH   9  10
ATOM     10  CD  LYS A 135      30.306  34.303   8.617  1.00 32.00     0.041 C 
BRANCH  10  11
ATOM     11  CE  LYS A 135      28.890  34.055   9.101  1.00 34.25     0.338 C 
ATOM     12  NZ  LYS A 135      27.896  34.713   8.208  1.00 35.99     0.618 N 
ENDBRANCH  10  11
ENDBRANCH   9  10
ENDBRANCH   8   9
ENDBRANCH   7   8
END_RES LYS A 135
