REMARK VINA RESULT:    -4.787      5.347      8.977
REMARK INTER + INTRA:         -14.839
REMARK INTER:                  -9.894
REMARK INTRA:                  -4.945
REMARK UNBOUND:                -6.554
REMARK SMILES CC(=O)N[C@@H]1[C@@H](O)C[C@](O)(C(=O)O)O[C@H]1C(O)[C@H](O)CNC(=O)OCc1cn(C23CC4CC(CC(C4)C2)C3)nn1
REMARK SMILES IDX 20 1 18 2 16 3 15 4 9 5 8 6 14 7 6 8 5 9 10 10 11 12 12 13
REMARK SMILES IDX 13 14 7 16 4 18 2 19 1 21 3 22 17 23 19 25 21 27 22 28 23 30
REMARK SMILES IDX 24 31 25 32 26 33 27 34 40 35 28 36 39 37 29 38 38 39 37 40
REMARK SMILES IDX 30 41 33 42 35 43 31 44 32 45 34 46 36 47
REMARK H PARENT 10 11 13 15 7 17 4 20 17 24 19 26 21 29
REMARK Flexibility Score: inf
ROOT
ATOM      1  C   UNL     1      30.640  39.841  15.076  1.00  0.00     0.154 C 
ENDROOT
BRANCH   1   2
ATOM      2  C   UNL     1      31.146  38.428  15.207  1.00  0.00     0.165 C 
BRANCH   2   3
ATOM      3  C   UNL     1      30.145  37.402  14.718  1.00  0.00     0.176 C 
BRANCH   3   4
ATOM      4  C   UNL     1      30.089  36.215  15.687  1.00  0.00     0.178 C 
ATOM      5  C   UNL     1      31.170  34.305  14.860  1.00  0.00     0.269 C 
ATOM      6  C   UNL     1      29.940  34.091  14.015  1.00  0.00     0.112 C 
ATOM      7  O   UNL     1      31.189  35.422  15.622  1.00  0.00    -0.332 OA
ATOM      8  C   UNL     1      28.721  34.262  14.852  1.00  0.00     0.145 C 
ATOM      9  C   UNL     1      28.777  35.522  15.673  1.00  0.00     0.142 C 
BRANCH   5  10
ATOM     10  O   UNL     1      32.232  34.415  13.933  1.00  0.00    -0.357 OA
ATOM     11  H   UNL     1      32.866  33.678  14.139  1.00  0.00     0.214 HD
ENDBRANCH   5  10
BRANCH   5  12
ATOM     12  C   UNL     1      31.397  33.052  15.623  1.00  0.00     0.364 C 
ATOM     13  O   UNL     1      31.505  33.039  16.879  1.00  0.00    -0.246 OA
BRANCH  12  14
ATOM     14  O   UNL     1      31.495  31.851  14.955  1.00  0.00    -0.477 OA
ATOM     15  H   UNL     1      31.715  30.973  15.427  1.00  0.00     0.296 HD
ENDBRANCH  12  14
ENDBRANCH   5  12
BRANCH   8  16
ATOM     16  O   UNL     1      27.605  34.246  13.985  1.00  0.00    -0.391 OA
ATOM     17  H   UNL     1      26.778  34.182  14.507  1.00  0.00     0.211 HD
ENDBRANCH   8  16
BRANCH   9  18
ATOM     18  N   UNL     1      28.395  35.226  17.048  1.00  0.00    -0.348 N 
ATOM     19  C   UNL     1      27.544  36.077  17.801  1.00  0.00     0.217 C 
ATOM     20  H   UNL     1      28.760  34.345  17.513  1.00  0.00     0.163 HD
ATOM     21  C   UNL     1      27.210  35.701  19.182  1.00  0.00     0.114 C 
ATOM     22  O   UNL     1      27.107  37.131  17.246  1.00  0.00    -0.275 OA
ENDBRANCH   9  18
ENDBRANCH   3   4
BRANCH   3  23
ATOM     23  O   UNL     1      28.915  37.924  14.456  1.00  0.00    -0.388 OA
ATOM     24  H   UNL     1      28.870  38.658  13.826  1.00  0.00     0.211 HD
ENDBRANCH   3  23
ENDBRANCH   2   3
BRANCH   2  25
ATOM     25  O   UNL     1      31.490  38.225  16.541  1.00  0.00    -0.388 OA
ATOM     26  H   UNL     1      30.662  37.937  17.041  1.00  0.00     0.211 HD
ENDBRANCH   2  25
ENDBRANCH   1   2
BRANCH   1  27
ATOM     27  N   UNL     1      30.489  40.109  13.656  1.00  0.00    -0.319 N 
ATOM     28  C   UNL     1      29.754  41.244  13.171  1.00  0.00     0.407 C 
ATOM     29  H   UNL     1      30.902  39.501  12.911  1.00  0.00     0.167 HD
ATOM     30  O   UNL     1      29.240  42.007  14.026  1.00  0.00    -0.225 OA
BRANCH  28  31
ATOM     31  O   UNL     1      29.603  41.511  11.832  1.00  0.00    -0.443 OA
BRANCH  31  32
ATOM     32  C   UNL     1      28.352  41.286  11.222  1.00  0.00     0.294 C 
BRANCH  32  33
ATOM     33  C   UNL     1      28.108  39.808  11.241  1.00  0.00     0.120 A 
ATOM     34  C   UNL     1      28.352  38.969  10.171  1.00  0.00     0.138 A 
ATOM     35  N   UNL     1      27.637  39.025  12.207  1.00  0.00    -0.132 NA
ATOM     36  N   UNL     1      28.022  37.737  10.531  1.00  0.00    -0.246 N 
ATOM     37  N   UNL     1      27.589  37.784  11.773  1.00  0.00    -0.066 NA
BRANCH  36  38
ATOM     38  C   UNL     1      28.138  36.560   9.666  1.00  0.00     0.065 C 
ATOM     39  C   UNL     1      28.752  35.460  10.522  1.00  0.00     0.034 C 
ATOM     40  C   UNL     1      29.010  36.849   8.484  1.00  0.00     0.034 C 
ATOM     41  C   UNL     1      26.767  36.161   9.181  1.00  0.00     0.034 C 
ATOM     42  C   UNL     1      28.877  34.197   9.693  1.00  0.00    -0.008 C 
ATOM     43  C   UNL     1      29.176  35.571   7.694  1.00  0.00    -0.008 C 
ATOM     44  C   UNL     1      26.889  34.891   8.366  1.00  0.00    -0.008 C 
ATOM     45  C   UNL     1      27.507  33.801   9.224  1.00  0.00     0.007 C 
ATOM     46  C   UNL     1      29.798  34.498   8.537  1.00  0.00     0.007 C 
ATOM     47  C   UNL     1      27.806  35.166   7.199  1.00  0.00     0.007 C 
ENDBRANCH  36  38
ENDBRANCH  32  33
ENDBRANCH  31  32
ENDBRANCH  28  31
ENDBRANCH   1  27
TORSDOF 15
BEGIN_RES LYS A 131
REMARK  4 active torsions:
REMARK  status: ('A' for Active; 'I' for Inactive)
REMARK    1  A    between atoms: CA   and  CB  
REMARK    2  A    between atoms: CB   and  CG  
REMARK    3  A    between atoms: CG   and  CD  
REMARK    4  A    between atoms: CD   and  CE  
ROOT
ATOM      1  CA  LYS A 131      29.867  25.555  16.977  1.00 20.52     0.186 C 
ENDROOT
BRANCH   1   2
ATOM      2  CB  LYS A 131      28.345  25.722  17.026  1.00 20.94     0.034 C 
BRANCH   2   3
ATOM      3  CG  LYS A 131      27.601  24.402  16.894  1.00 22.96     0.005 C 
BRANCH   3   4
ATOM      4  CD  LYS A 131      26.151  24.528  17.272  1.00 24.33     0.041 C 
BRANCH   4   5
ATOM      5  CE  LYS A 131      25.632  23.179  17.757  1.00 26.91     0.338 C 
ATOM      6  NZ  LYS A 131      25.524  23.167  19.235  1.00 27.40     0.618 N 
ENDBRANCH   4   5
ENDBRANCH   3   4
ENDBRANCH   2   3
ENDBRANCH   1   2
END_RES LYS A 131
BEGIN_RES LYS A 135
REMARK  4 active torsions:
REMARK  status: ('A' for Active; 'I' for Inactive)
REMARK    5  A    between atoms: CA   and  CB  
REMARK    6  A    between atoms: CB   and  CG  
REMARK    7  A    between atoms: CG   and  CD  
REMARK    8  A    between atoms: CD   and  CE  
ROOT
ATOM      7  CA  LYS A 135      33.193  34.663   9.290  1.00 25.02     0.186 C 
ENDROOT
BRANCH   7   8
ATOM      8  CB  LYS A 135      32.060  35.360  10.034  1.00 26.63     0.034 C 
BRANCH   8   9
ATOM      9  CG  LYS A 135      32.509  36.076  11.282  1.00 29.45     0.005 C 
BRANCH   9  10
ATOM     10  CD  LYS A 135      31.807  37.419  11.412  1.00 32.00     0.041 C 
BRANCH  10  11
ATOM     11  CE  LYS A 135      31.916  38.205  10.119  1.00 34.25     0.338 C 
ATOM     12  NZ  LYS A 135      31.885  39.671  10.379  1.00 35.99     0.618 N 
ENDBRANCH  10  11
ENDBRANCH   9  10
ENDBRANCH   8   9
ENDBRANCH   7   8
END_RES LYS A 135
