REMARK VINA RESULT:    -5.509      1.904      3.944
REMARK INTER + INTRA:         -13.931
REMARK INTER:                  -8.559
REMARK INTRA:                  -5.372
REMARK UNBOUND:                -4.396
REMARK SMILES CC(=O)N[C@@H]1[C@@H](O)C[C@](O)(C(=O)O)O[C@H]1C(O)[C@H](O)CNC(=O)OCc1cn(-c2ccccc2Br)nn1
REMARK SMILES IDX 20 1 18 2 16 3 15 4 9 5 8 6 14 7 6 8 5 9 10 10 11 12 12 13
REMARK SMILES IDX 13 14 7 16 4 18 2 19 1 21 3 22 17 23 19 25 21 27 22 28 23 30
REMARK SMILES IDX 24 31 25 32 26 33 27 34 37 35 28 36 36 37 29 38 30 39 34 40
REMARK SMILES IDX 31 41 33 42 35 43 32 44
REMARK H PARENT 10 11 13 15 7 17 4 20 17 24 19 26 21 29
REMARK Flexibility Score: inf
ROOT
ATOM      1  C   UNL     1      29.969  28.768  20.537  1.00  0.00     0.154 C 
ENDROOT
BRANCH   1   2
ATOM      2  C   UNL     1      29.482  27.347  20.657  1.00  0.00     0.165 C 
BRANCH   2   3
ATOM      3  C   UNL     1      28.011  27.384  20.934  1.00  0.00     0.176 C 
BRANCH   3   4
ATOM      4  C   UNL     1      27.135  26.699  19.913  1.00  0.00     0.178 C 
ATOM      5  C   UNL     1      26.403  28.281  18.345  1.00  0.00     0.269 C 
ATOM      6  C   UNL     1      25.154  27.451  18.046  1.00  0.00     0.112 C 
ATOM      7  O   UNL     1      27.348  27.390  18.727  1.00  0.00    -0.332 OA
ATOM      8  C   UNL     1      24.663  26.973  19.383  1.00  0.00     0.145 C 
ATOM      9  C   UNL     1      25.740  26.470  20.307  1.00  0.00     0.142 C 
BRANCH   5  10
ATOM     10  O   UNL     1      26.037  29.238  19.257  1.00  0.00    -0.357 OA
ATOM     11  H   UNL     1      26.110  30.120  18.814  1.00  0.00     0.214 HD
ENDBRANCH   5  10
BRANCH   5  12
ATOM     12  C   UNL     1      26.840  28.963  17.096  1.00  0.00     0.364 C 
ATOM     13  O   UNL     1      25.974  29.295  16.248  1.00  0.00    -0.246 OA
BRANCH  12  14
ATOM     14  O   UNL     1      28.180  29.240  16.848  1.00  0.00    -0.477 OA
ATOM     15  H   UNL     1      28.522  29.579  15.953  1.00  0.00     0.296 HD
ENDBRANCH  12  14
ENDBRANCH   5  12
BRANCH   8  16
ATOM     16  O   UNL     1      24.010  28.056  19.973  1.00  0.00    -0.391 OA
ATOM     17  H   UNL     1      24.425  28.902  19.732  1.00  0.00     0.211 HD
ENDBRANCH   8  16
BRANCH   9  18
ATOM     18  N   UNL     1      25.545  25.017  20.492  1.00  0.00    -0.348 N 
ATOM     19  C   UNL     1      24.789  24.508  21.571  1.00  0.00     0.217 C 
ATOM     20  H   UNL     1      25.973  24.329  19.807  1.00  0.00     0.163 HD
ATOM     21  C   UNL     1      24.594  23.031  21.771  1.00  0.00     0.114 C 
ATOM     22  O   UNL     1      24.277  25.327  22.374  1.00  0.00    -0.275 OA
ENDBRANCH   9  18
ENDBRANCH   3   4
BRANCH   3  23
ATOM     23  O   UNL     1      27.754  27.055  22.240  1.00  0.00    -0.388 OA
ATOM     24  H   UNL     1      26.771  27.016  22.445  1.00  0.00     0.211 HD
ENDBRANCH   3  23
ENDBRANCH   2   3
BRANCH   2  25
ATOM     25  O   UNL     1      30.155  26.699  21.661  1.00  0.00    -0.388 OA
ATOM     26  H   UNL     1      31.145  26.752  21.560  1.00  0.00     0.211 HD
ENDBRANCH   2  25
ENDBRANCH   1   2
BRANCH   1  27
ATOM     27  N   UNL     1      29.256  29.617  19.645  1.00  0.00    -0.319 N 
ATOM     28  C   UNL     1      28.679  30.853  20.012  1.00  0.00     0.407 C 
ATOM     29  H   UNL     1      29.127  29.333  18.617  1.00  0.00     0.167 HD
ATOM     30  O   UNL     1      28.729  31.320  21.173  1.00  0.00    -0.225 OA
BRANCH  28  31
ATOM     31  O   UNL     1      28.015  31.599  19.027  1.00  0.00    -0.443 OA
BRANCH  31  32
ATOM     32  C   UNL     1      28.537  32.870  18.714  1.00  0.00     0.294 C 
BRANCH  32  33
ATOM     33  C   UNL     1      29.134  32.798  17.358  1.00  0.00     0.121 A 
ATOM     34  C   UNL     1      29.992  33.765  16.818  1.00  0.00     0.144 A 
ATOM     35  N   UNL     1      29.021  31.889  16.383  1.00  0.00    -0.131 NA
ATOM     36  N   UNL     1      30.354  33.411  15.573  1.00  0.00    -0.219 N 
ATOM     37  N   UNL     1      29.746  32.262  15.334  1.00  0.00    -0.062 NA
BRANCH  36  38
ATOM     38  C   UNL     1      31.219  34.142  14.705  1.00  0.00     0.081 A 
ATOM     39  C   UNL     1      32.580  34.195  14.914  1.00  0.00     0.029 A 
ATOM     40  C   UNL     1      30.723  34.827  13.616  1.00  0.00     0.043 A 
ATOM     41  C   UNL     1      33.412  34.915  14.055  1.00  0.00     0.002 A 
ATOM     42  C   UNL     1      31.545  35.543  12.761  1.00  0.00     0.018 A 
ATOM     43  Br  UNL     1      28.828  34.761  13.316  1.00  0.00    -0.048 Br
ATOM     44  C   UNL     1      32.907  35.598  12.967  1.00  0.00     0.001 A 
ENDBRANCH  36  38
ENDBRANCH  32  33
ENDBRANCH  31  32
ENDBRANCH  28  31
ENDBRANCH   1  27
TORSDOF 15
BEGIN_RES LYS A 131
REMARK  4 active torsions:
REMARK  status: ('A' for Active; 'I' for Inactive)
REMARK    1  A    between atoms: CA   and  CB  
REMARK    2  A    between atoms: CB   and  CG  
REMARK    3  A    between atoms: CG   and  CD  
REMARK    4  A    between atoms: CD   and  CE  
ROOT
ATOM      1  CA  LYS A 131      29.867  25.555  16.977  1.00 20.52     0.186 C 
ENDROOT
BRANCH   1   2
ATOM      2  CB  LYS A 131      28.345  25.722  17.026  1.00 20.94     0.034 C 
BRANCH   2   3
ATOM      3  CG  LYS A 131      27.599  24.490  16.537  1.00 22.96     0.005 C 
BRANCH   3   4
ATOM      4  CD  LYS A 131      26.891  23.776  17.655  1.00 24.33     0.041 C 
BRANCH   4   5
ATOM      5  CE  LYS A 131      25.405  23.666  17.328  1.00 26.91     0.338 C 
ATOM      6  NZ  LYS A 131      24.828  22.446  17.939  1.00 27.40     0.618 N 
ENDBRANCH   4   5
ENDBRANCH   3   4
ENDBRANCH   2   3
ENDBRANCH   1   2
END_RES LYS A 131
BEGIN_RES LYS A 135
REMARK  4 active torsions:
REMARK  status: ('A' for Active; 'I' for Inactive)
REMARK    5  A    between atoms: CA   and  CB  
REMARK    6  A    between atoms: CB   and  CG  
REMARK    7  A    between atoms: CG   and  CD  
REMARK    8  A    between atoms: CD   and  CE  
ROOT
ATOM      7  CA  LYS A 135      33.193  34.663   9.290  1.00 25.02     0.186 C 
ENDROOT
BRANCH   7   8
ATOM      8  CB  LYS A 135      32.060  35.360  10.034  1.00 26.63     0.034 C 
BRANCH   8   9
ATOM      9  CG  LYS A 135      30.793  35.481   9.226  1.00 29.45     0.005 C 
BRANCH   9  10
ATOM     10  CD  LYS A 135      29.798  34.401   9.624  1.00 32.00     0.041 C 
BRANCH  10  11
ATOM     11  CE  LYS A 135      28.504  34.559   8.850  1.00 34.25     0.338 C 
ATOM     12  NZ  LYS A 135      27.421  33.724   9.441  1.00 35.99     0.618 N 
ENDBRANCH  10  11
ENDBRANCH   9  10
ENDBRANCH   8   9
ENDBRANCH   7   8
END_RES LYS A 135
