REMARK VINA RESULT:    -4.385      2.287      3.248
REMARK INTER + INTRA:         -14.635
REMARK INTER:                  -7.226
REMARK INTRA:                  -7.410
REMARK UNBOUND:                -6.277
REMARK SMILES CC(=O)N[C@@H]1[C@@H](O)C[C@](O)(C(=O)O)O[C@H]1C(O)[C@H](O)CNC(=O)OCc1cn(CCNS(C)(=O)=O)nn1
REMARK SMILES IDX 21 1 22 2 23 3 20 5 18 6 16 7 15 8 9 9 8 10 14 11 6 12 5 13
REMARK SMILES IDX 10 14 11 16 12 17 13 18 7 20 4 22 2 23 1 25 3 26 17 27 19 29
REMARK SMILES IDX 24 31 25 32 26 33 27 34 37 35 28 36 36 37 29 38 30 39 31 40
REMARK SMILES IDX 32 42 34 43 35 44 33 45
REMARK H PARENT 21 4 10 15 13 19 7 21 4 24 17 28 19 30 31 41
REMARK Flexibility Score: inf
ROOT
ATOM      1  N   UNL     1      28.663  29.983  15.828  1.00  0.00    -0.319 N 
ATOM      2  C   UNL     1      27.486  29.864  16.596  1.00  0.00     0.407 C 
ATOM      3  O   UNL     1      26.846  30.838  17.022  1.00  0.00    -0.225 OA
ATOM      4  H   UNL     1      29.120  29.075  15.511  1.00  0.00     0.167 HD
ENDROOT
BRANCH   1   5
ATOM      5  C   UNL     1      29.287  31.193  15.445  1.00  0.00     0.154 C 
BRANCH   5   6
ATOM      6  C   UNL     1      30.559  31.569  16.165  1.00  0.00     0.165 C 
BRANCH   6   7
ATOM      7  C   UNL     1      30.198  32.616  17.172  1.00  0.00     0.176 C 
BRANCH   7   8
ATOM      8  C   UNL     1      30.135  32.192  18.605  1.00  0.00     0.178 C 
ATOM      9  C   UNL     1      30.131  30.231  19.889  1.00  0.00     0.269 C 
ATOM     10  C   UNL     1      29.251  30.869  20.909  1.00  0.00     0.112 C 
ATOM     11  O   UNL     1      30.303  30.874  18.726  1.00  0.00    -0.332 OA
ATOM     12  C   UNL     1      28.324  31.909  20.341  1.00  0.00     0.145 C 
ATOM     13  C   UNL     1      29.024  32.819  19.390  1.00  0.00     0.142 C 
BRANCH   9  14
ATOM     14  O   UNL     1      29.638  28.947  19.627  1.00  0.00    -0.357 OA
ATOM     15  H   UNL     1      30.101  28.590  18.838  1.00  0.00     0.214 HD
ENDBRANCH   9  14
BRANCH   9  16
ATOM     16  C   UNL     1      31.475  30.033  20.506  1.00  0.00     0.364 C 
ATOM     17  O   UNL     1      32.163  29.006  20.363  1.00  0.00    -0.246 OA
BRANCH  16  18
ATOM     18  O   UNL     1      32.035  31.047  21.306  1.00  0.00    -0.477 OA
ATOM     19  H   UNL     1      32.799  30.855  21.940  1.00  0.00     0.296 HD
ENDBRANCH  16  18
ENDBRANCH   9  16
BRANCH  12  20
ATOM     20  O   UNL     1      27.216  31.266  19.803  1.00  0.00    -0.391 OA
ATOM     21  H   UNL     1      27.052  31.674  18.914  1.00  0.00     0.211 HD
ENDBRANCH  12  20
BRANCH  13  22
ATOM     22  N   UNL     1      29.468  33.982  20.136  1.00  0.00    -0.348 N 
ATOM     23  C   UNL     1      29.288  35.318  19.689  1.00  0.00     0.217 C 
ATOM     24  H   UNL     1      29.960  33.886  21.075  1.00  0.00     0.163 HD
ATOM     25  C   UNL     1      29.767  36.488  20.498  1.00  0.00     0.114 C 
ATOM     26  O   UNL     1      28.710  35.475  18.583  1.00  0.00    -0.275 OA
ENDBRANCH  13  22
ENDBRANCH   7   8
BRANCH   7  27
ATOM     27  O   UNL     1      28.928  33.100  16.740  1.00  0.00    -0.388 OA
ATOM     28  H   UNL     1      28.263  32.381  16.743  1.00  0.00     0.211 HD
ENDBRANCH   7  27
ENDBRANCH   6   7
BRANCH   6  29
ATOM     29  O   UNL     1      31.512  31.916  15.246  1.00  0.00    -0.388 OA
ATOM     30  H   UNL     1      32.356  32.144  15.653  1.00  0.00     0.211 HD
ENDBRANCH   6  29
ENDBRANCH   5   6
ENDBRANCH   1   5
BRANCH   2  31
ATOM     31  O   UNL     1      26.995  28.601  16.906  1.00  0.00    -0.443 OA
BRANCH  31  32
ATOM     32  C   UNL     1      25.903  28.374  17.761  1.00  0.00     0.294 C 
BRANCH  32  33
ATOM     33  C   UNL     1      26.355  27.844  19.061  1.00  0.00     0.120 A 
ATOM     34  C   UNL     1      25.722  27.903  20.286  1.00  0.00     0.138 A 
ATOM     35  N   UNL     1      27.496  27.195  19.274  1.00  0.00    -0.132 NA
ATOM     36  N   UNL     1      26.490  27.293  21.200  1.00  0.00    -0.251 N 
ATOM     37  N   UNL     1      27.569  26.871  20.549  1.00  0.00    -0.067 NA
BRANCH  36  38
ATOM     38  C   UNL     1      26.279  27.088  22.608  1.00  0.00     0.162 C 
BRANCH  38  39
ATOM     39  C   UNL     1      27.524  27.387  23.424  1.00  0.00     0.122 C 
BRANCH  39  40
ATOM     40  N   UNL     1      28.427  26.268  23.261  1.00  0.00    -0.214 NA
ATOM     41  H   UNL     1      28.234  25.732  22.403  1.00  0.00     0.141 HD
BRANCH  40  42
ATOM     42  S   UNL     1      30.077  26.751  23.304  1.00  0.00     0.208 S 
ATOM     43  O   UNL     1      30.734  26.002  24.434  1.00  0.00    -0.213 OA
ATOM     44  O   UNL     1      30.721  26.450  21.989  1.00  0.00    -0.213 OA
ATOM     45  C   UNL     1      30.218  28.491  23.645  1.00  0.00     0.176 C 
ENDBRANCH  40  42
ENDBRANCH  39  40
ENDBRANCH  38  39
ENDBRANCH  36  38
ENDBRANCH  32  33
ENDBRANCH  31  32
ENDBRANCH   2  31
TORSDOF 18
BEGIN_RES LYS A 131
REMARK  4 active torsions:
REMARK  status: ('A' for Active; 'I' for Inactive)
REMARK    1  A    between atoms: CA   and  CB  
REMARK    2  A    between atoms: CB   and  CG  
REMARK    3  A    between atoms: CG   and  CD  
REMARK    4  A    between atoms: CD   and  CE  
ROOT
ATOM      1  CA  LYS A 131      29.867  25.555  16.977  1.00 20.52     0.186 C 
ENDROOT
BRANCH   1   2
ATOM      2  CB  LYS A 131      28.345  25.722  17.026  1.00 20.94     0.034 C 
BRANCH   2   3
ATOM      3  CG  LYS A 131      27.601  24.402  16.889  1.00 22.96     0.005 C 
BRANCH   3   4
ATOM      4  CD  LYS A 131      26.622  24.185  18.010  1.00 24.33     0.041 C 
BRANCH   4   5
ATOM      5  CE  LYS A 131      25.205  24.151  17.448  1.00 26.91     0.338 C 
ATOM      6  NZ  LYS A 131      24.717  22.755  17.355  1.00 27.40     0.618 N 
ENDBRANCH   4   5
ENDBRANCH   3   4
ENDBRANCH   2   3
ENDBRANCH   1   2
END_RES LYS A 131
BEGIN_RES LYS A 135
REMARK  4 active torsions:
REMARK  status: ('A' for Active; 'I' for Inactive)
REMARK    5  A    between atoms: CA   and  CB  
REMARK    6  A    between atoms: CB   and  CG  
REMARK    7  A    between atoms: CG   and  CD  
REMARK    8  A    between atoms: CD   and  CE  
ROOT
ATOM      7  CA  LYS A 135      33.193  34.663   9.290  1.00 25.02     0.186 C 
ENDROOT
BRANCH   7   8
ATOM      8  CB  LYS A 135      32.060  35.360  10.034  1.00 26.63     0.034 C 
BRANCH   8   9
ATOM      9  CG  LYS A 135      30.713  34.720   9.816  1.00 29.45     0.005 C 
BRANCH   9  10
ATOM     10  CD  LYS A 135      30.427  34.564   8.331  1.00 32.00     0.041 C 
BRANCH  10  11
ATOM     11  CE  LYS A 135      28.960  34.820   8.041  1.00 34.25     0.338 C 
ATOM     12  NZ  LYS A 135      28.089  34.112   9.019  1.00 35.99     0.618 N 
ENDBRANCH  10  11
ENDBRANCH   9  10
ENDBRANCH   8   9
ENDBRANCH   7   8
END_RES LYS A 135
