REMARK VINA RESULT:    -5.002      2.280      5.486
REMARK INTER + INTRA:         -13.821
REMARK INTER:                  -7.986
REMARK INTRA:                  -5.835
REMARK UNBOUND:                -4.724
REMARK SMILES CC(=O)N[C@@H]1[C@@H](O)C[C@](O)(C(=O)O)O[C@H]1C(O)[C@H](O)CNC(=O)OCc1cn([C@@H](C)C(=O)O)nn1
REMARK SMILES IDX 21 1 22 2 23 3 20 5 18 6 16 7 15 8 9 9 8 10 14 11 6 12 5 13
REMARK SMILES IDX 10 14 11 16 12 17 13 18 7 20 4 22 2 23 1 25 3 26 17 27 19 29
REMARK SMILES IDX 24 31 25 32 26 33 27 34 35 35 28 36 34 37 29 38 30 39 31 40
REMARK SMILES IDX 32 41 33 42
REMARK H PARENT 21 4 10 15 13 19 7 21 4 24 17 28 19 30 33 43
REMARK Flexibility Score: inf
ROOT
ATOM      1  N   UNL     1      30.965  35.295  15.242  1.00  0.00    -0.319 N 
ATOM      2  C   UNL     1      30.244  35.203  14.029  1.00  0.00     0.407 C 
ATOM      3  O   UNL     1      30.452  34.277  13.205  1.00  0.00    -0.225 OA
ATOM      4  H   UNL     1      30.756  36.079  15.888  1.00  0.00     0.167 HD
ENDROOT
BRANCH   1   5
ATOM      5  C   UNL     1      31.970  34.339  15.603  1.00  0.00     0.154 C 
BRANCH   5   6
ATOM      6  C   UNL     1      31.545  33.437  16.767  1.00  0.00     0.165 C 
BRANCH   6   7
ATOM      7  C   UNL     1      30.583  32.438  16.224  1.00  0.00     0.176 C 
BRANCH   7   8
ATOM      8  C   UNL     1      30.383  31.198  17.028  1.00  0.00     0.178 C 
ATOM      9  C   UNL     1      28.122  30.835  16.571  1.00  0.00     0.269 C 
ATOM     10  C   UNL     1      27.837  31.804  17.649  1.00  0.00     0.112 C 
ATOM     11  O   UNL     1      29.419  30.437  16.383  1.00  0.00    -0.332 OA
ATOM     12  C   UNL     1      28.752  31.812  18.822  1.00  0.00     0.145 C 
ATOM     13  C   UNL     1      30.141  31.352  18.480  1.00  0.00     0.142 C 
BRANCH   9  14
ATOM     14  O   UNL     1      27.751  31.475  15.359  1.00  0.00    -0.357 OA
ATOM     15  H   UNL     1      28.401  31.198  14.679  1.00  0.00     0.214 HD
ENDBRANCH   9  14
BRANCH   9  16
ATOM     16  C   UNL     1      27.216  29.662  16.709  1.00  0.00     0.364 C 
ATOM     17  O   UNL     1      25.982  29.738  16.459  1.00  0.00    -0.246 OA
BRANCH  16  18
ATOM     18  O   UNL     1      27.703  28.434  17.121  1.00  0.00    -0.477 OA
ATOM     19  H   UNL     1      27.951  28.223  18.082  1.00  0.00     0.296 HD
ENDBRANCH  16  18
ENDBRANCH   9  16
BRANCH  12  20
ATOM     20  O   UNL     1      28.754  33.121  19.341  1.00  0.00    -0.391 OA
ATOM     21  H   UNL     1      29.001  33.712  18.589  1.00  0.00     0.211 HD
ENDBRANCH  12  20
BRANCH  13  22
ATOM     22  N   UNL     1      30.347  30.017  19.078  1.00  0.00    -0.348 N 
ATOM     23  C   UNL     1      31.126  29.851  20.244  1.00  0.00     0.217 C 
ATOM     24  H   UNL     1      29.933  29.161  18.667  1.00  0.00     0.163 HD
ATOM     25  C   UNL     1      31.359  28.539  20.876  1.00  0.00     0.114 C 
ATOM     26  O   UNL     1      31.662  30.867  20.797  1.00  0.00    -0.275 OA
ENDBRANCH  13  22
ENDBRANCH   7   8
BRANCH   7  27
ATOM     27  O   UNL     1      31.179  31.981  15.003  1.00  0.00    -0.388 OA
ATOM     28  H   UNL     1      31.208  30.997  15.101  1.00  0.00     0.211 HD
ENDBRANCH   7  27
ENDBRANCH   6   7
BRANCH   6  29
ATOM     29  O   UNL     1      30.942  34.290  17.684  1.00  0.00    -0.388 OA
ATOM     30  H   UNL     1      31.297  34.054  18.579  1.00  0.00     0.211 HD
ENDBRANCH   6  29
ENDBRANCH   5   6
ENDBRANCH   1   5
BRANCH   2  31
ATOM     31  O   UNL     1      29.260  36.154  13.699  1.00  0.00    -0.443 OA
BRANCH  31  32
ATOM     32  C   UNL     1      28.771  36.258  12.374  1.00  0.00     0.294 C 
BRANCH  32  33
ATOM     33  C   UNL     1      27.547  35.439  12.188  1.00  0.00     0.120 A 
ATOM     34  C   UNL     1      26.581  35.165  13.160  1.00  0.00     0.139 A 
ATOM     35  N   UNL     1      27.107  34.798  11.082  1.00  0.00    -0.132 NA
ATOM     36  N   UNL     1      25.630  34.397  12.620  1.00  0.00    -0.238 N 
ATOM     37  N   UNL     1      25.953  34.180  11.370  1.00  0.00    -0.066 NA
BRANCH  36  38
ATOM     38  C   UNL     1      24.432  33.879  13.290  1.00  0.00     0.215 C 
ATOM     39  C   UNL     1      23.237  33.985  12.357  1.00  0.00     0.046 C 
BRANCH  38  40
ATOM     40  C   UNL     1      24.610  32.500  13.740  1.00  0.00     0.328 C 
ATOM     41  O   UNL     1      24.274  31.551  12.997  1.00  0.00    -0.250 OA
BRANCH  40  42
ATOM     42  O   UNL     1      25.143  32.153  14.980  1.00  0.00    -0.480 OA
ATOM     43  H   UNL     1      26.144  32.138  15.134  1.00  0.00     0.296 HD
ENDBRANCH  40  42
ENDBRANCH  38  40
ENDBRANCH  36  38
ENDBRANCH  32  33
ENDBRANCH  31  32
ENDBRANCH   2  31
TORSDOF 17
BEGIN_RES LYS A 131
REMARK  4 active torsions:
REMARK  status: ('A' for Active; 'I' for Inactive)
REMARK    1  A    between atoms: CA   and  CB  
REMARK    2  A    between atoms: CB   and  CG  
REMARK    3  A    between atoms: CG   and  CD  
REMARK    4  A    between atoms: CD   and  CE  
ROOT
ATOM      1  CA  LYS A 131      29.867  25.555  16.977  1.00 20.52     0.186 C 
ENDROOT
BRANCH   1   2
ATOM      2  CB  LYS A 131      28.345  25.722  17.026  1.00 20.94     0.034 C 
BRANCH   2   3
ATOM      3  CG  LYS A 131      27.602  24.400  16.912  1.00 22.96     0.005 C 
BRANCH   3   4
ATOM      4  CD  LYS A 131      26.663  24.176  18.065  1.00 24.33     0.041 C 
BRANCH   4   5
ATOM      5  CE  LYS A 131      26.209  25.522  18.620  1.00 26.91     0.338 C 
ATOM      6  NZ  LYS A 131      25.664  25.362  19.989  1.00 27.40     0.618 N 
ENDBRANCH   4   5
ENDBRANCH   3   4
ENDBRANCH   2   3
ENDBRANCH   1   2
END_RES LYS A 131
BEGIN_RES LYS A 135
REMARK  4 active torsions:
REMARK  status: ('A' for Active; 'I' for Inactive)
REMARK    5  A    between atoms: CA   and  CB  
REMARK    6  A    between atoms: CB   and  CG  
REMARK    7  A    between atoms: CG   and  CD  
REMARK    8  A    between atoms: CD   and  CE  
ROOT
ATOM      7  CA  LYS A 135      33.193  34.663   9.290  1.00 25.02     0.186 C 
ENDROOT
BRANCH   7   8
ATOM      8  CB  LYS A 135      32.060  35.360  10.034  1.00 26.63     0.034 C 
BRANCH   8   9
ATOM      9  CG  LYS A 135      30.708  34.742   9.789  1.00 29.45     0.005 C 
BRANCH   9  10
ATOM     10  CD  LYS A 135      30.454  34.580   8.298  1.00 32.00     0.041 C 
BRANCH  10  11
ATOM     11  CE  LYS A 135      29.025  34.957   7.957  1.00 34.25     0.338 C 
ATOM     12  NZ  LYS A 135      28.931  35.516   6.580  1.00 35.99     0.618 N 
ENDBRANCH  10  11
ENDBRANCH   9  10
ENDBRANCH   8   9
ENDBRANCH   7   8
END_RES LYS A 135
