REMARK VINA RESULT:    -4.724      5.789     13.358
REMARK INTER + INTRA:         -14.555
REMARK INTER:                  -9.118
REMARK INTRA:                  -5.437
REMARK UNBOUND:                -5.964
REMARK SMILES CC(=O)N[C@@H]1[C@@H](O)C[C@](O)(C(=O)O)O[C@H]1C(O)[C@H](O)CNC(=O)OCc1cn(-c2ccc(S(N)(=O)=O)cc2)nn1
REMARK SMILES IDX 21 1 22 2 23 3 20 5 18 6 16 7 15 8 9 9 8 10 14 11 6 12 5 13
REMARK SMILES IDX 10 14 11 16 12 17 13 18 7 20 4 22 2 23 1 25 3 26 17 27 19 29
REMARK SMILES IDX 24 31 25 32 26 33 27 34 40 35 28 36 39 37 29 38 30 39 38 40
REMARK SMILES IDX 31 41 37 42 32 43 33 44 35 45 36 46 34 47
REMARK H PARENT 21 4 10 15 13 19 7 21 4 24 17 28 19 30 34 48 34 49
REMARK Flexibility Score: inf
ROOT
ATOM      1  N   UNL     1      23.617  37.525   8.405  1.00  0.00    -0.319 N 
ATOM      2  C   UNL     1      22.714  36.477   8.635  1.00  0.00     0.407 C 
ATOM      3  O   UNL     1      21.529  36.565   8.273  1.00  0.00    -0.225 OA
ATOM      4  H   UNL     1      24.611  37.387   8.735  1.00  0.00     0.167 HD
ENDROOT
BRANCH   1   5
ATOM      5  C   UNL     1      23.237  38.731   7.758  1.00  0.00     0.154 C 
BRANCH   5   6
ATOM      6  C   UNL     1      24.332  39.791   7.775  1.00  0.00     0.165 C 
BRANCH   6   7
ATOM      7  C   UNL     1      25.554  39.200   8.416  1.00  0.00     0.176 C 
BRANCH   7   8
ATOM      8  C   UNL     1      26.784  39.278   7.596  1.00  0.00     0.178 C 
ATOM      9  C   UNL     1      27.426  39.207   5.357  1.00  0.00     0.269 C 
ATOM     10  C   UNL     1      28.696  39.705   6.002  1.00  0.00     0.112 C 
ATOM     11  O   UNL     1      26.421  38.980   6.255  1.00  0.00    -0.332 OA
ATOM     12  C   UNL     1      29.126  38.880   7.176  1.00  0.00     0.145 C 
ATOM     13  C   UNL     1      27.913  38.370   7.913  1.00  0.00     0.142 C 
BRANCH   9  14
ATOM     14  O   UNL     1      27.679  38.074   4.547  1.00  0.00    -0.357 OA
ATOM     15  H   UNL     1      27.615  37.241   5.080  1.00  0.00     0.214 HD
ENDBRANCH   9  14
BRANCH   9  16
ATOM     16  C   UNL     1      26.972  40.268   4.419  1.00  0.00     0.364 C 
ATOM     17  O   UNL     1      27.847  40.920   3.795  1.00  0.00    -0.246 OA
BRANCH  16  18
ATOM     18  O   UNL     1      25.646  40.583   4.190  1.00  0.00    -0.477 OA
ATOM     19  H   UNL     1      25.279  40.642   3.244  1.00  0.00     0.296 HD
ENDBRANCH  16  18
ENDBRANCH   9  16
BRANCH  12  20
ATOM     20  O   UNL     1      29.949  37.859   6.715  1.00  0.00    -0.391 OA
ATOM     21  H   UNL     1      30.139  37.280   7.496  1.00  0.00     0.211 HD
ENDBRANCH  12  20
BRANCH  13  22
ATOM     22  N   UNL     1      28.159  38.051   9.268  1.00  0.00    -0.348 N 
ATOM     23  C   UNL     1      28.924  38.881  10.120  1.00  0.00     0.217 C 
ATOM     24  H   UNL     1      27.757  37.189   9.686  1.00  0.00     0.163 HD
ATOM     25  C   UNL     1      29.177  38.526  11.559  1.00  0.00     0.114 C 
ATOM     26  O   UNL     1      29.392  39.930   9.642  1.00  0.00    -0.275 OA
ENDBRANCH  13  22
ENDBRANCH   7   8
BRANCH   7  27
ATOM     27  O   UNL     1      25.677  39.398   9.766  1.00  0.00    -0.388 OA
ATOM     28  H   UNL     1      25.749  38.527  10.215  1.00  0.00     0.211 HD
ENDBRANCH   7  27
ENDBRANCH   6   7
BRANCH   6  29
ATOM     29  O   UNL     1      23.841  40.926   8.363  1.00  0.00    -0.388 OA
ATOM     30  H   UNL     1      24.250  41.736   7.949  1.00  0.00     0.211 HD
ENDBRANCH   6  29
ENDBRANCH   5   6
ENDBRANCH   1   5
BRANCH   2  31
ATOM     31  O   UNL     1      23.090  35.288   9.278  1.00  0.00    -0.443 OA
BRANCH  31  32
ATOM     32  C   UNL     1      23.317  35.253  10.652  1.00  0.00     0.294 C 
BRANCH  32  33
ATOM     33  C   UNL     1      24.752  35.389  10.985  1.00  0.00     0.121 A 
ATOM     34  C   UNL     1      25.501  34.758  11.949  1.00  0.00     0.144 A 
ATOM     35  N   UNL     1      25.614  36.216  10.340  1.00  0.00    -0.131 NA
ATOM     36  N   UNL     1      26.772  35.194  11.884  1.00  0.00    -0.220 N 
ATOM     37  N   UNL     1      26.801  36.073  10.902  1.00  0.00    -0.062 NA
BRANCH  36  38
ATOM     38  C   UNL     1      27.886  34.816  12.687  1.00  0.00     0.066 A 
ATOM     39  C   UNL     1      27.731  34.390  13.988  1.00  0.00     0.030 A 
ATOM     40  C   UNL     1      29.176  34.863  12.190  1.00  0.00     0.030 A 
ATOM     41  C   UNL     1      28.798  34.021  14.777  1.00  0.00     0.024 A 
ATOM     42  C   UNL     1      30.246  34.495  12.977  1.00  0.00     0.024 A 
ATOM     43  C   UNL     1      30.105  34.067  14.280  1.00  0.00     0.082 A 
BRANCH  43  44
ATOM     44  S   UNL     1      31.457  33.599  15.286  1.00  0.00     0.238 S 
ATOM     45  O   UNL     1      31.252  34.238  16.631  1.00  0.00    -0.207 OA
ATOM     46  O   UNL     1      31.399  32.105  15.504  1.00  0.00    -0.207 OA
BRANCH  44  47
ATOM     47  N   UNL     1      32.968  34.062  14.626  1.00  0.00    -0.225 NA
ATOM     48  H   UNL     1      32.916  34.674  13.804  1.00  0.00     0.137 HD
ATOM     49  H   UNL     1      33.624  34.424  15.354  1.00  0.00     0.137 HD
ENDBRANCH  44  47
ENDBRANCH  43  44
ENDBRANCH  36  38
ENDBRANCH  32  33
ENDBRANCH  31  32
ENDBRANCH   2  31
TORSDOF 17
BEGIN_RES LYS A 131
REMARK  4 active torsions:
REMARK  status: ('A' for Active; 'I' for Inactive)
REMARK    1  A    between atoms: CA   and  CB  
REMARK    2  A    between atoms: CB   and  CG  
REMARK    3  A    between atoms: CG   and  CD  
REMARK    4  A    between atoms: CD   and  CE  
ROOT
ATOM      1  CA  LYS A 131      29.867  25.555  16.977  1.00 20.52     0.186 C 
ENDROOT
BRANCH   1   2
ATOM      2  CB  LYS A 131      28.345  25.722  17.026  1.00 20.94     0.034 C 
BRANCH   2   3
ATOM      3  CG  LYS A 131      27.602  24.399  16.924  1.00 22.96     0.005 C 
BRANCH   3   4
ATOM      4  CD  LYS A 131      26.638  24.201  18.061  1.00 24.33     0.041 C 
BRANCH   4   5
ATOM      5  CE  LYS A 131      26.394  25.536  18.759  1.00 26.91     0.338 C 
ATOM      6  NZ  LYS A 131      25.535  25.348  19.952  1.00 27.40     0.618 N 
ENDBRANCH   4   5
ENDBRANCH   3   4
ENDBRANCH   2   3
ENDBRANCH   1   2
END_RES LYS A 131
BEGIN_RES LYS A 135
REMARK  4 active torsions:
REMARK  status: ('A' for Active; 'I' for Inactive)
REMARK    5  A    between atoms: CA   and  CB  
REMARK    6  A    between atoms: CB   and  CG  
REMARK    7  A    between atoms: CG   and  CD  
REMARK    8  A    between atoms: CD   and  CE  
ROOT
ATOM      7  CA  LYS A 135      33.193  34.663   9.290  1.00 25.02     0.186 C 
ENDROOT
BRANCH   7   8
ATOM      8  CB  LYS A 135      32.060  35.360  10.034  1.00 26.63     0.034 C 
BRANCH   8   9
ATOM      9  CG  LYS A 135      30.809  35.525   9.210  1.00 29.45     0.005 C 
BRANCH   9  10
ATOM     10  CD  LYS A 135      30.318  34.177   8.705  1.00 32.00     0.041 C 
BRANCH  10  11
ATOM     11  CE  LYS A 135      28.802  34.137   8.683  1.00 34.25     0.338 C 
ATOM     12  NZ  LYS A 135      28.259  34.969   7.574  1.00 35.99     0.618 N 
ENDBRANCH  10  11
ENDBRANCH   9  10
ENDBRANCH   8   9
ENDBRANCH   7   8
END_RES LYS A 135
