REMARK VINA RESULT:    -5.024      0.000      0.000
REMARK INTER + INTRA:         -15.759
REMARK INTER:                 -10.923
REMARK INTRA:                  -4.836
REMARK UNBOUND:                -6.624
REMARK SMILES CC(=O)N[C@@H]1[C@@H](O)C[C@](O)(C(=O)O)O[C@H]1C(O)[C@H](O)CNC(=O)OCc1cn(-c2cccc(S(N)(=O)=O)c2)nn1
REMARK SMILES IDX 21 1 22 2 23 3 20 5 18 6 16 7 15 8 9 9 8 10 14 11 6 12 5 13
REMARK SMILES IDX 10 14 11 16 12 17 13 18 7 20 4 22 2 23 1 25 3 26 17 27 19 29
REMARK SMILES IDX 24 31 25 32 26 33 27 34 40 35 28 36 39 37 29 38 38 39 30 40
REMARK SMILES IDX 33 41 31 42 32 43 34 44 36 45 37 46 35 47
REMARK H PARENT 21 4 10 15 13 19 7 21 4 24 17 28 19 30 35 48 35 49
REMARK Flexibility Score: inf
ROOT
ATOM      1  N   UNL     1      25.677  37.172  10.804  1.00  0.00    -0.319 N 
ATOM      2  C   UNL     1      26.117  38.335  11.486  1.00  0.00     0.407 C 
ATOM      3  O   UNL     1      25.330  39.289  11.613  1.00  0.00    -0.225 OA
ATOM      4  H   UNL     1      26.395  36.401  10.734  1.00  0.00     0.167 HD
ENDROOT
BRANCH   1   5
ATOM      5  C   UNL     1      24.354  37.044  10.247  1.00  0.00     0.154 C 
BRANCH   5   6
ATOM      6  C   UNL     1      24.414  36.571   8.810  1.00  0.00     0.165 C 
BRANCH   6   7
ATOM      7  C   UNL     1      25.294  37.520   8.008  1.00  0.00     0.176 C 
BRANCH   7   8
ATOM      8  C   UNL     1      26.334  36.692   7.256  1.00  0.00     0.178 C 
ATOM      9  C   UNL     1      28.058  35.682   8.431  1.00  0.00     0.269 C 
ATOM     10  C   UNL     1      29.035  35.824   7.288  1.00  0.00     0.112 C 
ATOM     11  O   UNL     1      26.744  35.637   8.011  1.00  0.00    -0.332 OA
ATOM     12  C   UNL     1      28.537  36.714   6.200  1.00  0.00     0.145 C 
ATOM     13  C   UNL     1      27.425  37.595   6.769  1.00  0.00     0.142 C 
BRANCH   9  14
ATOM     14  O   UNL     1      28.216  36.690   9.378  1.00  0.00    -0.357 OA
ATOM     15  H   UNL     1      27.806  37.536   9.017  1.00  0.00     0.214 HD
ENDBRANCH   9  14
BRANCH   9  16
ATOM     16  C   UNL     1      28.357  34.387   9.098  1.00  0.00     0.364 C 
ATOM     17  O   UNL     1      29.454  33.794   8.928  1.00  0.00    -0.246 OA
BRANCH  16  18
ATOM     18  O   UNL     1      27.436  33.765   9.943  1.00  0.00    -0.477 OA
ATOM     19  H   UNL     1      26.441  33.876   9.789  1.00  0.00     0.296 HD
ENDBRANCH  16  18
ENDBRANCH   9  16
BRANCH  12  20
ATOM     20  O   UNL     1      29.519  37.488   5.607  1.00  0.00    -0.391 OA
ATOM     21  H   UNL     1      29.550  38.423   5.958  1.00  0.00     0.211 HD
ENDBRANCH  12  20
BRANCH  13  22
ATOM     22  N   UNL     1      26.876  38.411   5.699  1.00  0.00    -0.348 N 
ATOM     23  C   UNL     1      27.262  39.769   5.498  1.00  0.00     0.217 C 
ATOM     24  H   UNL     1      26.164  37.980   5.047  1.00  0.00     0.163 HD
ATOM     25  C   UNL     1      26.635  40.506   4.371  1.00  0.00     0.114 C 
ATOM     26  O   UNL     1      28.101  40.260   6.273  1.00  0.00    -0.275 OA
ENDBRANCH  13  22
ENDBRANCH   7   8
BRANCH   7  27
ATOM     27  O   UNL     1      24.491  38.155   7.077  1.00  0.00    -0.388 OA
ATOM     28  H   UNL     1      23.539  37.936   7.215  1.00  0.00     0.211 HD
ENDBRANCH   7  27
ENDBRANCH   6   7
BRANCH   6  29
ATOM     29  O   UNL     1      23.106  36.585   8.293  1.00  0.00    -0.388 OA
ATOM     30  H   UNL     1      22.435  36.360   9.010  1.00  0.00     0.211 HD
ENDBRANCH   6  29
ENDBRANCH   5   6
ENDBRANCH   1   5
BRANCH   2  31
ATOM     31  O   UNL     1      27.408  38.426  12.014  1.00  0.00    -0.443 OA
BRANCH  31  32
ATOM     32  C   UNL     1      27.698  37.980  13.323  1.00  0.00     0.294 C 
BRANCH  32  33
ATOM     33  C   UNL     1      28.210  36.587  13.284  1.00  0.00     0.121 A 
ATOM     34  C   UNL     1      28.617  35.862  14.387  1.00  0.00     0.144 A 
ATOM     35  N   UNL     1      28.375  35.784  12.226  1.00  0.00    -0.131 NA
ATOM     36  N   UNL     1      29.001  34.666  13.913  1.00  0.00    -0.220 N 
ATOM     37  N   UNL     1      28.858  34.608  12.598  1.00  0.00    -0.062 NA
BRANCH  36  38
ATOM     38  C   UNL     1      29.500  33.588  14.701  1.00  0.00     0.068 A 
ATOM     39  C   UNL     1      28.677  32.725  15.391  1.00  0.00     0.050 A 
ATOM     40  C   UNL     1      30.864  33.369  14.803  1.00  0.00     0.028 A 
ATOM     41  C   UNL     1      29.173  31.674  16.160  1.00  0.00     0.084 A 
ATOM     42  C   UNL     1      31.375  32.343  15.551  1.00  0.00     0.004 A 
ATOM     43  C   UNL     1      30.528  31.498  16.227  1.00  0.00     0.022 A 
BRANCH  41  44
ATOM     44  S   UNL     1      28.132  30.591  17.025  1.00  0.00     0.238 S 
ATOM     45  O   UNL     1      27.767  29.451  16.108  1.00  0.00    -0.207 OA
ATOM     46  O   UNL     1      26.840  31.300  17.358  1.00  0.00    -0.207 OA
BRANCH  44  47
ATOM     47  N   UNL     1      28.891  29.962  18.430  1.00  0.00    -0.225 NA
ATOM     48  H   UNL     1      29.671  29.338  18.157  1.00  0.00     0.137 HD
ATOM     49  H   UNL     1      28.221  29.479  19.064  1.00  0.00     0.137 HD
ENDBRANCH  44  47
ENDBRANCH  41  44
ENDBRANCH  36  38
ENDBRANCH  32  33
ENDBRANCH  31  32
ENDBRANCH   2  31
TORSDOF 17
BEGIN_RES LYS A 131
REMARK  4 active torsions:
REMARK  status: ('A' for Active; 'I' for Inactive)
REMARK    1  A    between atoms: CA   and  CB  
REMARK    2  A    between atoms: CB   and  CG  
REMARK    3  A    between atoms: CG   and  CD  
REMARK    4  A    between atoms: CD   and  CE  
ROOT
ATOM      1  CA  LYS A 131      29.867  25.555  16.977  1.00 20.52     0.186 C 
ENDROOT
BRANCH   1   2
ATOM      2  CB  LYS A 131      28.345  25.722  17.026  1.00 20.94     0.034 C 
BRANCH   2   3
ATOM      3  CG  LYS A 131      27.602  24.399  16.918  1.00 22.96     0.005 C 
BRANCH   3   4
ATOM      4  CD  LYS A 131      26.154  24.530  17.303  1.00 24.33     0.041 C 
BRANCH   4   5
ATOM      5  CE  LYS A 131      25.791  23.432  18.298  1.00 26.91     0.338 C 
ATOM      6  NZ  LYS A 131      24.940  22.406  17.649  1.00 27.40     0.618 N 
ENDBRANCH   4   5
ENDBRANCH   3   4
ENDBRANCH   2   3
ENDBRANCH   1   2
END_RES LYS A 131
BEGIN_RES LYS A 135
REMARK  4 active torsions:
REMARK  status: ('A' for Active; 'I' for Inactive)
REMARK    5  A    between atoms: CA   and  CB  
REMARK    6  A    between atoms: CB   and  CG  
REMARK    7  A    between atoms: CG   and  CD  
REMARK    8  A    between atoms: CD   and  CE  
ROOT
ATOM      7  CA  LYS A 135      33.193  34.663   9.290  1.00 25.02     0.186 C 
ENDROOT
BRANCH   7   8
ATOM      8  CB  LYS A 135      32.060  35.360  10.034  1.00 26.63     0.034 C 
BRANCH   8   9
ATOM      9  CG  LYS A 135      32.536  36.349  11.066  1.00 29.45     0.005 C 
BRANCH   9  10
ATOM     10  CD  LYS A 135      31.488  37.426  11.301  1.00 32.00     0.041 C 
BRANCH  10  11
ATOM     11  CE  LYS A 135      31.509  37.884  12.747  1.00 34.25     0.338 C 
ATOM     12  NZ  LYS A 135      31.930  36.780  13.653  1.00 35.99     0.618 N 
ENDBRANCH  10  11
ENDBRANCH   9  10
ENDBRANCH   8   9
ENDBRANCH   7   8
END_RES LYS A 135
