REMARK VINA RESULT:    -5.459      3.829      6.861
REMARK INTER + INTRA:         -14.950
REMARK INTER:                  -8.624
REMARK INTRA:                  -6.326
REMARK UNBOUND:                -5.502
REMARK SMILES CC(=O)N[C@@H]1[C@@H](O)C[C@](O)(C(=O)O)O[C@H]1C(O)[C@H](O)CNC(=O)OCc1cn([C@@H]2C[C@H]3CC[C@@H](C2)N3C)nn1
REMARK SMILES IDX 20 1 18 2 16 3 15 4 9 5 8 6 14 7 6 8 5 9 10 10 11 12 12 13
REMARK SMILES IDX 13 14 7 16 4 18 2 19 1 21 3 22 17 23 19 25 21 27 22 28 23 30
REMARK SMILES IDX 24 31 25 32 26 33 27 34 39 35 28 36 38 37 29 38 35 39 30 40
REMARK SMILES IDX 34 41 31 42 36 43 33 44 32 45 37 46
REMARK H PARENT 10 11 13 15 7 17 4 20 17 24 19 26 21 29
REMARK Flexibility Score: inf
ROOT
ATOM      1  C   UNL     1      30.376  31.118  16.353  1.00  0.00     0.154 C 
ENDROOT
BRANCH   1   2
ATOM      2  C   UNL     1      28.957  30.917  15.909  1.00  0.00     0.165 C 
BRANCH   2   3
ATOM      3  C   UNL     1      28.044  31.969  16.528  1.00  0.00     0.176 C 
BRANCH   3   4
ATOM      4  C   UNL     1      27.656  32.953  15.425  1.00  0.00     0.178 C 
ATOM      5  C   UNL     1      28.167  35.170  14.881  1.00  0.00     0.269 C 
ATOM      6  C   UNL     1      26.745  35.631  14.960  1.00  0.00     0.112 C 
ATOM      7  O   UNL     1      28.455  34.019  15.537  1.00  0.00    -0.332 OA
ATOM      8  C   UNL     1      25.789  34.634  15.521  1.00  0.00     0.145 C 
ATOM      9  C   UNL     1      26.175  33.201  15.372  1.00  0.00     0.142 C 
BRANCH   5  10
ATOM     10  O   UNL     1      28.971  36.160  15.453  1.00  0.00    -0.357 OA
ATOM     11  H   UNL     1      29.686  36.466  14.845  1.00  0.00     0.214 HD
ENDBRANCH   5  10
BRANCH   5  12
ATOM     12  C   UNL     1      28.632  35.024  13.486  1.00  0.00     0.364 C 
ATOM     13  O   UNL     1      28.090  35.689  12.578  1.00  0.00    -0.246 OA
BRANCH  12  14
ATOM     14  O   UNL     1      29.662  34.174  13.096  1.00  0.00    -0.477 OA
ATOM     15  H   UNL     1      29.949  34.128  12.106  1.00  0.00     0.296 HD
ENDBRANCH  12  14
ENDBRANCH   5  12
BRANCH   8  16
ATOM     16  O   UNL     1      25.593  34.962  16.870  1.00  0.00    -0.391 OA
ATOM     17  H   UNL     1      25.870  34.210  17.446  1.00  0.00     0.211 HD
ENDBRANCH   8  16
BRANCH   9  18
ATOM     18  N   UNL     1      25.559  32.520  14.265  1.00  0.00    -0.348 N 
ATOM     19  C   UNL     1      24.940  31.252  14.360  1.00  0.00     0.217 C 
ATOM     20  H   UNL     1      25.555  32.971  13.311  1.00  0.00     0.163 HD
ATOM     21  C   UNL     1      24.303  30.533  13.236  1.00  0.00     0.114 C 
ATOM     22  O   UNL     1      24.954  30.733  15.502  1.00  0.00    -0.275 OA
ENDBRANCH   9  18
ENDBRANCH   3   4
BRANCH   3  23
ATOM     23  O   UNL     1      28.645  32.626  17.589  1.00  0.00    -0.388 OA
ATOM     24  H   UNL     1      28.000  32.640  18.342  1.00  0.00     0.211 HD
ENDBRANCH   3  23
ENDBRANCH   2   3
BRANCH   2  25
ATOM     25  O   UNL     1      28.460  29.686  16.231  1.00  0.00    -0.388 OA
ATOM     26  H   UNL     1      28.095  29.236  15.414  1.00  0.00     0.211 HD
ENDBRANCH   2  25
ENDBRANCH   1   2
BRANCH   1  27
ATOM     27  N   UNL     1      31.126  31.939  15.465  1.00  0.00    -0.319 N 
ATOM     28  C   UNL     1      31.678  33.191  15.788  1.00  0.00     0.407 C 
ATOM     29  H   UNL     1      31.294  31.594  14.468  1.00  0.00     0.167 HD
ATOM     30  O   UNL     1      31.551  33.714  16.910  1.00  0.00    -0.225 OA
BRANCH  28  31
ATOM     31  O   UNL     1      32.408  33.891  14.808  1.00  0.00    -0.443 OA
BRANCH  31  32
ATOM     32  C   UNL     1      32.928  35.163  15.138  1.00  0.00     0.294 C 
BRANCH  32  33
ATOM     33  C   UNL     1      32.218  36.216  14.411  1.00  0.00     0.120 A 
ATOM     34  C   UNL     1      32.045  36.270  13.033  1.00  0.00     0.138 A 
ATOM     35  N   UNL     1      31.620  37.292  14.918  1.00  0.00    -0.132 NA
ATOM     36  N   UNL     1      31.348  37.379  12.757  1.00  0.00    -0.249 N 
ATOM     37  N   UNL     1      31.108  37.971  13.907  1.00  0.00    -0.067 NA
BRANCH  36  38
ATOM     38  C   UNL     1      30.925  37.862  11.467  1.00  0.00     0.112 C 
ATOM     39  C   UNL     1      30.164  39.173  11.660  1.00  0.00     0.046 C 
ATOM     40  C   UNL     1      32.177  38.167  10.676  1.00  0.00     0.046 C 
ATOM     41  C   UNL     1      29.942  39.801  10.311  1.00  0.00     0.058 C 
ATOM     42  C   UNL     1      31.853  38.977   9.463  1.00  0.00     0.058 C 
ATOM     43  N   UNL     1      31.211  40.222   9.747  1.00  0.00    -0.300 NA
ATOM     44  C   UNL     1      29.496  38.747   9.313  1.00  0.00     0.021 C 
ATOM     45  C   UNL     1      30.758  38.220   8.701  1.00  0.00     0.021 C 
ATOM     46  C   UNL     1      31.957  41.079  10.622  1.00  0.00     0.105 C 
ENDBRANCH  36  38
ENDBRANCH  32  33
ENDBRANCH  31  32
ENDBRANCH  28  31
ENDBRANCH   1  27
TORSDOF 15
BEGIN_RES LYS A 131
REMARK  4 active torsions:
REMARK  status: ('A' for Active; 'I' for Inactive)
REMARK    1  A    between atoms: CA   and  CB  
REMARK    2  A    between atoms: CB   and  CG  
REMARK    3  A    between atoms: CG   and  CD  
REMARK    4  A    between atoms: CD   and  CE  
ROOT
ATOM      1  CA  LYS A 131      29.867  25.555  16.977  1.00 20.52     0.186 C 
ENDROOT
BRANCH   1   2
ATOM      2  CB  LYS A 131      28.345  25.722  17.026  1.00 20.94     0.034 C 
BRANCH   2   3
ATOM      3  CG  LYS A 131      27.601  24.400  16.908  1.00 22.96     0.005 C 
BRANCH   3   4
ATOM      4  CD  LYS A 131      26.149  24.533  17.273  1.00 24.33     0.041 C 
BRANCH   4   5
ATOM      5  CE  LYS A 131      25.918  25.873  17.963  1.00 26.91     0.338 C 
ATOM      6  NZ  LYS A 131      24.468  26.158  18.072  1.00 27.40     0.618 N 
ENDBRANCH   4   5
ENDBRANCH   3   4
ENDBRANCH   2   3
ENDBRANCH   1   2
END_RES LYS A 131
BEGIN_RES LYS A 135
REMARK  4 active torsions:
REMARK  status: ('A' for Active; 'I' for Inactive)
REMARK    5  A    between atoms: CA   and  CB  
REMARK    6  A    between atoms: CB   and  CG  
REMARK    7  A    between atoms: CG   and  CD  
REMARK    8  A    between atoms: CD   and  CE  
ROOT
ATOM      7  CA  LYS A 135      33.193  34.663   9.290  1.00 25.02     0.186 C 
ENDROOT
BRANCH   7   8
ATOM      8  CB  LYS A 135      32.060  35.360  10.034  1.00 26.63     0.034 C 
BRANCH   8   9
ATOM      9  CG  LYS A 135      30.735  34.652   9.914  1.00 29.45     0.005 C 
BRANCH   9  10
ATOM     10  CD  LYS A 135      30.323  34.530   8.455  1.00 32.00     0.041 C 
BRANCH  10  11
ATOM     11  CE  LYS A 135      28.812  34.549   8.325  1.00 34.25     0.338 C 
ATOM     12  NZ  LYS A 135      28.167  33.827   9.456  1.00 35.99     0.618 N 
ENDBRANCH  10  11
ENDBRANCH   9  10
ENDBRANCH   8   9
ENDBRANCH   7   8
END_RES LYS A 135
