REMARK VINA RESULT:    -4.908      2.098      2.993
REMARK INTER + INTRA:         -14.659
REMARK INTER:                  -9.332
REMARK INTRA:                  -5.327
REMARK UNBOUND:                -5.735
REMARK SMILES CC(=O)N[C@@H]1[C@@H](O)C[C@](O)(C(=O)O)O[C@H]1C(O)[C@H](O)CNC(=O)OCc1cn(-c2ccc(CO)cn2)nn1
REMARK SMILES IDX 21 1 22 2 23 3 20 5 18 6 16 7 15 8 9 9 8 10 14 11 6 12 5 13
REMARK SMILES IDX 10 14 11 16 12 17 13 18 7 20 4 22 2 23 1 25 3 26 17 27 19 29
REMARK SMILES IDX 24 31 25 32 26 33 27 34 38 35 28 36 37 37 29 38 30 39 36 40
REMARK SMILES IDX 31 41 35 42 32 43 33 44 34 45
REMARK H PARENT 21 4 10 15 13 19 7 21 4 24 17 28 19 30 34 46
REMARK Flexibility Score: inf
ROOT
ATOM      1  N   UNL     1      27.843  28.214  21.063  1.00  0.00    -0.319 N 
ATOM      2  C   UNL     1      26.750  28.952  20.497  1.00  0.00     0.407 C 
ATOM      3  O   UNL     1      25.605  28.634  20.889  1.00  0.00    -0.225 OA
ATOM      4  H   UNL     1      28.779  28.520  20.720  1.00  0.00     0.167 HD
ENDROOT
BRANCH   1   5
ATOM      5  C   UNL     1      27.617  27.177  22.032  1.00  0.00     0.154 C 
BRANCH   5   6
ATOM      6  C   UNL     1      28.202  27.596  23.372  1.00  0.00     0.165 C 
BRANCH   6   7
ATOM      7  C   UNL     1      29.665  27.266  23.308  1.00  0.00     0.176 C 
BRANCH   7   8
ATOM      8  C   UNL     1      30.596  28.363  22.881  1.00  0.00     0.178 C 
ATOM      9  C   UNL     1      31.781  28.793  20.886  1.00  0.00     0.269 C 
ATOM     10  C   UNL     1      33.014  29.242  21.631  1.00  0.00     0.112 C 
ATOM     11  O   UNL     1      30.989  27.984  21.624  1.00  0.00    -0.332 OA
ATOM     12  C   UNL     1      33.048  28.382  22.880  1.00  0.00     0.145 C 
ATOM     13  C   UNL     1      31.770  28.645  23.716  1.00  0.00     0.142 C 
BRANCH   9  14
ATOM     14  O   UNL     1      32.273  28.062  19.760  1.00  0.00    -0.357 OA
ATOM     15  H   UNL     1      31.506  27.782  19.197  1.00  0.00     0.214 HD
ENDBRANCH   9  14
BRANCH   9  16
ATOM     16  C   UNL     1      30.994  29.908  20.318  1.00  0.00     0.364 C 
ATOM     17  O   UNL     1      31.260  31.079  20.650  1.00  0.00    -0.246 OA
BRANCH  16  18
ATOM     18  O   UNL     1      29.969  29.675  19.423  1.00  0.00    -0.477 OA
ATOM     19  H   UNL     1      29.380  28.862  19.552  1.00  0.00     0.296 HD
ENDBRANCH  16  18
ENDBRANCH   9  16
BRANCH  12  20
ATOM     20  O   UNL     1      33.210  27.047  22.606  1.00  0.00    -0.391 OA
ATOM     21  H   UNL     1      32.609  26.787  21.850  1.00  0.00     0.211 HD
ENDBRANCH  12  20
BRANCH  13  22
ATOM     22  N   UNL     1      31.919  29.991  24.167  1.00  0.00    -0.348 N 
ATOM     23  C   UNL     1      32.084  30.315  25.523  1.00  0.00     0.217 C 
ATOM     24  H   UNL     1      31.900  30.755  23.470  1.00  0.00     0.163 HD
ATOM     25  C   UNL     1      32.240  31.713  25.992  1.00  0.00     0.114 C 
ATOM     26  O   UNL     1      32.103  29.400  26.370  1.00  0.00    -0.275 OA
ENDBRANCH  13  22
ENDBRANCH   7   8
BRANCH   7  27
ATOM     27  O   UNL     1      29.828  26.242  22.357  1.00  0.00    -0.388 OA
ATOM     28  H   UNL     1      29.928  25.352  22.792  1.00  0.00     0.211 HD
ENDBRANCH   7  27
ENDBRANCH   6   7
BRANCH   6  29
ATOM     29  O   UNL     1      27.561  26.716  24.287  1.00  0.00    -0.388 OA
ATOM     30  H   UNL     1      27.332  27.217  25.086  1.00  0.00     0.211 HD
ENDBRANCH   6  29
ENDBRANCH   5   6
ENDBRANCH   1   5
BRANCH   2  31
ATOM     31  O   UNL     1      26.915  29.953  19.580  1.00  0.00    -0.443 OA
BRANCH  31  32
ATOM     32  C   UNL     1      26.372  29.945  18.295  1.00  0.00     0.294 C 
BRANCH  32  33
ATOM     33  C   UNL     1      27.373  30.168  17.222  1.00  0.00     0.121 A 
ATOM     34  C   UNL     1      28.038  31.378  17.012  1.00  0.00     0.146 A 
ATOM     35  N   UNL     1      27.845  29.361  16.280  1.00  0.00    -0.131 NA
ATOM     36  N   UNL     1      28.861  31.245  15.972  1.00  0.00    -0.202 N 
ATOM     37  N   UNL     1      28.736  30.015  15.533  1.00  0.00    -0.061 NA
BRANCH  36  38
ATOM     38  C   UNL     1      29.715  32.265  15.433  1.00  0.00     0.155 A 
ATOM     39  C   UNL     1      31.075  32.300  15.656  1.00  0.00     0.049 A 
ATOM     40  N   UNL     1      29.190  33.248  14.685  1.00  0.00    -0.237 NA
ATOM     41  C   UNL     1      31.894  33.277  15.155  1.00  0.00     0.011 A 
ATOM     42  C   UNL     1      29.951  34.226  14.171  1.00  0.00     0.119 A 
ATOM     43  C   UNL     1      31.324  34.274  14.388  1.00  0.00    -0.004 A 
BRANCH  43  44
ATOM     44  C   UNL     1      32.123  35.384  13.793  1.00  0.00     0.193 C 
BRANCH  44  45
ATOM     45  O   UNL     1      33.012  34.852  12.867  1.00  0.00    -0.392 OA
ATOM     46  H   UNL     1      33.768  35.478  12.728  1.00  0.00     0.211 HD
ENDBRANCH  44  45
ENDBRANCH  43  44
ENDBRANCH  36  38
ENDBRANCH  32  33
ENDBRANCH  31  32
ENDBRANCH   2  31
TORSDOF 17
BEGIN_RES LYS A 131
REMARK  4 active torsions:
REMARK  status: ('A' for Active; 'I' for Inactive)
REMARK    1  A    between atoms: CA   and  CB  
REMARK    2  A    between atoms: CB   and  CG  
REMARK    3  A    between atoms: CG   and  CD  
REMARK    4  A    between atoms: CD   and  CE  
ROOT
ATOM      1  CA  LYS A 131      29.867  25.555  16.977  1.00 20.52     0.186 C 
ENDROOT
BRANCH   1   2
ATOM      2  CB  LYS A 131      28.345  25.722  17.026  1.00 20.94     0.034 C 
BRANCH   2   3
ATOM      3  CG  LYS A 131      27.603  24.396  16.967  1.00 22.96     0.005 C 
BRANCH   3   4
ATOM      4  CD  LYS A 131      26.216  24.497  17.539  1.00 24.33     0.041 C 
BRANCH   4   5
ATOM      5  CE  LYS A 131      26.172  25.617  18.573  1.00 26.91     0.338 C 
ATOM      6  NZ  LYS A 131      25.571  25.132  19.838  1.00 27.40     0.618 N 
ENDBRANCH   4   5
ENDBRANCH   3   4
ENDBRANCH   2   3
ENDBRANCH   1   2
END_RES LYS A 131
BEGIN_RES LYS A 135
REMARK  4 active torsions:
REMARK  status: ('A' for Active; 'I' for Inactive)
REMARK    5  A    between atoms: CA   and  CB  
REMARK    6  A    between atoms: CB   and  CG  
REMARK    7  A    between atoms: CG   and  CD  
REMARK    8  A    between atoms: CD   and  CE  
ROOT
ATOM      7  CA  LYS A 135      33.193  34.663   9.290  1.00 25.02     0.186 C 
ENDROOT
BRANCH   7   8
ATOM      8  CB  LYS A 135      32.060  35.360  10.034  1.00 26.63     0.034 C 
BRANCH   8   9
ATOM      9  CG  LYS A 135      30.707  34.745   9.784  1.00 29.45     0.005 C 
BRANCH   9  10
ATOM     10  CD  LYS A 135      30.499  34.491   8.299  1.00 32.00     0.041 C 
BRANCH  10  11
ATOM     11  CE  LYS A 135      29.095  34.883   7.882  1.00 34.25     0.338 C 
ATOM     12  NZ  LYS A 135      28.940  36.364   7.844  1.00 35.99     0.618 N 
ENDBRANCH  10  11
ENDBRANCH   9  10
ENDBRANCH   8   9
ENDBRANCH   7   8
END_RES LYS A 135
