REMARK VINA RESULT:    -4.382      4.279      7.917
REMARK INTER + INTRA:         -14.389
REMARK INTER:                  -8.864
REMARK INTRA:                  -5.525
REMARK UNBOUND:                -6.292
REMARK SMILES CC(=O)N[C@@H]1[C@@H](O)C[C@](O)(C(=O)O)O[C@H]1C(O)[C@H](O)CNC(=O)OCc1cn(CCC2OCCO2)nn1
REMARK SMILES IDX 21 1 22 2 23 3 20 5 18 6 16 7 15 8 9 9 8 10 14 11 6 12 5 13
REMARK SMILES IDX 10 14 11 16 12 17 13 18 7 20 4 22 2 23 1 25 3 26 17 27 19 29
REMARK SMILES IDX 24 31 25 32 26 33 27 34 37 35 28 36 36 37 29 38 30 39 31 40
REMARK SMILES IDX 32 41 35 42 33 43 34 44
REMARK H PARENT 21 4 10 15 13 19 7 21 4 24 17 28 19 30
REMARK Flexibility Score: inf
ROOT
ATOM      1  N   UNL     1      25.690  28.197  17.612  1.00  0.00    -0.319 N 
ATOM      2  C   UNL     1      25.350  29.357  16.874  1.00  0.00     0.407 C 
ATOM      3  O   UNL     1      26.285  30.117  16.445  1.00  0.00    -0.225 OA
ATOM      4  H   UNL     1      24.942  27.576  17.962  1.00  0.00     0.167 HD
ENDROOT
BRANCH   1   5
ATOM      5  C   UNL     1      27.060  27.897  17.863  1.00  0.00     0.154 C 
BRANCH   5   6
ATOM      6  C   UNL     1      27.377  27.688  19.319  1.00  0.00     0.165 C 
BRANCH   6   7
ATOM      7  C   UNL     1      27.830  28.940  20.007  1.00  0.00     0.176 C 
BRANCH   7   8
ATOM      8  C   UNL     1      29.341  29.001  20.056  1.00  0.00     0.178 C 
ATOM      9  C   UNL     1      31.091  28.665  21.550  1.00  0.00     0.269 C 
ATOM     10  C   UNL     1      31.762  29.881  20.978  1.00  0.00     0.112 C 
ATOM     11  O   UNL     1      29.749  28.575  21.293  1.00  0.00    -0.332 OA
ATOM     12  C   UNL     1      30.701  30.947  20.803  1.00  0.00     0.145 C 
ATOM     13  C   UNL     1      29.736  30.436  19.742  1.00  0.00     0.142 C 
BRANCH   9  14
ATOM     14  O   UNL     1      31.229  28.741  22.955  1.00  0.00    -0.357 OA
ATOM     15  H   UNL     1      31.057  27.881  23.384  1.00  0.00     0.214 HD
ENDBRANCH   9  14
BRANCH   9  16
ATOM     16  C   UNL     1      31.840  27.431  21.153  1.00  0.00     0.364 C 
ATOM     17  O   UNL     1      32.214  26.550  21.959  1.00  0.00    -0.246 OA
BRANCH  16  18
ATOM     18  O   UNL     1      32.128  27.273  19.805  1.00  0.00    -0.477 OA
ATOM     19  H   UNL     1      32.825  27.817  19.306  1.00  0.00     0.296 HD
ENDBRANCH  16  18
ENDBRANCH   9  16
BRANCH  12  20
ATOM     20  O   UNL     1      30.002  31.074  22.012  1.00  0.00    -0.391 OA
ATOM     21  H   UNL     1      29.906  32.016  22.289  1.00  0.00     0.211 HD
ENDBRANCH  12  20
BRANCH  13  22
ATOM     22  N   UNL     1      30.393  30.537  18.448  1.00  0.00    -0.348 N 
ATOM     23  C   UNL     1      29.857  31.409  17.467  1.00  0.00     0.217 C 
ATOM     24  H   UNL     1      31.262  29.968  18.232  1.00  0.00     0.163 HD
ATOM     25  C   UNL     1      30.453  31.580  16.118  1.00  0.00     0.114 C 
ATOM     26  O   UNL     1      28.821  32.070  17.767  1.00  0.00    -0.275 OA
ENDBRANCH  13  22
ENDBRANCH   7   8
BRANCH   7  27
ATOM     27  O   UNL     1      27.268  30.072  19.419  1.00  0.00    -0.388 OA
ATOM     28  H   UNL     1      27.908  30.611  18.905  1.00  0.00     0.211 HD
ENDBRANCH   7  27
ENDBRANCH   6   7
BRANCH   6  29
ATOM     29  O   UNL     1      28.357  26.713  19.432  1.00  0.00    -0.388 OA
ATOM     30  H   UNL     1      29.204  27.043  19.783  1.00  0.00     0.211 HD
ENDBRANCH   6  29
ENDBRANCH   5   6
ENDBRANCH   1   5
BRANCH   2  31
ATOM     31  O   UNL     1      24.074  29.740  16.575  1.00  0.00    -0.443 OA
BRANCH  31  32
ATOM     32  C   UNL     1      23.696  30.710  15.617  1.00  0.00     0.294 C 
BRANCH  32  33
ATOM     33  C   UNL     1      23.215  30.099  14.355  1.00  0.00     0.120 A 
ATOM     34  C   UNL     1      21.905  29.891  13.991  1.00  0.00     0.138 A 
ATOM     35  N   UNL     1      23.959  29.635  13.339  1.00  0.00    -0.132 NA
ATOM     36  N   UNL     1      21.891  29.311  12.772  1.00  0.00    -0.252 N 
ATOM     37  N   UNL     1      23.150  29.167  12.401  1.00  0.00    -0.067 NA
BRANCH  36  38
ATOM     38  C   UNL     1      20.744  28.905  11.971  1.00  0.00     0.151 C 
BRANCH  38  39
ATOM     39  C   UNL     1      19.455  29.364  12.618  1.00  0.00     0.086 C 
BRANCH  39  40
ATOM     40  C   UNL     1      18.580  28.207  12.965  1.00  0.00     0.251 C 
ATOM     41  O   UNL     1      19.271  27.053  13.309  1.00  0.00    -0.350 OA
ATOM     42  O   UNL     1      17.683  27.852  11.968  1.00  0.00    -0.350 OA
ATOM     43  C   UNL     1      18.394  25.993  13.096  1.00  0.00     0.192 C 
ATOM     44  C   UNL     1      17.379  26.521  12.125  1.00  0.00     0.192 C 
ENDBRANCH  39  40
ENDBRANCH  38  39
ENDBRANCH  36  38
ENDBRANCH  32  33
ENDBRANCH  31  32
ENDBRANCH   2  31
TORSDOF 17
BEGIN_RES LYS A 131
REMARK  4 active torsions:
REMARK  status: ('A' for Active; 'I' for Inactive)
REMARK    1  A    between atoms: CA   and  CB  
REMARK    2  A    between atoms: CB   and  CG  
REMARK    3  A    between atoms: CG   and  CD  
REMARK    4  A    between atoms: CD   and  CE  
ROOT
ATOM      1  CA  LYS A 131      29.867  25.555  16.977  1.00 20.52     0.186 C 
ENDROOT
BRANCH   1   2
ATOM      2  CB  LYS A 131      28.345  25.722  17.026  1.00 20.94     0.034 C 
BRANCH   2   3
ATOM      3  CG  LYS A 131      27.599  24.458  16.628  1.00 22.96     0.005 C 
BRANCH   3   4
ATOM      4  CD  LYS A 131      27.067  23.715  17.822  1.00 24.33     0.041 C 
BRANCH   4   5
ATOM      5  CE  LYS A 131      25.824  24.423  18.350  1.00 26.91     0.338 C 
ATOM      6  NZ  LYS A 131      24.843  24.632  17.259  1.00 27.40     0.618 N 
ENDBRANCH   4   5
ENDBRANCH   3   4
ENDBRANCH   2   3
ENDBRANCH   1   2
END_RES LYS A 131
BEGIN_RES LYS A 135
REMARK  4 active torsions:
REMARK  status: ('A' for Active; 'I' for Inactive)
REMARK    5  A    between atoms: CA   and  CB  
REMARK    6  A    between atoms: CB   and  CG  
REMARK    7  A    between atoms: CG   and  CD  
REMARK    8  A    between atoms: CD   and  CE  
ROOT
ATOM      7  CA  LYS A 135      33.193  34.663   9.290  1.00 25.02     0.186 C 
ENDROOT
BRANCH   7   8
ATOM      8  CB  LYS A 135      32.060  35.360  10.034  1.00 26.63     0.034 C 
BRANCH   8   9
ATOM      9  CG  LYS A 135      30.803  35.507   9.216  1.00 29.45     0.005 C 
BRANCH   9  10
ATOM     10  CD  LYS A 135      30.132  34.156   9.017  1.00 32.00     0.041 C 
BRANCH  10  11
ATOM     11  CE  LYS A 135      28.675  34.337   8.635  1.00 34.25     0.338 C 
ATOM     12  NZ  LYS A 135      27.777  33.661   9.612  1.00 35.99     0.618 N 
ENDBRANCH  10  11
ENDBRANCH   9  10
ENDBRANCH   8   9
ENDBRANCH   7   8
END_RES LYS A 135
