REMARK VINA RESULT:    -5.164      4.066      8.719
REMARK INTER + INTRA:         -14.961
REMARK INTER:                  -9.657
REMARK INTRA:                  -5.305
REMARK UNBOUND:                -5.118
REMARK SMILES COc1ccc(Cn2cc(COC(=O)NC[C@@H](O)C(O)[C@@H]3O[C@@](O)(C(=O)O)C[C@H](O)[C@H]3NC(C)=O)nn2)cc1OC
REMARK SMILES IDX 15 1 13 2 14 3 16 5 17 6 19 7 21 8 23 9 28 10 22 11 29 12
REMARK SMILES IDX 31 13 24 14 25 16 26 17 27 18 30 20 32 22 33 23 34 25 35 26
REMARK SMILES IDX 20 27 18 29 12 31 11 32 10 33 9 34 36 35 8 36 37 37 7 38
REMARK SMILES IDX 6 39 38 40 5 41 39 42 4 43 3 44 40 45 41 46 2 47 1 48
REMARK H PARENT 15 4 24 15 27 19 30 21 32 24 20 28 18 30
REMARK Flexibility Score: inf
ROOT
ATOM      1  N   UNL     1      24.980  35.824  12.574  1.00  0.00    -0.319 N 
ATOM      2  C   UNL     1      25.784  34.684  12.438  1.00  0.00     0.407 C 
ATOM      3  O   UNL     1      25.304  33.533  12.537  1.00  0.00    -0.225 OA
ATOM      4  H   UNL     1      25.469  36.766  12.486  1.00  0.00     0.167 HD
ENDROOT
BRANCH   1   5
ATOM      5  C   UNL     1      23.549  35.834  12.822  1.00  0.00     0.154 C 
BRANCH   5   6
ATOM      6  C   UNL     1      22.795  35.488  11.588  1.00  0.00     0.165 C 
BRANCH   6   7
ATOM      7  C   UNL     1      21.664  36.434  11.263  1.00  0.00     0.176 C 
BRANCH   7   8
ATOM      8  C   UNL     1      21.892  37.292  10.064  1.00  0.00     0.178 C 
ATOM      9  C   UNL     1      20.948  36.148   8.264  1.00  0.00     0.269 C 
ATOM     10  C   UNL     1      21.920  36.691   7.227  1.00  0.00     0.112 C 
ATOM     11  O   UNL     1      20.784  37.124   9.210  1.00  0.00    -0.332 OA
ATOM     12  C   UNL     1      22.837  37.681   7.885  1.00  0.00     0.145 C 
ATOM     13  C   UNL     1      23.174  37.225   9.353  1.00  0.00     0.142 C 
BRANCH   9  14
ATOM     14  O   UNL     1      21.369  34.916   8.753  1.00  0.00    -0.357 OA
ATOM     15  H   UNL     1      20.776  34.567   9.468  1.00  0.00     0.214 HD
ENDBRANCH   9  14
BRANCH   9  16
ATOM     16  C   UNL     1      19.626  35.916   7.613  1.00  0.00     0.364 C 
ATOM     17  O   UNL     1      18.743  36.800   7.704  1.00  0.00    -0.246 OA
BRANCH  16  18
ATOM     18  O   UNL     1      19.333  34.758   6.909  1.00  0.00    -0.477 OA
ATOM     19  H   UNL     1      18.603  34.102   7.214  1.00  0.00     0.296 HD
ENDBRANCH  16  18
ENDBRANCH   9  16
BRANCH  12  20
ATOM     20  O   UNL     1      24.033  37.836   7.193  1.00  0.00    -0.391 OA
ATOM     21  H   UNL     1      24.489  36.977   7.064  1.00  0.00     0.211 HD
ENDBRANCH  12  20
BRANCH  13  22
ATOM     22  N   UNL     1      24.100  38.278   9.795  1.00  0.00    -0.348 N 
ATOM     23  C   UNL     1      25.498  38.097   9.928  1.00  0.00     0.217 C 
ATOM     24  H   UNL     1      23.733  39.244  10.036  1.00  0.00     0.163 HD
ATOM     25  C   UNL     1      26.409  39.178  10.381  1.00  0.00     0.114 C 
ATOM     26  O   UNL     1      26.005  36.980   9.656  1.00  0.00    -0.275 OA
ENDBRANCH  13  22
ENDBRANCH   7   8
BRANCH   7  27
ATOM     27  O   UNL     1      21.578  37.370  12.372  1.00  0.00    -0.388 OA
ATOM     28  H   UNL     1      20.893  37.015  12.989  1.00  0.00     0.211 HD
ENDBRANCH   7  27
ENDBRANCH   6   7
BRANCH   6  29
ATOM     29  O   UNL     1      22.510  34.161  11.401  1.00  0.00    -0.388 OA
ATOM     30  H   UNL     1      22.590  33.615  12.206  1.00  0.00     0.211 HD
ENDBRANCH   6  29
ENDBRANCH   5   6
ENDBRANCH   1   5
BRANCH   2  31
ATOM     31  O   UNL     1      27.168  34.798  12.184  1.00  0.00    -0.443 OA
BRANCH  31  32
ATOM     32  C   UNL     1      27.772  36.088  12.363  1.00  0.00     0.294 C 
BRANCH  32  33
ATOM     33  C   UNL     1      29.082  35.981  13.002  1.00  0.00     0.120 A 
ATOM     34  C   UNL     1      29.770  34.826  13.268  1.00  0.00     0.138 A 
ATOM     35  N   UNL     1      29.835  37.007  13.427  1.00  0.00    -0.132 NA
ATOM     36  N   UNL     1      30.918  35.165  13.847  1.00  0.00    -0.248 N 
ATOM     37  N   UNL     1      30.941  36.478  13.934  1.00  0.00    -0.067 NA
BRANCH  36  38
ATOM     38  C   UNL     1      31.970  34.270  14.314  1.00  0.00     0.181 C 
BRANCH  38  39
ATOM     39  C   UNL     1      31.517  33.645  15.595  1.00  0.00    -0.023 A 
ATOM     40  C   UNL     1      30.859  32.416  15.558  1.00  0.00     0.056 A 
ATOM     41  C   UNL     1      31.729  34.230  16.825  1.00  0.00     0.010 A 
ATOM     42  C   UNL     1      30.434  31.803  16.712  1.00  0.00     0.161 A 
ATOM     43  C   UNL     1      31.314  33.640  18.002  1.00  0.00     0.051 A 
ATOM     44  C   UNL     1      30.669  32.428  17.923  1.00  0.00     0.160 A 
BRANCH  42  45
ATOM     45  O   UNL     1      29.775  30.577  16.690  1.00  0.00    -0.493 OA
ATOM     46  C   UNL     1      28.758  30.377  15.724  1.00  0.00     0.278 C 
ENDBRANCH  42  45
BRANCH  44  47
ATOM     47  O   UNL     1      30.236  31.802  19.082  1.00  0.00    -0.493 OA
ATOM     48  C   UNL     1      30.113  32.497  20.309  1.00  0.00     0.278 C 
ENDBRANCH  44  47
ENDBRANCH  38  39
ENDBRANCH  36  38
ENDBRANCH  32  33
ENDBRANCH  31  32
ENDBRANCH   2  31
TORSDOF 18
BEGIN_RES LYS A 131
REMARK  4 active torsions:
REMARK  status: ('A' for Active; 'I' for Inactive)
REMARK    1  A    between atoms: CA   and  CB  
REMARK    2  A    between atoms: CB   and  CG  
REMARK    3  A    between atoms: CG   and  CD  
REMARK    4  A    between atoms: CD   and  CE  
ROOT
ATOM      1  CA  LYS A 131      29.867  25.555  16.977  1.00 20.52     0.186 C 
ENDROOT
BRANCH   1   2
ATOM      2  CB  LYS A 131      28.345  25.722  17.026  1.00 20.94     0.034 C 
BRANCH   2   3
ATOM      3  CG  LYS A 131      27.601  24.403  16.888  1.00 22.96     0.005 C 
BRANCH   3   4
ATOM      4  CD  LYS A 131      26.149  24.530  17.257  1.00 24.33     0.041 C 
BRANCH   4   5
ATOM      5  CE  LYS A 131      25.626  23.179  17.736  1.00 26.91     0.338 C 
ATOM      6  NZ  LYS A 131      24.285  22.911  17.165  1.00 27.40     0.618 N 
ENDBRANCH   4   5
ENDBRANCH   3   4
ENDBRANCH   2   3
ENDBRANCH   1   2
END_RES LYS A 131
BEGIN_RES LYS A 135
REMARK  4 active torsions:
REMARK  status: ('A' for Active; 'I' for Inactive)
REMARK    5  A    between atoms: CA   and  CB  
REMARK    6  A    between atoms: CB   and  CG  
REMARK    7  A    between atoms: CG   and  CD  
REMARK    8  A    between atoms: CD   and  CE  
ROOT
ATOM      7  CA  LYS A 135      33.193  34.663   9.290  1.00 25.02     0.186 C 
ENDROOT
BRANCH   7   8
ATOM      8  CB  LYS A 135      32.060  35.360  10.034  1.00 26.63     0.034 C 
BRANCH   8   9
ATOM      9  CG  LYS A 135      30.701  34.777   9.745  1.00 29.45     0.005 C 
BRANCH   9  10
ATOM     10  CD  LYS A 135      30.536  34.511   8.257  1.00 32.00     0.041 C 
BRANCH  10  11
ATOM     11  CE  LYS A 135      29.143  34.896   7.798  1.00 34.25     0.338 C 
ATOM     12  NZ  LYS A 135      28.106  34.359   8.722  1.00 35.99     0.618 N 
ENDBRANCH  10  11
ENDBRANCH   9  10
ENDBRANCH   8   9
ENDBRANCH   7   8
END_RES LYS A 135
