REMARK VINA RESULT:    -4.692      6.338     12.064
REMARK INTER + INTRA:         -15.877
REMARK INTER:                  -9.382
REMARK INTRA:                  -6.496
REMARK UNBOUND:                -6.934
REMARK SMILES CC(=O)N[C@@H]1[C@@H](O)C[C@](O)(C(=O)O)O[C@H]1C(O)[C@H](O)CNC(=O)OCc1cn(C(C)CC(=O)c2ccccc2)nn1
REMARK SMILES IDX 21 1 22 2 23 3 20 5 18 6 16 7 15 8 9 9 8 10 14 11 6 12 5 13
REMARK SMILES IDX 10 14 11 16 12 17 13 18 7 20 4 22 2 23 1 25 3 26 17 27 19 29
REMARK SMILES IDX 24 31 25 32 26 33 27 34 41 35 28 36 40 37 29 38 30 39 31 40
REMARK SMILES IDX 32 41 33 42 34 43 35 44 39 45 36 46 38 47 37 48
REMARK H PARENT 21 4 10 15 13 19 7 21 4 24 17 28 19 30
REMARK Flexibility Score: inf
ROOT
ATOM      1  N   UNL     1      29.709  38.578   6.875  1.00  0.00    -0.319 N 
ATOM      2  C   UNL     1      30.872  39.230   7.375  1.00  0.00     0.407 C 
ATOM      3  O   UNL     1      31.207  40.320   6.877  1.00  0.00    -0.225 OA
ATOM      4  H   UNL     1      29.488  37.652   7.354  1.00  0.00     0.167 HD
ENDROOT
BRANCH   1   5
ATOM      5  C   UNL     1      28.875  39.095   5.812  1.00  0.00     0.154 C 
BRANCH   5   6
ATOM      6  C   UNL     1      27.531  38.403   5.761  1.00  0.00     0.165 C 
BRANCH   6   7
ATOM      7  C   UNL     1      27.103  37.901   7.123  1.00  0.00     0.176 C 
BRANCH   7   8
ATOM      8  C   UNL     1      25.912  38.629   7.671  1.00  0.00     0.178 C 
ATOM      9  C   UNL     1      26.760  40.172   9.202  1.00  0.00     0.269 C 
ATOM     10  C   UNL     1      26.190  39.417  10.376  1.00  0.00     0.112 C 
ATOM     11  O   UNL     1      26.162  39.934   8.002  1.00  0.00    -0.332 OA
ATOM     12  C   UNL     1      25.989  37.959  10.095  1.00  0.00     0.145 C 
ATOM     13  C   UNL     1      25.235  37.856   8.788  1.00  0.00     0.142 C 
BRANCH   9  14
ATOM     14  O   UNL     1      28.164  40.010   9.181  1.00  0.00    -0.357 OA
ATOM     15  H   UNL     1      28.435  39.195   8.717  1.00  0.00     0.214 HD
ENDBRANCH   9  14
BRANCH   9  16
ATOM     16  C   UNL     1      26.535  41.632   9.514  1.00  0.00     0.364 C 
ATOM     17  O   UNL     1      25.485  42.075   9.997  1.00  0.00    -0.246 OA
BRANCH  16  18
ATOM     18  O   UNL     1      27.622  42.470   9.214  1.00  0.00    -0.477 OA
ATOM     19  H   UNL     1      27.541  43.192   8.515  1.00  0.00     0.296 HD
ENDBRANCH  16  18
ENDBRANCH   9  16
BRANCH  12  20
ATOM     20  O   UNL     1      27.161  37.241  10.093  1.00  0.00    -0.391 OA
ATOM     21  H   UNL     1      26.989  36.316   9.795  1.00  0.00     0.211 HD
ENDBRANCH  12  20
BRANCH  13  22
ATOM     22  N   UNL     1      23.953  38.540   9.022  1.00  0.00    -0.348 N 
ATOM     23  C   UNL     1      22.769  38.004   8.445  1.00  0.00     0.217 C 
ATOM     24  H   UNL     1      23.884  39.403   9.594  1.00  0.00     0.163 HD
ATOM     25  C   UNL     1      21.483  38.706   8.692  1.00  0.00     0.114 C 
ATOM     26  O   UNL     1      22.850  36.964   7.755  1.00  0.00    -0.275 OA
ENDBRANCH  13  22
ENDBRANCH   7   8
BRANCH   7  27
ATOM     27  O   UNL     1      26.844  36.535   6.984  1.00  0.00    -0.388 OA
ATOM     28  H   UNL     1      25.884  36.414   6.720  1.00  0.00     0.211 HD
ENDBRANCH   7  27
ENDBRANCH   6   7
BRANCH   6  29
ATOM     29  O   UNL     1      27.609  37.329   4.850  1.00  0.00    -0.388 OA
ATOM     30  H   UNL     1      27.756  36.467   5.312  1.00  0.00     0.211 HD
ENDBRANCH   6  29
ENDBRANCH   5   6
ENDBRANCH   1   5
BRANCH   2  31
ATOM     31  O   UNL     1      31.642  38.705   8.389  1.00  0.00    -0.443 OA
BRANCH  31  32
ATOM     32  C   UNL     1      31.816  39.274   9.668  1.00  0.00     0.294 C 
BRANCH  32  33
ATOM     33  C   UNL     1      31.094  38.591  10.745  1.00  0.00     0.120 A 
ATOM     34  C   UNL     1      31.680  37.903  11.815  1.00  0.00     0.138 A 
ATOM     35  N   UNL     1      29.756  38.475  10.945  1.00  0.00    -0.132 NA
ATOM     36  N   UNL     1      30.717  37.425  12.578  1.00  0.00    -0.249 N 
ATOM     37  N   UNL     1      29.580  37.773  12.048  1.00  0.00    -0.067 NA
BRANCH  36  38
ATOM     38  C   UNL     1      30.925  36.628  13.828  1.00  0.00     0.114 C 
ATOM     39  C   UNL     1      29.548  36.127  14.179  1.00  0.00     0.034 C 
BRANCH  38  40
ATOM     40  C   UNL     1      31.859  35.561  13.495  1.00  0.00     0.108 C 
BRANCH  40  41
ATOM     41  C   UNL     1      32.387  34.707  14.512  1.00  0.00     0.164 C 
ATOM     42  O   UNL     1      33.723  34.737  14.557  1.00  0.00    -0.294 OA
BRANCH  41  43
ATOM     43  C   UNL     1      31.808  33.833  15.484  1.00  0.00     0.018 A 
ATOM     44  C   UNL     1      31.722  34.277  16.826  1.00  0.00     0.012 A 
ATOM     45  C   UNL     1      31.298  32.583  15.230  1.00  0.00     0.012 A 
ATOM     46  C   UNL     1      31.164  33.496  17.806  1.00  0.00     0.001 A 
ATOM     47  C   UNL     1      30.739  31.821  16.246  1.00  0.00     0.001 A 
ATOM     48  C   UNL     1      30.660  32.248  17.531  1.00  0.00     0.000 A 
ENDBRANCH  41  43
ENDBRANCH  40  41
ENDBRANCH  38  40
ENDBRANCH  36  38
ENDBRANCH  32  33
ENDBRANCH  31  32
ENDBRANCH   2  31
TORSDOF 18
BEGIN_RES LYS A 131
REMARK  4 active torsions:
REMARK  status: ('A' for Active; 'I' for Inactive)
REMARK    1  A    between atoms: CA   and  CB  
REMARK    2  A    between atoms: CB   and  CG  
REMARK    3  A    between atoms: CG   and  CD  
REMARK    4  A    between atoms: CD   and  CE  
ROOT
ATOM      1  CA  LYS A 131      29.867  25.555  16.977  1.00 20.52     0.186 C 
ENDROOT
BRANCH   1   2
ATOM      2  CB  LYS A 131      28.345  25.722  17.026  1.00 20.94     0.034 C 
BRANCH   2   3
ATOM      3  CG  LYS A 131      27.599  24.431  16.728  1.00 22.96     0.005 C 
BRANCH   3   4
ATOM      4  CD  LYS A 131      26.916  23.876  17.947  1.00 24.33     0.041 C 
BRANCH   4   5
ATOM      5  CE  LYS A 131      25.605  23.213  17.539  1.00 26.91     0.338 C 
ATOM      6  NZ  LYS A 131      24.676  24.212  16.960  1.00 27.40     0.618 N 
ENDBRANCH   4   5
ENDBRANCH   3   4
ENDBRANCH   2   3
ENDBRANCH   1   2
END_RES LYS A 131
BEGIN_RES LYS A 135
REMARK  4 active torsions:
REMARK  status: ('A' for Active; 'I' for Inactive)
REMARK    5  A    between atoms: CA   and  CB  
REMARK    6  A    between atoms: CB   and  CG  
REMARK    7  A    between atoms: CG   and  CD  
REMARK    8  A    between atoms: CD   and  CE  
ROOT
ATOM      7  CA  LYS A 135      33.193  34.663   9.290  1.00 25.02     0.186 C 
ENDROOT
BRANCH   7   8
ATOM      8  CB  LYS A 135      32.060  35.360  10.034  1.00 26.63     0.034 C 
BRANCH   8   9
ATOM      9  CG  LYS A 135      30.779  35.437   9.245  1.00 29.45     0.005 C 
BRANCH   9  10
ATOM     10  CD  LYS A 135      30.066  34.094   9.246  1.00 32.00     0.041 C 
BRANCH  10  11
ATOM     11  CE  LYS A 135      28.661  34.236   8.693  1.00 34.25     0.338 C 
ATOM     12  NZ  LYS A 135      27.655  33.657   9.627  1.00 35.99     0.618 N 
ENDBRANCH  10  11
ENDBRANCH   9  10
ENDBRANCH   8   9
ENDBRANCH   7   8
END_RES LYS A 135
