REMARK VINA RESULT:    -3.951      3.108      6.218
REMARK INTER + INTRA:         -14.110
REMARK INTER:                  -8.767
REMARK INTRA:                  -5.343
REMARK UNBOUND:                -7.042
REMARK SMILES CC(=O)N[C@@H]1[C@@H](O)C[C@](O)(C(=O)O)O[C@H]1C(O)[C@H](O)CNC(=O)OCc1cn(-c2ncccc2C#N)nn1
REMARK SMILES IDX 21 1 22 2 23 3 20 5 18 6 16 7 15 8 9 9 8 10 14 11 6 12 5 13
REMARK SMILES IDX 10 14 11 16 12 17 13 18 7 20 4 22 2 23 1 25 3 26 17 27 19 29
REMARK SMILES IDX 24 31 25 32 26 33 27 34 38 35 28 36 37 37 29 38 30 39 34 40
REMARK SMILES IDX 31 41 33 42 32 43 35 44 36 45
REMARK H PARENT 21 4 10 15 13 19 7 21 4 24 17 28 19 30
REMARK Flexibility Score: inf
ROOT
ATOM      1  N   UNL     1      23.466  35.980  13.121  1.00  0.00    -0.319 N 
ATOM      2  C   UNL     1      24.143  37.176  12.707  1.00  0.00     0.407 C 
ATOM      3  O   UNL     1      23.674  37.917  11.837  1.00  0.00    -0.225 OA
ATOM      4  H   UNL     1      23.988  35.458  13.902  1.00  0.00     0.167 HD
ENDROOT
BRANCH   1   5
ATOM      5  C   UNL     1      22.249  35.540  12.630  1.00  0.00     0.154 C 
BRANCH   5   6
ATOM      6  C   UNL     1      22.255  34.388  11.594  1.00  0.00     0.165 C 
BRANCH   6   7
ATOM      7  C   UNL     1      22.218  35.082  10.287  1.00  0.00     0.176 C 
BRANCH   7   8
ATOM      8  C   UNL     1      21.051  35.930   9.933  1.00  0.00     0.178 C 
ATOM      9  C   UNL     1      19.482  35.102   8.388  1.00  0.00     0.269 C 
ATOM     10  C   UNL     1      18.948  36.466   8.026  1.00  0.00     0.112 C 
ATOM     11  O   UNL     1      19.953  35.056   9.702  1.00  0.00    -0.332 OA
ATOM     12  C   UNL     1      19.772  37.563   8.730  1.00  0.00     0.145 C 
ATOM     13  C   UNL     1      21.173  36.918   8.864  1.00  0.00     0.142 C 
BRANCH   9  14
ATOM     14  O   UNL     1      20.401  34.673   7.443  1.00  0.00    -0.357 OA
ATOM     15  H   UNL     1      20.055  34.598   6.541  1.00  0.00     0.214 HD
ENDBRANCH   9  14
BRANCH   9  16
ATOM     16  C   UNL     1      18.312  34.201   8.397  1.00  0.00     0.364 C 
ATOM     17  O   UNL     1      18.078  33.223   8.994  1.00  0.00    -0.246 OA
BRANCH  16  18
ATOM     18  O   UNL     1      17.259  34.660   7.464  1.00  0.00    -0.477 OA
ATOM     19  H   UNL     1      16.398  34.108   7.472  1.00  0.00     0.296 HD
ENDBRANCH  16  18
ENDBRANCH   9  16
BRANCH  12  20
ATOM     20  O   UNL     1      19.813  38.711   7.981  1.00  0.00    -0.391 OA
ATOM     21  H   UNL     1      19.529  38.557   7.062  1.00  0.00     0.211 HD
ENDBRANCH  12  20
BRANCH  13  22
ATOM     22  N   UNL     1      22.110  38.011   9.164  1.00  0.00    -0.348 N 
ATOM     23  C   UNL     1      23.177  38.238   8.281  1.00  0.00     0.217 C 
ATOM     24  H   UNL     1      21.966  38.583   9.974  1.00  0.00     0.163 HD
ATOM     25  C   UNL     1      24.238  39.172   8.193  1.00  0.00     0.114 C 
ATOM     26  O   UNL     1      23.117  37.317   7.277  1.00  0.00    -0.275 OA
ENDBRANCH  13  22
ENDBRANCH   7   8
BRANCH   7  27
ATOM     27  O   UNL     1      23.454  35.526   9.916  1.00  0.00    -0.388 OA
ATOM     28  H   UNL     1      23.812  36.222  10.528  1.00  0.00     0.211 HD
ENDBRANCH   7  27
ENDBRANCH   6   7
BRANCH   6  29
ATOM     29  O   UNL     1      21.204  33.588  11.941  1.00  0.00    -0.388 OA
ATOM     30  H   UNL     1      20.851  33.136  11.134  1.00  0.00     0.211 HD
ENDBRANCH   6  29
ENDBRANCH   5   6
ENDBRANCH   1   5
BRANCH   2  31
ATOM     31  O   UNL     1      25.357  37.503  13.315  1.00  0.00    -0.443 OA
BRANCH  31  32
ATOM     32  C   UNL     1      26.433  36.543  13.386  1.00  0.00     0.294 C 
BRANCH  32  33
ATOM     33  C   UNL     1      26.492  36.005  11.978  1.00  0.00     0.121 A 
ATOM     34  C   UNL     1      27.048  36.619  10.895  1.00  0.00     0.146 A 
ATOM     35  N   UNL     1      26.076  34.793  11.609  1.00  0.00    -0.131 NA
ATOM     36  N   UNL     1      26.951  35.717   9.871  1.00  0.00    -0.201 N 
ATOM     37  N   UNL     1      26.353  34.617  10.349  1.00  0.00    -0.060 NA
BRANCH  36  38
ATOM     38  C   UNL     1      27.407  35.875   8.565  1.00  0.00     0.173 A 
ATOM     39  N   UNL     1      26.634  36.563   7.625  1.00  0.00    -0.236 NA
ATOM     40  C   UNL     1      28.554  35.319   8.038  1.00  0.00     0.097 A 
ATOM     41  C   UNL     1      27.008  36.629   6.417  1.00  0.00     0.113 A 
ATOM     42  C   UNL     1      28.929  35.394   6.772  1.00  0.00     0.025 A 
ATOM     43  C   UNL     1      28.160  36.088   5.793  1.00  0.00     0.022 A 
BRANCH  40  44
ATOM     44  C   UNL     1      29.419  34.492   8.965  1.00  0.00     0.103 C 
ATOM     45  N   UNL     1      29.996  33.953   9.595  1.00  0.00    -0.192 NA
ENDBRANCH  40  44
ENDBRANCH  36  38
ENDBRANCH  32  33
ENDBRANCH  31  32
ENDBRANCH   2  31
TORSDOF 16
BEGIN_RES LYS A 131
REMARK  4 active torsions:
REMARK  status: ('A' for Active; 'I' for Inactive)
REMARK    1  A    between atoms: CA   and  CB  
REMARK    2  A    between atoms: CB   and  CG  
REMARK    3  A    between atoms: CG   and  CD  
REMARK    4  A    between atoms: CD   and  CE  
ROOT
ATOM      1  CA  LYS A 131      29.867  25.555  16.977  1.00 20.52     0.186 C 
ENDROOT
BRANCH   1   2
ATOM      2  CB  LYS A 131      28.345  25.722  17.026  1.00 20.94     0.034 C 
BRANCH   2   3
ATOM      3  CG  LYS A 131      27.601  24.406  16.864  1.00 22.96     0.005 C 
BRANCH   3   4
ATOM      4  CD  LYS A 131      26.574  24.199  17.943  1.00 24.33     0.041 C 
BRANCH   4   5
ATOM      5  CE  LYS A 131      26.406  25.489  18.739  1.00 26.91     0.338 C 
ATOM      6  NZ  LYS A 131      24.986  25.916  18.741  1.00 27.40     0.618 N 
ENDBRANCH   4   5
ENDBRANCH   3   4
ENDBRANCH   2   3
ENDBRANCH   1   2
END_RES LYS A 131
BEGIN_RES LYS A 135
REMARK  4 active torsions:
REMARK  status: ('A' for Active; 'I' for Inactive)
REMARK    5  A    between atoms: CA   and  CB  
REMARK    6  A    between atoms: CB   and  CG  
REMARK    7  A    between atoms: CG   and  CD  
REMARK    8  A    between atoms: CD   and  CE  
ROOT
ATOM      7  CA  LYS A 135      33.193  34.663   9.290  1.00 25.02     0.186 C 
ENDROOT
BRANCH   7   8
ATOM      8  CB  LYS A 135      32.060  35.360  10.034  1.00 26.63     0.034 C 
BRANCH   8   9
ATOM      9  CG  LYS A 135      32.502  36.043  11.303  1.00 29.45     0.005 C 
BRANCH   9  10
ATOM     10  CD  LYS A 135      31.936  37.452  11.379  1.00 32.00     0.041 C 
BRANCH  10  11
ATOM     11  CE  LYS A 135      31.294  37.840  10.061  1.00 34.25     0.338 C 
ATOM     12  NZ  LYS A 135      32.026  38.967   9.418  1.00 35.99     0.618 N 
ENDBRANCH  10  11
ENDBRANCH   9  10
ENDBRANCH   8   9
ENDBRANCH   7   8
END_RES LYS A 135
