REMARK VINA RESULT:    -5.075      1.819      3.404
REMARK INTER + INTRA:         -14.285
REMARK INTER:                  -8.783
REMARK INTRA:                  -5.502
REMARK UNBOUND:                -5.502
REMARK SMILES CC(=O)N[C@@H]1[C@@H](O)C[C@](O)(C(=O)O)O[C@H]1C(O)[C@H](O)CNC(=O)OCc1cn([C@@H]2C[C@H]3CC[C@@H](C2)N3C)nn1
REMARK SMILES IDX 20 1 18 2 16 3 15 4 9 5 8 6 14 7 6 8 5 9 10 10 11 12 12 13
REMARK SMILES IDX 13 14 7 16 4 18 2 19 1 21 3 22 17 23 19 25 21 27 22 28 23 30
REMARK SMILES IDX 24 31 25 32 26 33 27 34 39 35 28 36 38 37 29 38 35 39 30 40
REMARK SMILES IDX 34 41 31 42 36 43 33 44 32 45 37 46
REMARK H PARENT 10 11 13 15 7 17 4 20 17 24 19 26 21 29
REMARK Flexibility Score: inf
ROOT
ATOM      1  C   UNL     1      28.876  29.411  20.261  1.00  0.00     0.154 C 
ENDROOT
BRANCH   1   2
ATOM      2  C   UNL     1      30.062  28.648  20.773  1.00  0.00     0.165 C 
BRANCH   2   3
ATOM      3  C   UNL     1      31.359  29.361  20.410  1.00  0.00     0.176 C 
BRANCH   3   4
ATOM      4  C   UNL     1      32.254  29.355  21.648  1.00  0.00     0.178 C 
ATOM      5  C   UNL     1      32.465  28.043  23.573  1.00  0.00     0.269 C 
ATOM      6  C   UNL     1      32.203  29.181  24.510  1.00  0.00     0.112 C 
ATOM      7  O   UNL     1      32.030  28.209  22.300  1.00  0.00    -0.332 OA
ATOM      8  C   UNL     1      31.742  30.440  23.858  1.00  0.00     0.145 C 
ATOM      9  C   UNL     1      32.152  30.630  22.437  1.00  0.00     0.142 C 
BRANCH   5  10
ATOM     10  O   UNL     1      31.803  26.917  24.072  1.00  0.00    -0.357 OA
ATOM     11  H   UNL     1      30.977  26.709  23.571  1.00  0.00     0.214 HD
ENDBRANCH   5  10
BRANCH   5  12
ATOM     12  C   UNL     1      33.897  27.680  23.519  1.00  0.00     0.364 C 
ATOM     13  O   UNL     1      34.754  28.466  23.974  1.00  0.00    -0.246 OA
BRANCH  12  14
ATOM     14  O   UNL     1      34.375  26.489  22.980  1.00  0.00    -0.477 OA
ATOM     15  H   UNL     1      34.843  25.798  23.587  1.00  0.00     0.296 HD
ENDBRANCH  12  14
ENDBRANCH   5  12
BRANCH   8  16
ATOM     16  O   UNL     1      30.346  30.484  23.986  1.00  0.00    -0.391 OA
ATOM     17  H   UNL     1      29.996  29.586  24.197  1.00  0.00     0.211 HD
ENDBRANCH   8  16
BRANCH   9  18
ATOM     18  N   UNL     1      33.305  31.468  22.246  1.00  0.00    -0.348 N 
ATOM     19  C   UNL     1      33.266  32.742  21.632  1.00  0.00     0.217 C 
ATOM     20  H   UNL     1      34.251  31.138  22.575  1.00  0.00     0.163 HD
ATOM     21  C   UNL     1      34.438  33.619  21.424  1.00  0.00     0.114 C 
ATOM     22  O   UNL     1      32.132  33.118  21.249  1.00  0.00    -0.275 OA
ENDBRANCH   9  18
ENDBRANCH   3   4
BRANCH   3  23
ATOM     23  O   UNL     1      31.141  30.653  19.962  1.00  0.00    -0.388 OA
ATOM     24  H   UNL     1      31.195  31.259  20.745  1.00  0.00     0.211 HD
ENDBRANCH   3  23
ENDBRANCH   2   3
BRANCH   2  25
ATOM     25  O   UNL     1      30.132  27.373  20.289  1.00  0.00    -0.388 OA
ATOM     26  H   UNL     1      29.277  26.884  20.475  1.00  0.00     0.211 HD
ENDBRANCH   2  25
ENDBRANCH   1   2
BRANCH   1  27
ATOM     27  N   UNL     1      28.847  29.508  18.841  1.00  0.00    -0.319 N 
ATOM     28  C   UNL     1      27.698  29.382  18.041  1.00  0.00     0.407 C 
ATOM     29  H   UNL     1      29.764  29.690  18.322  1.00  0.00     0.167 HD
ATOM     30  O   UNL     1      26.569  29.159  18.515  1.00  0.00    -0.225 OA
BRANCH  28  31
ATOM     31  O   UNL     1      27.818  29.511  16.644  1.00  0.00    -0.443 OA
BRANCH  31  32
ATOM     32  C   UNL     1      27.618  30.784  16.066  1.00  0.00     0.294 C 
BRANCH  32  33
ATOM     33  C   UNL     1      28.898  31.449  15.824  1.00  0.00     0.120 A 
ATOM     34  C   UNL     1      29.083  32.587  15.048  1.00  0.00     0.138 A 
ATOM     35  N   UNL     1      30.097  31.099  16.288  1.00  0.00    -0.132 NA
ATOM     36  N   UNL     1      30.388  32.883  15.070  1.00  0.00    -0.249 N 
ATOM     37  N   UNL     1      30.970  31.974  15.822  1.00  0.00    -0.067 NA
BRANCH  36  38
ATOM     38  C   UNL     1      31.060  33.977  14.415  1.00  0.00     0.112 C 
ATOM     39  C   UNL     1      30.306  35.270  14.723  1.00  0.00     0.046 C 
ATOM     40  C   UNL     1      32.436  34.086  15.035  1.00  0.00     0.046 C 
ATOM     41  C   UNL     1      31.138  36.432  14.254  1.00  0.00     0.058 C 
ATOM     42  C   UNL     1      33.081  35.382  14.665  1.00  0.00     0.058 C 
ATOM     43  N   UNL     1      32.340  36.538  15.061  1.00  0.00    -0.300 NA
ATOM     44  C   UNL     1      31.715  36.141  12.881  1.00  0.00     0.021 C 
ATOM     45  C   UNL     1      33.036  35.483  13.135  1.00  0.00     0.021 C 
ATOM     46  C   UNL     1      32.067  36.604  16.468  1.00  0.00     0.105 C 
ENDBRANCH  36  38
ENDBRANCH  32  33
ENDBRANCH  31  32
ENDBRANCH  28  31
ENDBRANCH   1  27
TORSDOF 15
BEGIN_RES LYS A 131
REMARK  4 active torsions:
REMARK  status: ('A' for Active; 'I' for Inactive)
REMARK    1  A    between atoms: CA   and  CB  
REMARK    2  A    between atoms: CB   and  CG  
REMARK    3  A    between atoms: CG   and  CD  
REMARK    4  A    between atoms: CD   and  CE  
ROOT
ATOM      1  CA  LYS A 131      29.867  25.555  16.977  1.00 20.52     0.186 C 
ENDROOT
BRANCH   1   2
ATOM      2  CB  LYS A 131      28.345  25.722  17.026  1.00 20.94     0.034 C 
BRANCH   2   3
ATOM      3  CG  LYS A 131      27.602  24.399  16.921  1.00 22.96     0.005 C 
BRANCH   3   4
ATOM      4  CD  LYS A 131      26.152  24.532  17.298  1.00 24.33     0.041 C 
BRANCH   4   5
ATOM      5  CE  LYS A 131      25.768  23.404  18.250  1.00 26.91     0.338 C 
ATOM      6  NZ  LYS A 131      25.540  23.933  19.615  1.00 27.40     0.618 N 
ENDBRANCH   4   5
ENDBRANCH   3   4
ENDBRANCH   2   3
ENDBRANCH   1   2
END_RES LYS A 131
BEGIN_RES LYS A 135
REMARK  4 active torsions:
REMARK  status: ('A' for Active; 'I' for Inactive)
REMARK    5  A    between atoms: CA   and  CB  
REMARK    6  A    between atoms: CB   and  CG  
REMARK    7  A    between atoms: CG   and  CD  
REMARK    8  A    between atoms: CD   and  CE  
ROOT
ATOM      7  CA  LYS A 135      33.193  34.663   9.290  1.00 25.02     0.186 C 
ENDROOT
BRANCH   7   8
ATOM      8  CB  LYS A 135      32.060  35.360  10.034  1.00 26.63     0.034 C 
BRANCH   8   9
ATOM      9  CG  LYS A 135      30.836  35.592   9.187  1.00 29.45     0.005 C 
BRANCH   9  10
ATOM     10  CD  LYS A 135      29.999  34.325   9.094  1.00 32.00     0.041 C 
BRANCH  10  11
ATOM     11  CE  LYS A 135      28.812  34.400  10.035  1.00 34.25     0.338 C 
ATOM     12  NZ  LYS A 135      27.620  33.728   9.449  1.00 35.99     0.618 N 
ENDBRANCH  10  11
ENDBRANCH   9  10
ENDBRANCH   8   9
ENDBRANCH   7   8
END_RES LYS A 135
