REMARK VINA RESULT:    -4.700      4.503      9.393
REMARK INTER + INTRA:         -16.818
REMARK INTER:                 -10.252
REMARK INTRA:                  -6.566
REMARK UNBOUND:                -7.171
REMARK SMILES CCOCCc1c(-c2ccccc2)nc(N)nc1-n1cc(COC(=O)NC[C@@H](O)C(O)[C@@H]2O[C@@](O)(C(=O)O)C[C@H](O)[C@H]2NC(C)=O)nn1
REMARK SMILES IDX 23 1 24 2 26 3 25 5 27 6 28 7 30 8 32 9 34 10 39 11 33 12
REMARK SMILES IDX 40 13 42 14 35 15 36 17 37 18 38 19 41 21 43 23 44 24 45 26
REMARK SMILES IDX 46 27 31 28 29 30 22 32 21 33 20 34 47 35 19 36 48 37 18 38
REMARK SMILES IDX 17 39 6 40 15 41 7 42 14 43 5 44 4 45 3 46 2 47 1 48 16 49
REMARK SMILES IDX 8 52 9 53 13 54 10 55 12 56 11 57
REMARK H PARENT 26 4 35 16 38 20 41 22 43 25 31 29 29 31 16 50 16 51
REMARK Flexibility Score: inf
ROOT
ATOM      1  O   UNL     1      31.534  36.581  15.273  1.00  0.00    -0.443 OA
ENDROOT
BRANCH   1   2
ATOM      2  C   UNL     1      31.661  35.256  15.627  1.00  0.00     0.407 C 
ATOM      3  N   UNL     1      30.634  34.570  16.374  1.00  0.00    -0.319 N 
ATOM      4  H   UNL     1      29.812  35.158  16.617  1.00  0.00     0.167 HD
ATOM      5  O   UNL     1      32.704  34.648  15.280  1.00  0.00    -0.225 OA
BRANCH   3   6
ATOM      6  C   UNL     1      30.820  33.179  16.718  1.00  0.00     0.154 C 
BRANCH   6   7
ATOM      7  C   UNL     1      30.343  32.343  15.538  1.00  0.00     0.165 C 
BRANCH   7   8
ATOM      8  C   UNL     1      29.389  31.316  16.099  1.00  0.00     0.176 C 
BRANCH   8   9
ATOM      9  C   UNL     1      28.179  31.881  16.777  1.00  0.00     0.178 C 
ATOM     10  C   UNL     1      26.966  29.876  16.781  1.00  0.00     0.269 C 
ATOM     11  C   UNL     1      26.261  30.393  15.538  1.00  0.00     0.112 C 
ATOM     12  O   UNL     1      27.583  30.867  17.489  1.00  0.00    -0.332 OA
ATOM     13  C   UNL     1      25.937  31.858  15.753  1.00  0.00     0.145 C 
ATOM     14  C   UNL     1      27.243  32.658  15.926  1.00  0.00     0.142 C 
BRANCH  10  15
ATOM     15  O   UNL     1      27.851  28.890  16.331  1.00  0.00    -0.357 OA
ATOM     16  H   UNL     1      28.790  29.127  16.501  1.00  0.00     0.214 HD
ENDBRANCH  10  15
BRANCH  10  17
ATOM     17  C   UNL     1      26.001  29.218  17.687  1.00  0.00     0.364 C 
ATOM     18  O   UNL     1      26.235  29.182  18.909  1.00  0.00    -0.246 OA
BRANCH  17  19
ATOM     19  O   UNL     1      24.858  28.651  17.188  1.00  0.00    -0.477 OA
ATOM     20  H   UNL     1      24.682  28.471  16.207  1.00  0.00     0.296 HD
ENDBRANCH  17  19
ENDBRANCH  10  17
BRANCH  13  21
ATOM     21  O   UNL     1      25.178  32.356  14.719  1.00  0.00    -0.391 OA
ATOM     22  H   UNL     1      25.320  33.319  14.598  1.00  0.00     0.211 HD
ENDBRANCH  13  21
BRANCH  14  23
ATOM     23  N   UNL     1      26.818  33.914  16.560  1.00  0.00    -0.348 N 
ATOM     24  C   UNL     1      27.239  35.149  16.013  1.00  0.00     0.217 C 
ATOM     25  H   UNL     1      26.211  33.913  17.407  1.00  0.00     0.163 HD
ATOM     26  C   UNL     1      26.846  36.465  16.605  1.00  0.00     0.114 C 
ATOM     27  O   UNL     1      27.973  35.111  14.986  1.00  0.00    -0.275 OA
ENDBRANCH  14  23
ENDBRANCH   8   9
BRANCH   8  28
ATOM     28  O   UNL     1      30.148  30.729  17.164  1.00  0.00    -0.388 OA
ATOM     29  H   UNL     1      29.543  30.362  17.839  1.00  0.00     0.211 HD
ENDBRANCH   8  28
ENDBRANCH   7   8
BRANCH   7  30
ATOM     30  O   UNL     1      31.482  31.806  14.959  1.00  0.00    -0.388 OA
ATOM     31  H   UNL     1      32.247  31.812  15.573  1.00  0.00     0.211 HD
ENDBRANCH   7  30
ENDBRANCH   6   7
ENDBRANCH   3   6
ENDBRANCH   1   2
BRANCH   1  32
ATOM     32  C   UNL     1      31.896  37.138  14.028  1.00  0.00     0.294 C 
BRANCH  32  33
ATOM     33  C   UNL     1      30.671  37.633  13.324  1.00  0.00     0.121 A 
ATOM     34  C   UNL     1      29.951  37.007  12.336  1.00  0.00     0.146 A 
ATOM     35  N   UNL     1      30.041  38.809  13.533  1.00  0.00    -0.131 NA
ATOM     36  N   UNL     1      28.902  37.799  11.957  1.00  0.00    -0.202 N 
ATOM     37  N   UNL     1      29.006  38.881  12.719  1.00  0.00    -0.060 NA
BRANCH  36  38
ATOM     38  C   UNL     1      27.943  37.512  10.955  1.00  0.00     0.164 A 
ATOM     39  N   UNL     1      26.913  36.687  11.192  1.00  0.00    -0.193 NA
ATOM     40  C   UNL     1      28.062  38.063   9.674  1.00  0.00     0.026 A 
ATOM     41  C   UNL     1      26.007  36.389  10.227  1.00  0.00     0.222 A 
ATOM     42  C   UNL     1      27.153  37.761   8.699  1.00  0.00     0.081 A 
ATOM     43  N   UNL     1      26.110  36.906   8.998  1.00  0.00    -0.213 NA
BRANCH  40  44
ATOM     44  C   UNL     1      29.212  38.947   9.395  1.00  0.00     0.070 C 
BRANCH  44  45
ATOM     45  C   UNL     1      30.468  38.241   8.967  1.00  0.00     0.165 C 
BRANCH  45  46
ATOM     46  O   UNL     1      31.279  39.024   8.195  1.00  0.00    -0.381 OA
BRANCH  46  47
ATOM     47  C   UNL     1      30.610  39.945   7.423  1.00  0.00     0.156 C 
ATOM     48  C   UNL     1      30.976  39.826   5.959  1.00  0.00     0.035 C 
ENDBRANCH  46  47
ENDBRANCH  45  46
ENDBRANCH  44  45
ENDBRANCH  40  44
BRANCH  41  49
ATOM     49  N   UNL     1      24.936  35.514  10.523  1.00  0.00    -0.368 N 
ATOM     50  H   UNL     1      24.637  35.370  11.503  1.00  0.00     0.159 HD
ATOM     51  H   UNL     1      24.426  35.001   9.780  1.00  0.00     0.159 HD
ENDBRANCH  41  49
BRANCH  42  52
ATOM     52  C   UNL     1      27.286  38.208   7.326  1.00  0.00     0.001 A 
ATOM     53  C   UNL     1      26.928  39.389   6.787  1.00  0.00     0.010 A 
ATOM     54  C   UNL     1      27.894  37.279   6.452  1.00  0.00     0.010 A 
ATOM     55  C   UNL     1      27.156  39.665   5.425  1.00  0.00     0.001 A 
ATOM     56  C   UNL     1      28.121  37.534   5.129  1.00  0.00     0.001 A 
ATOM     57  C   UNL     1      27.749  38.752   4.586  1.00  0.00     0.000 A 
ENDBRANCH  42  52
ENDBRANCH  36  38
ENDBRANCH  32  33
ENDBRANCH   1  32
TORSDOF 21
BEGIN_RES LYS A 131
REMARK  4 active torsions:
REMARK  status: ('A' for Active; 'I' for Inactive)
REMARK    1  A    between atoms: CA   and  CB  
REMARK    2  A    between atoms: CB   and  CG  
REMARK    3  A    between atoms: CG   and  CD  
REMARK    4  A    between atoms: CD   and  CE  
ROOT
ATOM      1  CA  LYS A 131      29.867  25.555  16.977  1.00 20.52     0.186 C 
ENDROOT
BRANCH   1   2
ATOM      2  CB  LYS A 131      28.345  25.722  17.026  1.00 20.94     0.034 C 
BRANCH   2   3
ATOM      3  CG  LYS A 131      27.601  24.403  16.887  1.00 22.96     0.005 C 
BRANCH   3   4
ATOM      4  CD  LYS A 131      26.198  24.484  17.421  1.00 24.33     0.041 C 
BRANCH   4   5
ATOM      5  CE  LYS A 131      26.124  25.565  18.495  1.00 26.91     0.338 C 
ATOM      6  NZ  LYS A 131      25.503  25.028  19.729  1.00 27.40     0.618 N 
ENDBRANCH   4   5
ENDBRANCH   3   4
ENDBRANCH   2   3
ENDBRANCH   1   2
END_RES LYS A 131
BEGIN_RES LYS A 135
REMARK  4 active torsions:
REMARK  status: ('A' for Active; 'I' for Inactive)
REMARK    5  A    between atoms: CA   and  CB  
REMARK    6  A    between atoms: CB   and  CG  
REMARK    7  A    between atoms: CG   and  CD  
REMARK    8  A    between atoms: CD   and  CE  
ROOT
ATOM      7  CA  LYS A 135      33.193  34.663   9.290  1.00 25.02     0.186 C 
ENDROOT
BRANCH   7   8
ATOM      8  CB  LYS A 135      32.060  35.360  10.034  1.00 26.63     0.034 C 
BRANCH   8   9
ATOM      9  CG  LYS A 135      30.745  34.630   9.949  1.00 29.45     0.005 C 
BRANCH   9  10
ATOM     10  CD  LYS A 135      30.306  34.480   8.501  1.00 32.00     0.041 C 
BRANCH  10  11
ATOM     11  CE  LYS A 135      28.793  34.455   8.402  1.00 34.25     0.338 C 
ATOM     12  NZ  LYS A 135      28.193  33.711   9.544  1.00 35.99     0.618 N 
ENDBRANCH  10  11
ENDBRANCH   9  10
ENDBRANCH   8   9
ENDBRANCH   7   8
END_RES LYS A 135
