REMARK VINA RESULT:    -3.154      3.886      6.726
REMARK INTER + INTRA:         -13.307
REMARK INTER:                  -6.489
REMARK INTRA:                  -6.818
REMARK UNBOUND:                -7.572
REMARK SMILES CC(=O)N[C@@H]1[C@@H](O)C[C@](O)(C(=O)O)O[C@H]1C(O)[C@H](O)CNC(=O)OCc1cn(CCO)nn1
REMARK SMILES IDX 21 1 22 2 23 3 20 5 18 6 16 7 15 8 9 9 8 10 14 11 6 12 5 13
REMARK SMILES IDX 10 14 11 16 12 17 13 18 7 20 4 22 2 23 1 25 3 26 17 27 19 29
REMARK SMILES IDX 24 31 25 32 26 33 27 34 33 35 28 36 32 37 29 38 30 39 31 40
REMARK H PARENT 21 4 10 15 13 19 7 21 4 24 17 28 19 30 31 41
REMARK Flexibility Score: inf
ROOT
ATOM      1  N   UNL     1      23.300  38.916   9.693  1.00  0.00    -0.319 N 
ATOM      2  C   UNL     1      22.515  37.789   9.425  1.00  0.00     0.407 C 
ATOM      3  O   UNL     1      21.669  37.825   8.535  1.00  0.00    -0.225 OA
ATOM      4  H   UNL     1      24.008  38.784  10.491  1.00  0.00     0.167 HD
ENDROOT
BRANCH   1   5
ATOM      5  C   UNL     1      23.299  40.186   9.078  1.00  0.00     0.154 C 
BRANCH   5   6
ATOM      6  C   UNL     1      24.509  40.581   8.291  1.00  0.00     0.165 C 
BRANCH   6   7
ATOM      7  C   UNL     1      24.353  40.304   6.826  1.00  0.00     0.176 C 
BRANCH   7   8
ATOM      8  C   UNL     1      25.547  40.295   5.970  1.00  0.00     0.178 C 
ATOM      9  C   UNL     1      27.586  39.318   5.522  1.00  0.00     0.269 C 
ATOM     10  C   UNL     1      27.348  39.944   4.164  1.00  0.00     0.112 C 
ATOM     11  O   UNL     1      26.465  39.348   6.351  1.00  0.00    -0.332 OA
ATOM     12  C   UNL     1      26.940  41.403   4.318  1.00  0.00     0.145 C 
ATOM     13  C   UNL     1      26.234  41.585   5.677  1.00  0.00     0.142 C 
BRANCH   9  14
ATOM     14  O   UNL     1      28.598  39.993   6.201  1.00  0.00    -0.357 OA
ATOM     15  H   UNL     1      28.303  40.860   6.561  1.00  0.00     0.214 HD
ENDBRANCH   9  14
BRANCH   9  16
ATOM     16  C   UNL     1      27.966  37.893   5.395  1.00  0.00     0.364 C 
ATOM     17  O   UNL     1      29.156  37.514   5.247  1.00  0.00    -0.246 OA
BRANCH  16  18
ATOM     18  O   UNL     1      26.978  36.927   5.438  1.00  0.00    -0.477 OA
ATOM     19  H   UNL     1      26.353  36.873   6.256  1.00  0.00     0.296 HD
ENDBRANCH  16  18
ENDBRANCH   9  16
BRANCH  12  20
ATOM     20  O   UNL     1      28.072  42.202   4.245  1.00  0.00    -0.391 OA
ATOM     21  H   UNL     1      28.857  41.597   4.315  1.00  0.00     0.211 HD
ENDBRANCH  12  20
BRANCH  13  22
ATOM     22  N   UNL     1      25.350  42.729   5.583  1.00  0.00    -0.348 N 
ATOM     23  C   UNL     1      25.505  43.787   6.515  1.00  0.00     0.217 C 
ATOM     24  H   UNL     1      24.602  42.794   4.850  1.00  0.00     0.163 HD
ATOM     25  C   UNL     1      24.643  44.999   6.497  1.00  0.00     0.114 C 
ATOM     26  O   UNL     1      26.398  43.711   7.390  1.00  0.00    -0.275 OA
ENDBRANCH  13  22
ENDBRANCH   7   8
BRANCH   7  27
ATOM     27  O   UNL     1      23.727  39.003   6.802  1.00  0.00    -0.388 OA
ATOM     28  H   UNL     1      24.409  38.341   6.597  1.00  0.00     0.211 HD
ENDBRANCH   7  27
ENDBRANCH   6   7
BRANCH   6  29
ATOM     29  O   UNL     1      25.649  40.078   8.825  1.00  0.00    -0.388 OA
ATOM     30  H   UNL     1      26.033  40.575   9.573  1.00  0.00     0.211 HD
ENDBRANCH   6  29
ENDBRANCH   5   6
ENDBRANCH   1   5
BRANCH   2  31
ATOM     31  O   UNL     1      22.664  36.607  10.147  1.00  0.00    -0.443 OA
BRANCH  31  32
ATOM     32  C   UNL     1      23.603  35.621   9.775  1.00  0.00     0.294 C 
BRANCH  32  33
ATOM     33  C   UNL     1      24.919  36.259   9.530  1.00  0.00     0.120 A 
ATOM     34  C   UNL     1      25.934  36.452  10.435  1.00  0.00     0.138 A 
ATOM     35  N   UNL     1      25.340  36.756   8.376  1.00  0.00    -0.132 NA
ATOM     36  N   UNL     1      26.922  37.065   9.758  1.00  0.00    -0.250 N 
ATOM     37  N   UNL     1      26.566  37.255   8.498  1.00  0.00    -0.067 NA
BRANCH  36  38
ATOM     38  C   UNL     1      28.189  37.455  10.343  1.00  0.00     0.174 C 
BRANCH  38  39
ATOM     39  C   UNL     1      28.802  38.558   9.485  1.00  0.00     0.179 C 
BRANCH  39  40
ATOM     40  O   UNL     1      29.455  37.960   8.387  1.00  0.00    -0.394 OA
ATOM     41  H   UNL     1      29.503  36.965   8.523  1.00  0.00     0.210 HD
ENDBRANCH  39  40
ENDBRANCH  38  39
ENDBRANCH  36  38
ENDBRANCH  32  33
ENDBRANCH  31  32
ENDBRANCH   2  31
TORSDOF 17
BEGIN_RES LYS A 131
REMARK  4 active torsions:
REMARK  status: ('A' for Active; 'I' for Inactive)
REMARK    1  A    between atoms: CA   and  CB  
REMARK    2  A    between atoms: CB   and  CG  
REMARK    3  A    between atoms: CG   and  CD  
REMARK    4  A    between atoms: CD   and  CE  
ROOT
ATOM      1  CA  LYS A 131      29.867  25.555  16.977  1.00 20.52     0.186 C 
ENDROOT
BRANCH   1   2
ATOM      2  CB  LYS A 131      28.345  25.722  17.026  1.00 20.94     0.034 C 
BRANCH   2   3
ATOM      3  CG  LYS A 131      27.601  24.402  16.893  1.00 22.96     0.005 C 
BRANCH   3   4
ATOM      4  CD  LYS A 131      26.149  24.531  17.259  1.00 24.33     0.041 C 
BRANCH   4   5
ATOM      5  CE  LYS A 131      25.635  23.195  17.786  1.00 26.91     0.338 C 
ATOM      6  NZ  LYS A 131      24.322  22.868  17.181  1.00 27.40     0.618 N 
ENDBRANCH   4   5
ENDBRANCH   3   4
ENDBRANCH   2   3
ENDBRANCH   1   2
END_RES LYS A 131
BEGIN_RES LYS A 135
REMARK  4 active torsions:
REMARK  status: ('A' for Active; 'I' for Inactive)
REMARK    5  A    between atoms: CA   and  CB  
REMARK    6  A    between atoms: CB   and  CG  
REMARK    7  A    between atoms: CG   and  CD  
REMARK    8  A    between atoms: CD   and  CE  
ROOT
ATOM      7  CA  LYS A 135      33.193  34.663   9.290  1.00 25.02     0.186 C 
ENDROOT
BRANCH   7   8
ATOM      8  CB  LYS A 135      32.060  35.360  10.034  1.00 26.63     0.034 C 
BRANCH   8   9
ATOM      9  CG  LYS A 135      30.734  34.655   9.909  1.00 29.45     0.005 C 
BRANCH   9  10
ATOM     10  CD  LYS A 135      30.362  34.467   8.447  1.00 32.00     0.041 C 
BRANCH  10  11
ATOM     11  CE  LYS A 135      28.855  34.475   8.275  1.00 34.25     0.338 C 
ATOM     12  NZ  LYS A 135      28.182  33.791   9.414  1.00 35.99     0.618 N 
ENDBRANCH  10  11
ENDBRANCH   9  10
ENDBRANCH   8   9
ENDBRANCH   7   8
END_RES LYS A 135
