REMARK VINA RESULT:    -5.054      5.709     12.037
REMARK INTER + INTRA:         -16.050
REMARK INTER:                 -10.092
REMARK INTRA:                  -5.958
REMARK UNBOUND:                -6.121
REMARK SMILES CC(=O)N[C@@H]1[C@@H](O)C[C@](O)(C(=O)O)O[C@H]1C(O)[C@H](O)CNC(=O)OCc1cn(C[C@@H](C)CN2CCN(c3ccc(Cl)cc3)CC2)nn1
REMARK SMILES IDX 24 1 22 2 21 3 23 5 20 6 18 7 16 8 15 9 9 10 8 11 14 12 6 13
REMARK SMILES IDX 5 14 10 15 11 17 12 18 13 19 7 21 4 23 2 24 1 26 3 27 17 28
REMARK SMILES IDX 19 30 25 32 26 33 27 34 47 35 28 36 46 37 29 38 30 39 31 40
REMARK SMILES IDX 32 41 33 42 34 43 45 44 35 45 44 46 36 47 37 48 38 49 43 50
REMARK SMILES IDX 39 51 42 52 40 53 41 54
REMARK H PARENT 21 4 10 16 13 20 7 22 4 25 17 29 19 31
REMARK Flexibility Score: inf
ROOT
ATOM      1  O   UNL     1      31.773  33.548  15.550  1.00  0.00    -0.443 OA
ENDROOT
BRANCH   1   2
ATOM      2  C   UNL     1      30.897  33.402  16.614  1.00  0.00     0.407 C 
ATOM      3  N   UNL     1      29.482  33.335  16.480  1.00  0.00    -0.319 N 
ATOM      4  H   UNL     1      29.104  33.412  15.517  1.00  0.00     0.167 HD
ATOM      5  O   UNL     1      31.426  33.325  17.757  1.00  0.00    -0.225 OA
BRANCH   3   6
ATOM      6  C   UNL     1      28.725  33.169  17.677  1.00  0.00     0.154 C 
BRANCH   6   7
ATOM      7  C   UNL     1      28.036  31.876  17.854  1.00  0.00     0.165 C 
BRANCH   7   8
ATOM      8  C   UNL     1      28.785  30.839  18.672  1.00  0.00     0.176 C 
BRANCH   8   9
ATOM      9  C   UNL     1      27.870  29.614  18.648  1.00  0.00     0.178 C 
ATOM     10  C   UNL     1      25.583  29.151  18.707  1.00  0.00     0.269 C 
ATOM     11  C   UNL     1      25.846  27.973  19.602  1.00  0.00     0.112 C 
ATOM     12  O   UNL     1      26.586  30.082  18.696  1.00  0.00    -0.332 OA
ATOM     13  C   UNL     1      27.254  27.498  19.614  1.00  0.00     0.145 C 
ATOM     14  C   UNL     1      28.152  28.737  19.823  1.00  0.00     0.142 C 
BRANCH  10  15
ATOM     15  O   UNL     1      24.451  29.790  19.275  1.00  0.00    -0.357 OA
ATOM     16  H   UNL     1      23.765  29.957  18.603  1.00  0.00     0.214 HD
ENDBRANCH  10  15
BRANCH  10  17
ATOM     17  C   UNL     1      25.175  28.751  17.328  1.00  0.00     0.364 C 
ATOM     18  O   UNL     1      24.495  27.710  17.146  1.00  0.00    -0.246 OA
BRANCH  17  19
ATOM     19  O   UNL     1      25.510  29.485  16.200  1.00  0.00    -0.477 OA
ATOM     20  H   UNL     1      25.918  29.092  15.360  1.00  0.00     0.296 HD
ENDBRANCH  17  19
ENDBRANCH  10  17
BRANCH  13  21
ATOM     21  O   UNL     1      27.432  26.647  20.704  1.00  0.00    -0.391 OA
ATOM     22  H   UNL     1      26.593  26.154  20.906  1.00  0.00     0.211 HD
ENDBRANCH  13  21
BRANCH  14  23
ATOM     23  N   UNL     1      29.531  28.334  19.913  1.00  0.00    -0.348 N 
ATOM     24  C   UNL     1      30.289  28.567  21.082  1.00  0.00     0.217 C 
ATOM     25  H   UNL     1      29.972  27.865  19.104  1.00  0.00     0.163 HD
ATOM     26  C   UNL     1      31.711  28.109  21.068  1.00  0.00     0.114 C 
ATOM     27  O   UNL     1      29.828  29.124  22.100  1.00  0.00    -0.275 OA
ENDBRANCH  14  23
ENDBRANCH   8   9
BRANCH   8  28
ATOM     28  O   UNL     1      30.005  30.562  18.035  1.00  0.00    -0.388 OA
ATOM     29  H   UNL     1      29.849  29.749  17.488  1.00  0.00     0.211 HD
ENDBRANCH   8  28
ENDBRANCH   7   8
BRANCH   7  30
ATOM     30  O   UNL     1      27.953  31.283  16.563  1.00  0.00    -0.388 OA
ATOM     31  H   UNL     1      28.176  32.032  15.940  1.00  0.00     0.211 HD
ENDBRANCH   7  30
ENDBRANCH   6   7
ENDBRANCH   3   6
ENDBRANCH   1   2
BRANCH   1  32
ATOM     32  C   UNL     1      32.349  34.810  15.252  1.00  0.00     0.294 C 
BRANCH  32  33
ATOM     33  C   UNL     1      31.522  35.535  14.262  1.00  0.00     0.120 A 
ATOM     34  C   UNL     1      31.950  36.673  13.573  1.00  0.00     0.138 A 
ATOM     35  N   UNL     1      30.284  35.318  13.797  1.00  0.00    -0.132 NA
ATOM     36  N   UNL     1      30.993  37.100  12.737  1.00  0.00    -0.252 N 
ATOM     37  N   UNL     1      29.967  36.236  12.901  1.00  0.00    -0.067 NA
BRANCH  36  38
ATOM     38  C   UNL     1      31.000  38.220  11.814  1.00  0.00     0.150 C 
BRANCH  38  39
ATOM     39  C   UNL     1      29.590  38.819  11.736  1.00  0.00     0.022 C 
ATOM     40  C   UNL     1      29.341  39.798  12.821  1.00  0.00     0.011 C 
BRANCH  39  41
ATOM     41  C   UNL     1      29.214  39.157  10.354  1.00  0.00     0.089 C 
BRANCH  41  42
ATOM     42  N   UNL     1      27.960  38.606   9.945  1.00  0.00    -0.299 NA
ATOM     43  C   UNL     1      27.837  38.681   8.465  1.00  0.00     0.106 C 
ATOM     44  C   UNL     1      27.942  37.171  10.211  1.00  0.00     0.106 C 
ATOM     45  C   UNL     1      26.621  37.973   7.982  1.00  0.00     0.132 C 
ATOM     46  C   UNL     1      26.450  36.806  10.212  1.00  0.00     0.132 C 
ATOM     47  N   UNL     1      25.894  37.221   8.956  1.00  0.00    -0.369 N 
BRANCH  47  48
ATOM     48  C   UNL     1      24.548  36.851   8.679  1.00  0.00     0.037 A 
ATOM     49  C   UNL     1      23.834  37.554   7.734  1.00  0.00     0.027 A 
ATOM     50  C   UNL     1      23.943  35.799   9.353  1.00  0.00     0.027 A 
ATOM     51  C   UNL     1      22.531  37.197   7.476  1.00  0.00     0.022 A 
ATOM     52  C   UNL     1      22.644  35.454   9.089  1.00  0.00     0.022 A 
ATOM     53  C   UNL     1      21.933  36.165   8.135  1.00  0.00     0.041 A 
ATOM     54  Cl  UNL     1      20.279  35.717   7.817  1.00  0.00    -0.084 Cl
ENDBRANCH  47  48
ENDBRANCH  41  42
ENDBRANCH  39  41
ENDBRANCH  38  39
ENDBRANCH  36  38
ENDBRANCH  32  33
ENDBRANCH   1  32
TORSDOF 19
BEGIN_RES LYS A 131
REMARK  4 active torsions:
REMARK  status: ('A' for Active; 'I' for Inactive)
REMARK    1  A    between atoms: CA   and  CB  
REMARK    2  A    between atoms: CB   and  CG  
REMARK    3  A    between atoms: CG   and  CD  
REMARK    4  A    between atoms: CD   and  CE  
ROOT
ATOM      1  CA  LYS A 131      29.867  25.555  16.977  1.00 20.52     0.186 C 
ENDROOT
BRANCH   1   2
ATOM      2  CB  LYS A 131      28.345  25.722  17.026  1.00 20.94     0.034 C 
BRANCH   2   3
ATOM      3  CG  LYS A 131      27.602  24.398  16.932  1.00 22.96     0.005 C 
BRANCH   3   4
ATOM      4  CD  LYS A 131      26.154  24.533  17.312  1.00 24.33     0.041 C 
BRANCH   4   5
ATOM      5  CE  LYS A 131      25.951  24.023  18.735  1.00 26.91     0.338 C 
ATOM      6  NZ  LYS A 131      24.993  22.892  18.749  1.00 27.40     0.618 N 
ENDBRANCH   4   5
ENDBRANCH   3   4
ENDBRANCH   2   3
ENDBRANCH   1   2
END_RES LYS A 131
BEGIN_RES LYS A 135
REMARK  4 active torsions:
REMARK  status: ('A' for Active; 'I' for Inactive)
REMARK    5  A    between atoms: CA   and  CB  
REMARK    6  A    between atoms: CB   and  CG  
REMARK    7  A    between atoms: CG   and  CD  
REMARK    8  A    between atoms: CD   and  CE  
ROOT
ATOM      7  CA  LYS A 135      33.193  34.663   9.290  1.00 25.02     0.186 C 
ENDROOT
BRANCH   7   8
ATOM      8  CB  LYS A 135      32.060  35.360  10.034  1.00 26.63     0.034 C 
BRANCH   8   9
ATOM      9  CG  LYS A 135      30.710  34.732   9.801  1.00 29.45     0.005 C 
BRANCH   9  10
ATOM     10  CD  LYS A 135      30.478  34.495   8.317  1.00 32.00     0.041 C 
BRANCH  10  11
ATOM     11  CE  LYS A 135      29.024  34.738   7.960  1.00 34.25     0.338 C 
ATOM     12  NZ  LYS A 135      28.905  35.531   6.705  1.00 35.99     0.618 N 
ENDBRANCH  10  11
ENDBRANCH   9  10
ENDBRANCH   8   9
ENDBRANCH   7   8
END_RES LYS A 135
