REMARK VINA RESULT:    -4.646      3.380      6.527
REMARK INTER + INTRA:         -15.550
REMARK INTER:                  -9.440
REMARK INTRA:                  -6.110
REMARK UNBOUND:                -7.237
REMARK SMILES CC(=O)N[C@@H]1[C@@H](O)C[C@](O)(C(=O)O)O[C@H]1C(O)[C@H](O)CNC(=O)OCc1cn(-c2ccccc2C(C)C)nn1
REMARK SMILES IDX 21 1 22 2 23 3 20 5 18 6 16 7 15 8 9 9 8 10 14 11 6 12 5 13
REMARK SMILES IDX 10 14 11 16 12 17 13 18 7 20 4 22 2 23 1 25 3 26 17 27 19 29
REMARK SMILES IDX 24 31 25 32 26 33 27 34 39 35 28 36 38 37 29 38 34 39 30 40
REMARK SMILES IDX 33 41 31 42 32 43 35 44 36 45 37 46
REMARK H PARENT 21 4 10 15 13 19 7 21 4 24 17 28 19 30
REMARK Flexibility Score: inf
ROOT
ATOM      1  N   UNL     1      28.748  31.234  16.894  1.00  0.00    -0.319 N 
ATOM      2  C   UNL     1      27.964  30.650  17.907  1.00  0.00     0.407 C 
ATOM      3  O   UNL     1      28.486  30.000  18.836  1.00  0.00    -0.225 OA
ATOM      4  H   UNL     1      28.252  31.783  16.140  1.00  0.00     0.167 HD
ENDROOT
BRANCH   1   5
ATOM      5  C   UNL     1      30.164  31.112  16.858  1.00  0.00     0.154 C 
BRANCH   5   6
ATOM      6  C   UNL     1      30.877  32.229  16.097  1.00  0.00     0.165 C 
BRANCH   6   7
ATOM      7  C   UNL     1      29.745  33.205  15.769  1.00  0.00     0.176 C 
BRANCH   7   8
ATOM      8  C   UNL     1      29.776  33.682  14.352  1.00  0.00     0.178 C 
ATOM      9  C   UNL     1      30.774  35.571  13.451  1.00  0.00     0.269 C 
ATOM     10  C   UNL     1      29.695  35.717  12.438  1.00  0.00     0.112 C 
ATOM     11  O   UNL     1      30.909  34.375  14.089  1.00  0.00    -0.332 OA
ATOM     12  C   UNL     1      28.401  34.997  12.753  1.00  0.00     0.145 C 
ATOM     13  C   UNL     1      28.517  34.516  14.169  1.00  0.00     0.142 C 
BRANCH   9  14
ATOM     14  O   UNL     1      30.707  36.648  14.374  1.00  0.00    -0.357 OA
ATOM     15  H   UNL     1      31.501  36.729  14.933  1.00  0.00     0.214 HD
ENDBRANCH   9  14
BRANCH   9  16
ATOM     16  C   UNL     1      32.073  35.773  12.711  1.00  0.00     0.364 C 
ATOM     17  O   UNL     1      32.251  36.856  12.114  1.00  0.00    -0.246 OA
BRANCH  16  18
ATOM     18  O   UNL     1      33.078  34.815  12.673  1.00  0.00    -0.477 OA
ATOM     19  H   UNL     1      33.083  33.965  13.232  1.00  0.00     0.296 HD
ENDBRANCH  16  18
ENDBRANCH   9  16
BRANCH  12  20
ATOM     20  O   UNL     1      27.339  35.951  12.674  1.00  0.00    -0.391 OA
ATOM     21  H   UNL     1      27.644  36.780  12.235  1.00  0.00     0.211 HD
ENDBRANCH  12  20
BRANCH  13  22
ATOM     22  N   UNL     1      27.406  33.884  14.764  1.00  0.00    -0.348 N 
ATOM     23  C   UNL     1      26.411  34.533  15.535  1.00  0.00     0.217 C 
ATOM     24  H   UNL     1      27.282  32.822  14.639  1.00  0.00     0.163 HD
ATOM     25  C   UNL     1      25.262  33.855  16.146  1.00  0.00     0.114 C 
ATOM     26  O   UNL     1      26.577  35.818  15.688  1.00  0.00    -0.275 OA
ENDBRANCH  13  22
ENDBRANCH   7   8
BRANCH   7  27
ATOM     27  O   UNL     1      29.881  34.237  16.703  1.00  0.00    -0.388 OA
ATOM     28  H   UNL     1      29.956  33.811  17.597  1.00  0.00     0.211 HD
ENDBRANCH   7  27
ENDBRANCH   6   7
BRANCH   6  29
ATOM     29  O   UNL     1      31.488  31.823  14.956  1.00  0.00    -0.388 OA
ATOM     30  H   UNL     1      32.230  31.239  15.093  1.00  0.00     0.211 HD
ENDBRANCH   6  29
ENDBRANCH   5   6
ENDBRANCH   1   5
BRANCH   2  31
ATOM     31  O   UNL     1      26.574  30.782  17.901  1.00  0.00    -0.443 OA
BRANCH  31  32
ATOM     32  C   UNL     1      25.810  29.672  17.456  1.00  0.00     0.294 C 
BRANCH  32  33
ATOM     33  C   UNL     1      25.410  29.998  16.064  1.00  0.00     0.121 A 
ATOM     34  C   UNL     1      24.168  29.661  15.512  1.00  0.00     0.144 A 
ATOM     35  N   UNL     1      26.059  30.732  15.147  1.00  0.00    -0.131 NA
ATOM     36  N   UNL     1      24.152  30.229  14.292  1.00  0.00    -0.220 N 
ATOM     37  N   UNL     1      25.256  30.836  14.122  1.00  0.00    -0.062 NA
BRANCH  36  38
ATOM     38  C   UNL     1      23.018  30.241  13.447  1.00  0.00     0.070 A 
ATOM     39  C   UNL     1      22.229  31.325  13.381  1.00  0.00    -0.020 A 
ATOM     40  C   UNL     1      22.634  29.048  12.818  1.00  0.00     0.029 A 
ATOM     41  C   UNL     1      21.027  31.248  12.678  1.00  0.00     0.006 A 
ATOM     42  C   UNL     1      21.478  28.955  12.135  1.00  0.00     0.002 A 
ATOM     43  C   UNL     1      20.639  30.058  12.048  1.00  0.00     0.000 A 
BRANCH  39  44
ATOM     44  C   UNL     1      22.662  32.606  13.904  1.00  0.00     0.015 C 
ATOM     45  C   UNL     1      21.503  33.462  14.392  1.00  0.00     0.012 C 
ATOM     46  C   UNL     1      23.082  33.451  12.621  1.00  0.00     0.012 C 
ENDBRANCH  39  44
ENDBRANCH  36  38
ENDBRANCH  32  33
ENDBRANCH  31  32
ENDBRANCH   2  31
TORSDOF 16
BEGIN_RES LYS A 131
REMARK  4 active torsions:
REMARK  status: ('A' for Active; 'I' for Inactive)
REMARK    1  A    between atoms: CA   and  CB  
REMARK    2  A    between atoms: CB   and  CG  
REMARK    3  A    between atoms: CG   and  CD  
REMARK    4  A    between atoms: CD   and  CE  
ROOT
ATOM      1  CA  LYS A 131      29.867  25.555  16.977  1.00 20.52     0.186 C 
ENDROOT
BRANCH   1   2
ATOM      2  CB  LYS A 131      28.345  25.722  17.026  1.00 20.94     0.034 C 
BRANCH   2   3
ATOM      3  CG  LYS A 131      27.601  24.406  16.863  1.00 22.96     0.005 C 
BRANCH   3   4
ATOM      4  CD  LYS A 131      26.656  24.144  18.003  1.00 24.33     0.041 C 
BRANCH   4   5
ATOM      5  CE  LYS A 131      25.549  23.202  17.542  1.00 26.91     0.338 C 
ATOM      6  NZ  LYS A 131      24.468  23.962  16.870  1.00 27.40     0.618 N 
ENDBRANCH   4   5
ENDBRANCH   3   4
ENDBRANCH   2   3
ENDBRANCH   1   2
END_RES LYS A 131
BEGIN_RES LYS A 135
REMARK  4 active torsions:
REMARK  status: ('A' for Active; 'I' for Inactive)
REMARK    5  A    between atoms: CA   and  CB  
REMARK    6  A    between atoms: CB   and  CG  
REMARK    7  A    between atoms: CG   and  CD  
REMARK    8  A    between atoms: CD   and  CE  
ROOT
ATOM      7  CA  LYS A 135      33.193  34.663   9.290  1.00 25.02     0.186 C 
ENDROOT
BRANCH   7   8
ATOM      8  CB  LYS A 135      32.060  35.360  10.034  1.00 26.63     0.034 C 
BRANCH   8   9
ATOM      9  CG  LYS A 135      30.825  35.566   9.195  1.00 29.45     0.005 C 
BRANCH   9  10
ATOM     10  CD  LYS A 135      30.102  34.248   8.972  1.00 32.00     0.041 C 
BRANCH  10  11
ATOM     11  CE  LYS A 135      28.725  34.489   8.383  1.00 34.25     0.338 C 
ATOM     12  NZ  LYS A 135      27.972  35.500   9.176  1.00 35.99     0.618 N 
ENDBRANCH  10  11
ENDBRANCH   9  10
ENDBRANCH   8   9
ENDBRANCH   7   8
END_RES LYS A 135
