REMARK VINA RESULT:    -5.043      7.406     13.253
REMARK INTER + INTRA:         -16.827
REMARK INTER:                  -8.860
REMARK INTRA:                  -7.966
REMARK UNBOUND:                -6.771
REMARK SMILES CC(=O)N[C@@H]1[C@@H](O)C[C@](O)(C(=O)O)O[C@H]1C(O)[C@H](O)CNC(=O)OCc1cn(CC(O)CCc2ccccc2)nn1
REMARK SMILES IDX 24 1 22 2 21 3 23 5 20 6 18 7 16 8 15 9 9 10 8 11 14 12 6 13
REMARK SMILES IDX 5 14 10 15 11 17 12 18 13 19 7 21 4 23 2 24 1 26 3 27 17 28
REMARK SMILES IDX 19 30 25 32 26 33 27 34 41 35 28 36 40 37 29 38 30 39 31 40
REMARK SMILES IDX 32 42 33 43 34 44 35 45 39 46 36 47 38 48 37 49
REMARK H PARENT 21 4 10 16 13 20 7 22 4 25 17 29 19 31 31 41
REMARK Flexibility Score: inf
ROOT
ATOM      1  O   UNL     1      26.310  34.386  20.701  1.00  0.00    -0.443 OA
ENDROOT
BRANCH   1   2
ATOM      2  C   UNL     1      27.629  34.173  21.060  1.00  0.00     0.407 C 
ATOM      3  N   UNL     1      28.081  32.885  21.414  1.00  0.00    -0.319 N 
ATOM      4  H   UNL     1      27.412  32.093  21.402  1.00  0.00     0.167 HD
ATOM      5  O   UNL     1      28.437  35.130  21.075  1.00  0.00    -0.225 OA
BRANCH   3   6
ATOM      6  C   UNL     1      29.461  32.618  21.796  1.00  0.00     0.154 C 
BRANCH   6   7
ATOM      7  C   UNL     1      30.298  32.260  20.582  1.00  0.00     0.165 C 
BRANCH   7   8
ATOM      8  C   UNL     1      30.080  30.787  20.275  1.00  0.00     0.176 C 
BRANCH   8   9
ATOM      9  C   UNL     1      30.084  29.972  21.571  1.00  0.00     0.178 C 
ATOM     10  C   UNL     1      31.944  28.563  21.645  1.00  0.00     0.269 C 
ATOM     11  C   UNL     1      31.182  27.650  20.750  1.00  0.00     0.112 C 
ATOM     12  O   UNL     1      31.319  29.692  22.037  1.00  0.00    -0.332 OA
ATOM     13  C   UNL     1      29.744  27.515  21.104  1.00  0.00     0.145 C 
ATOM     14  C   UNL     1      29.115  28.837  21.450  1.00  0.00     0.142 C 
BRANCH  10  15
ATOM     15  O   UNL     1      33.121  28.934  20.950  1.00  0.00    -0.357 OA
ATOM     16  H   UNL     1      33.826  28.257  21.117  1.00  0.00     0.214 HD
ENDBRANCH  10  15
BRANCH  10  17
ATOM     17  C   UNL     1      32.414  27.754  22.826  1.00  0.00     0.364 C 
ATOM     18  O   UNL     1      31.714  27.576  23.850  1.00  0.00    -0.246 OA
BRANCH  17  19
ATOM     19  O   UNL     1      33.677  27.153  22.832  1.00  0.00    -0.477 OA
ATOM     20  H   UNL     1      34.322  27.313  23.619  1.00  0.00     0.296 HD
ENDBRANCH  17  19
ENDBRANCH  10  17
BRANCH  13  21
ATOM     21  O   UNL     1      29.077  26.884  20.028  1.00  0.00    -0.391 OA
ATOM     22  H   UNL     1      29.692  26.795  19.241  1.00  0.00     0.211 HD
ENDBRANCH  13  21
BRANCH  14  23
ATOM     23  N   UNL     1      28.291  28.737  22.657  1.00  0.00    -0.348 N 
ATOM     24  C   UNL     1      27.070  29.416  22.776  1.00  0.00     0.217 C 
ATOM     25  H   UNL     1      28.673  28.121  23.434  1.00  0.00     0.163 HD
ATOM     26  C   UNL     1      26.277  29.284  24.011  1.00  0.00     0.114 C 
ATOM     27  O   UNL     1      26.648  30.131  21.848  1.00  0.00    -0.275 OA
ENDBRANCH  14  23
ENDBRANCH   8   9
BRANCH   8  28
ATOM     28  O   UNL     1      28.759  30.699  19.801  1.00  0.00    -0.388 OA
ATOM     29  H   UNL     1      28.720  30.256  18.901  1.00  0.00     0.211 HD
ENDBRANCH   8  28
ENDBRANCH   7   8
BRANCH   7  30
ATOM     30  O   UNL     1      31.642  32.501  20.841  1.00  0.00    -0.388 OA
ATOM     31  H   UNL     1      31.694  32.954  21.716  1.00  0.00     0.211 HD
ENDBRANCH   7  30
ENDBRANCH   6   7
ENDBRANCH   3   6
ENDBRANCH   1   2
BRANCH   1  32
ATOM     32  C   UNL     1      26.068  34.623  19.304  1.00  0.00     0.294 C 
BRANCH  32  33
ATOM     33  C   UNL     1      26.412  33.419  18.517  1.00  0.00     0.120 A 
ATOM     34  C   UNL     1      27.117  33.317  17.341  1.00  0.00     0.138 A 
ATOM     35  N   UNL     1      26.067  32.165  18.858  1.00  0.00    -0.132 NA
ATOM     36  N   UNL     1      27.181  32.022  17.001  1.00  0.00    -0.250 N 
ATOM     37  N   UNL     1      26.553  31.350  17.914  1.00  0.00    -0.067 NA
BRANCH  36  38
ATOM     38  C   UNL     1      27.837  31.429  15.814  1.00  0.00     0.177 C 
BRANCH  38  39
ATOM     39  C   UNL     1      28.998  30.608  16.283  1.00  0.00     0.136 C 
BRANCH  39  40
ATOM     40  O   UNL     1      28.598  29.590  17.160  1.00  0.00    -0.391 OA
ATOM     41  H   UNL     1      28.768  28.720  16.697  1.00  0.00     0.211 HD
ENDBRANCH  39  40
BRANCH  39  42
ATOM     42  C   UNL     1      30.236  31.295  16.569  1.00  0.00     0.038 C 
BRANCH  42  43
ATOM     43  C   UNL     1      30.891  32.081  15.516  1.00  0.00     0.038 C 
BRANCH  43  44
ATOM     44  C   UNL     1      31.610  33.260  15.971  1.00  0.00    -0.048 A 
ATOM     45  C   UNL     1      31.439  33.664  17.302  1.00  0.00     0.004 A 
ATOM     46  C   UNL     1      32.390  34.062  15.198  1.00  0.00     0.004 A 
ATOM     47  C   UNL     1      32.034  34.807  17.779  1.00  0.00     0.000 A 
ATOM     48  C   UNL     1      32.998  35.216  15.660  1.00  0.00     0.000 A 
ATOM     49  C   UNL     1      32.819  35.599  16.974  1.00  0.00     0.000 A 
ENDBRANCH  43  44
ENDBRANCH  42  43
ENDBRANCH  39  42
ENDBRANCH  38  39
ENDBRANCH  36  38
ENDBRANCH  32  33
ENDBRANCH   1  32
TORSDOF 20
BEGIN_RES LYS A 131
REMARK  4 active torsions:
REMARK  status: ('A' for Active; 'I' for Inactive)
REMARK    1  A    between atoms: CA   and  CB  
REMARK    2  A    between atoms: CB   and  CG  
REMARK    3  A    between atoms: CG   and  CD  
REMARK    4  A    between atoms: CD   and  CE  
ROOT
ATOM      1  CA  LYS A 131      29.867  25.555  16.977  1.00 20.52     0.186 C 
ENDROOT
BRANCH   1   2
ATOM      2  CB  LYS A 131      28.345  25.722  17.026  1.00 20.94     0.034 C 
BRANCH   2   3
ATOM      3  CG  LYS A 131      27.601  24.401  16.900  1.00 22.96     0.005 C 
BRANCH   3   4
ATOM      4  CD  LYS A 131      26.167  24.515  17.336  1.00 24.33     0.041 C 
BRANCH   4   5
ATOM      5  CE  LYS A 131      25.751  23.238  18.059  1.00 26.91     0.338 C 
ATOM      6  NZ  LYS A 131      25.497  23.513  19.493  1.00 27.40     0.618 N 
ENDBRANCH   4   5
ENDBRANCH   3   4
ENDBRANCH   2   3
ENDBRANCH   1   2
END_RES LYS A 131
BEGIN_RES LYS A 135
REMARK  4 active torsions:
REMARK  status: ('A' for Active; 'I' for Inactive)
REMARK    5  A    between atoms: CA   and  CB  
REMARK    6  A    between atoms: CB   and  CG  
REMARK    7  A    between atoms: CG   and  CD  
REMARK    8  A    between atoms: CD   and  CE  
ROOT
ATOM      7  CA  LYS A 135      33.193  34.663   9.290  1.00 25.02     0.186 C 
ENDROOT
BRANCH   7   8
ATOM      8  CB  LYS A 135      32.060  35.360  10.034  1.00 26.63     0.034 C 
BRANCH   8   9
ATOM      9  CG  LYS A 135      30.706  34.753   9.775  1.00 29.45     0.005 C 
BRANCH   9  10
ATOM     10  CD  LYS A 135      30.533  34.437   8.297  1.00 32.00     0.041 C 
BRANCH  10  11
ATOM     11  CE  LYS A 135      29.249  35.047   7.769  1.00 34.25     0.338 C 
ATOM     12  NZ  LYS A 135      28.116  34.809   8.706  1.00 35.99     0.618 N 
ENDBRANCH  10  11
ENDBRANCH   9  10
ENDBRANCH   8   9
ENDBRANCH   7   8
END_RES LYS A 135
