REMARK VINA RESULT:    -4.868      5.154      8.620
REMARK INTER + INTRA:         -13.936
REMARK INTER:                  -8.061
REMARK INTRA:                  -5.875
REMARK UNBOUND:                -5.226
REMARK SMILES COc1ccc(-n2cc(COC(=O)NC[C@@H](O)C(O)[C@@H]3O[C@@](O)(C(=O)O)C[C@H](O)[C@H]3NC(C)=O)nn2)cc1
REMARK SMILES IDX 14 1 12 2 13 3 15 5 16 6 18 7 20 8 22 9 27 10 21 11 28 12
REMARK SMILES IDX 30 13 23 14 24 16 25 17 26 18 29 20 31 22 32 23 33 25 34 26
REMARK SMILES IDX 19 27 17 29 11 31 10 32 9 33 8 34 35 35 7 36 36 37 6 38 5 39
REMARK SMILES IDX 37 40 4 41 38 42 3 43 2 44 1 45
REMARK H PARENT 14 4 23 15 26 19 29 21 31 24 19 28 17 30
REMARK Flexibility Score: inf
ROOT
ATOM      1  N   UNL     1      32.855  35.678  16.605  1.00  0.00    -0.319 N 
ATOM      2  C   UNL     1      32.176  36.630  15.814  1.00  0.00     0.407 C 
ATOM      3  O   UNL     1      31.334  37.407  16.287  1.00  0.00    -0.225 OA
ATOM      4  H   UNL     1      33.534  35.055  16.060  1.00  0.00     0.167 HD
ENDROOT
BRANCH   1   5
ATOM      5  C   UNL     1      32.758  35.447  17.989  1.00  0.00     0.154 C 
BRANCH   5   6
ATOM      6  C   UNL     1      31.824  34.448  18.503  1.00  0.00     0.165 C 
BRANCH   6   7
ATOM      7  C   UNL     1      30.399  34.685  18.444  1.00  0.00     0.176 C 
BRANCH   7   8
ATOM      8  C   UNL     1      29.570  33.672  17.625  1.00  0.00     0.178 C 
ATOM      9  C   UNL     1      29.678  31.316  17.618  1.00  0.00     0.269 C 
ATOM     10  C   UNL     1      30.511  31.332  16.326  1.00  0.00     0.112 C 
ATOM     11  O   UNL     1      29.899  32.477  18.241  1.00  0.00    -0.332 OA
ATOM     12  C   UNL     1      29.920  32.387  15.473  1.00  0.00     0.145 C 
ATOM     13  C   UNL     1      29.766  33.745  16.182  1.00  0.00     0.142 C 
BRANCH   9  14
ATOM     14  O   UNL     1      30.335  30.332  18.405  1.00  0.00    -0.357 OA
ATOM     15  H   UNL     1      31.289  30.260  18.157  1.00  0.00     0.214 HD
ENDBRANCH   9  14
BRANCH   9  16
ATOM     16  C   UNL     1      28.308  30.884  17.424  1.00  0.00     0.364 C 
ATOM     17  O   UNL     1      28.050  29.904  16.681  1.00  0.00    -0.246 OA
BRANCH  16  18
ATOM     18  O   UNL     1      27.182  31.471  18.005  1.00  0.00    -0.477 OA
ATOM     19  H   UNL     1      26.901  31.279  18.970  1.00  0.00     0.296 HD
ENDBRANCH  16  18
ENDBRANCH   9  16
BRANCH  12  20
ATOM     20  O   UNL     1      30.648  32.639  14.300  1.00  0.00    -0.391 OA
ATOM     21  H   UNL     1      30.169  33.412  13.865  1.00  0.00     0.211 HD
ENDBRANCH  12  20
BRANCH  13  22
ATOM     22  N   UNL     1      28.746  34.373  15.401  1.00  0.00    -0.348 N 
ATOM     23  C   UNL     1      27.387  34.481  15.699  1.00  0.00     0.217 C 
ATOM     24  H   UNL     1      29.082  34.803  14.488  1.00  0.00     0.163 HD
ATOM     25  C   UNL     1      26.433  35.168  14.774  1.00  0.00     0.114 C 
ATOM     26  O   UNL     1      27.000  33.983  16.761  1.00  0.00    -0.275 OA
ENDBRANCH  13  22
ENDBRANCH   7   8
BRANCH   7  27
ATOM     27  O   UNL     1      29.877  34.815  19.727  1.00  0.00    -0.388 OA
ATOM     28  H   UNL     1      30.516  35.241  20.352  1.00  0.00     0.211 HD
ENDBRANCH   7  27
ENDBRANCH   6   7
BRANCH   6  29
ATOM     29  O   UNL     1      32.264  33.996  19.780  1.00  0.00    -0.388 OA
ATOM     30  H   UNL     1      33.019  34.559  20.094  1.00  0.00     0.211 HD
ENDBRANCH   6  29
ENDBRANCH   5   6
ENDBRANCH   1   5
BRANCH   2  31
ATOM     31  O   UNL     1      32.430  36.741  14.431  1.00  0.00    -0.443 OA
BRANCH  31  32
ATOM     32  C   UNL     1      31.549  37.477  13.619  1.00  0.00     0.294 C 
BRANCH  32  33
ATOM     33  C   UNL     1      30.535  36.578  13.045  1.00  0.00     0.121 A 
ATOM     34  C   UNL     1      29.428  37.026  12.315  1.00  0.00     0.144 A 
ATOM     35  N   UNL     1      30.419  35.253  13.066  1.00  0.00    -0.131 NA
ATOM     36  N   UNL     1      28.708  35.954  11.937  1.00  0.00    -0.220 N 
ATOM     37  N   UNL     1      29.347  34.890  12.415  1.00  0.00    -0.062 NA
BRANCH  36  38
ATOM     38  C   UNL     1      27.507  35.948  11.178  1.00  0.00     0.067 A 
ATOM     39  C   UNL     1      26.651  34.871  11.136  1.00  0.00     0.032 A 
ATOM     40  C   UNL     1      27.138  37.068  10.429  1.00  0.00     0.032 A 
ATOM     41  C   UNL     1      25.479  34.885  10.390  1.00  0.00     0.048 A 
ATOM     42  C   UNL     1      25.973  37.080   9.688  1.00  0.00     0.048 A 
ATOM     43  C   UNL     1      25.129  35.994   9.657  1.00  0.00     0.119 A 
BRANCH  43  44
ATOM     44  O   UNL     1      23.979  36.003   8.928  1.00  0.00    -0.497 OA
ATOM     45  C   UNL     1      22.765  35.591   9.520  1.00  0.00     0.278 C 
ENDBRANCH  43  44
ENDBRANCH  36  38
ENDBRANCH  32  33
ENDBRANCH  31  32
ENDBRANCH   2  31
TORSDOF 16
BEGIN_RES LYS A 131
REMARK  4 active torsions:
REMARK  status: ('A' for Active; 'I' for Inactive)
REMARK    1  A    between atoms: CA   and  CB  
REMARK    2  A    between atoms: CB   and  CG  
REMARK    3  A    between atoms: CG   and  CD  
REMARK    4  A    between atoms: CD   and  CE  
ROOT
ATOM      1  CA  LYS A 131      29.867  25.555  16.977  1.00 20.52     0.186 C 
ENDROOT
BRANCH   1   2
ATOM      2  CB  LYS A 131      28.345  25.722  17.026  1.00 20.94     0.034 C 
BRANCH   2   3
ATOM      3  CG  LYS A 131      27.601  24.403  16.888  1.00 22.96     0.005 C 
BRANCH   3   4
ATOM      4  CD  LYS A 131      26.543  24.236  17.943  1.00 24.33     0.041 C 
BRANCH   4   5
ATOM      5  CE  LYS A 131      25.196  23.978  17.277  1.00 26.91     0.338 C 
ATOM      6  NZ  LYS A 131      24.797  22.560  17.442  1.00 27.40     0.618 N 
ENDBRANCH   4   5
ENDBRANCH   3   4
ENDBRANCH   2   3
ENDBRANCH   1   2
END_RES LYS A 131
BEGIN_RES LYS A 135
REMARK  4 active torsions:
REMARK  status: ('A' for Active; 'I' for Inactive)
REMARK    5  A    between atoms: CA   and  CB  
REMARK    6  A    between atoms: CB   and  CG  
REMARK    7  A    between atoms: CG   and  CD  
REMARK    8  A    between atoms: CD   and  CE  
ROOT
ATOM      7  CA  LYS A 135      33.193  34.663   9.290  1.00 25.02     0.186 C 
ENDROOT
BRANCH   7   8
ATOM      8  CB  LYS A 135      32.060  35.360  10.034  1.00 26.63     0.034 C 
BRANCH   8   9
ATOM      9  CG  LYS A 135      30.835  35.591   9.187  1.00 29.45     0.005 C 
BRANCH   9  10
ATOM     10  CD  LYS A 135      30.097  34.284   8.943  1.00 32.00     0.041 C 
BRANCH  10  11
ATOM     11  CE  LYS A 135      28.860  34.521   8.098  1.00 34.25     0.338 C 
ATOM     12  NZ  LYS A 135      28.907  35.856   7.441  1.00 35.99     0.618 N 
ENDBRANCH  10  11
ENDBRANCH   9  10
ENDBRANCH   8   9
ENDBRANCH   7   8
END_RES LYS A 135
