REMARK VINA RESULT:    -4.196      5.099      9.863
REMARK INTER + INTRA:         -14.057
REMARK INTER:                  -8.265
REMARK INTRA:                  -5.792
REMARK UNBOUND:                -6.059
REMARK SMILES CC(=O)N[C@@H]1[C@@H](O)C[C@](O)(C(=O)O)O[C@H]1C(O)[C@H](O)CNC(=O)OCc1cn(CCOC(C)=O)nn1
REMARK SMILES IDX 21 1 22 2 23 3 20 5 18 6 16 7 15 8 9 9 8 10 14 11 6 12 5 13
REMARK SMILES IDX 10 14 11 16 12 17 13 18 7 20 4 22 2 23 1 25 3 26 17 27 19 29
REMARK SMILES IDX 24 31 25 32 26 33 27 34 36 35 28 36 35 37 29 38 30 39 31 40
REMARK SMILES IDX 32 41 34 42 33 43
REMARK H PARENT 21 4 10 15 13 19 7 21 4 24 17 28 19 30
REMARK Flexibility Score: inf
ROOT
ATOM      1  N   UNL     1      31.496  41.036   8.862  1.00  0.00    -0.319 N 
ATOM      2  C   UNL     1      30.983  41.855   9.893  1.00  0.00     0.407 C 
ATOM      3  O   UNL     1      29.831  42.307   9.824  1.00  0.00    -0.225 OA
ATOM      4  H   UNL     1      32.489  40.698   8.998  1.00  0.00     0.167 HD
ENDROOT
BRANCH   1   5
ATOM      5  C   UNL     1      30.768  40.644   7.675  1.00  0.00     0.154 C 
BRANCH   5   6
ATOM      6  C   UNL     1      30.536  39.182   7.623  1.00  0.00     0.165 C 
BRANCH   6   7
ATOM      7  C   UNL     1      29.165  38.706   8.048  1.00  0.00     0.176 C 
BRANCH   7   8
ATOM      8  C   UNL     1      28.049  39.074   7.117  1.00  0.00     0.178 C 
ATOM      9  C   UNL     1      26.695  37.356   7.910  1.00  0.00     0.269 C 
ATOM     10  C   UNL     1      27.337  36.419   6.962  1.00  0.00     0.112 C 
ATOM     11  O   UNL     1      26.807  38.690   7.622  1.00  0.00    -0.332 OA
ATOM     12  C   UNL     1      27.989  37.014   5.767  1.00  0.00     0.145 C 
ATOM     13  C   UNL     1      28.108  38.499   5.739  1.00  0.00     0.142 C 
BRANCH   9  14
ATOM     14  O   UNL     1      27.192  37.193   9.227  1.00  0.00    -0.357 OA
ATOM     15  H   UNL     1      26.465  36.998   9.864  1.00  0.00     0.214 HD
ENDBRANCH   9  14
BRANCH   9  16
ATOM     16  C   UNL     1      25.237  37.067   8.024  1.00  0.00     0.364 C 
ATOM     17  O   UNL     1      24.789  36.282   8.928  1.00  0.00    -0.246 OA
BRANCH  16  18
ATOM     18  O   UNL     1      24.276  37.611   7.185  1.00  0.00    -0.477 OA
ATOM     19  H   UNL     1      24.537  37.750   6.203  1.00  0.00     0.296 HD
ENDBRANCH  16  18
ENDBRANCH   9  16
BRANCH  12  20
ATOM     20  O   UNL     1      29.275  36.476   5.662  1.00  0.00    -0.391 OA
ATOM     21  H   UNL     1      29.232  35.488   5.474  1.00  0.00     0.211 HD
ENDBRANCH  12  20
BRANCH  13  22
ATOM     22  N   UNL     1      27.083  39.161   4.966  1.00  0.00    -0.348 N 
ATOM     23  C   UNL     1      27.324  40.294   4.183  1.00  0.00     0.217 C 
ATOM     24  H   UNL     1      26.128  38.759   5.011  1.00  0.00     0.163 HD
ATOM     25  C   UNL     1      26.290  40.993   3.378  1.00  0.00     0.114 C 
ATOM     26  O   UNL     1      28.488  40.738   4.168  1.00  0.00    -0.275 OA
ENDBRANCH  13  22
ENDBRANCH   7   8
BRANCH   7  27
ATOM     27  O   UNL     1      28.901  39.532   9.207  1.00  0.00    -0.388 OA
ATOM     28  H   UNL     1      28.886  38.853   9.949  1.00  0.00     0.211 HD
ENDBRANCH   7  27
ENDBRANCH   6   7
BRANCH   6  29
ATOM     29  O   UNL     1      31.546  38.354   8.011  1.00  0.00    -0.388 OA
ATOM     30  H   UNL     1      31.983  38.629   8.831  1.00  0.00     0.211 HD
ENDBRANCH   6  29
ENDBRANCH   5   6
ENDBRANCH   1   5
BRANCH   2  31
ATOM     31  O   UNL     1      31.780  42.169  11.017  1.00  0.00    -0.443 OA
BRANCH  31  32
ATOM     32  C   UNL     1      31.507  41.551  12.275  1.00  0.00     0.294 C 
BRANCH  32  33
ATOM     33  C   UNL     1      31.061  40.168  12.012  1.00  0.00     0.120 A 
ATOM     34  C   UNL     1      29.989  39.532  12.615  1.00  0.00     0.138 A 
ATOM     35  N   UNL     1      31.596  39.277  11.166  1.00  0.00    -0.132 NA
ATOM     36  N   UNL     1      29.919  38.290  12.113  1.00  0.00    -0.249 N 
ATOM     37  N   UNL     1      30.896  38.162  11.245  1.00  0.00    -0.067 NA
BRANCH  36  38
ATOM     38  C   UNL     1      28.931  37.304  12.488  1.00  0.00     0.187 C 
BRANCH  38  39
ATOM     39  C   UNL     1      29.433  36.563  13.704  1.00  0.00     0.256 C 
BRANCH  39  40
ATOM     40  O   UNL     1      29.959  35.325  13.320  1.00  0.00    -0.464 OA
BRANCH  40  41
ATOM     41  C   UNL     1      31.284  35.035  13.458  1.00  0.00     0.302 C 
ATOM     42  O   UNL     1      32.098  35.266  12.545  1.00  0.00    -0.253 OA
ATOM     43  C   UNL     1      31.801  34.425  14.732  1.00  0.00     0.139 C 
ENDBRANCH  40  41
ENDBRANCH  39  40
ENDBRANCH  38  39
ENDBRANCH  36  38
ENDBRANCH  32  33
ENDBRANCH  31  32
ENDBRANCH   2  31
TORSDOF 18
BEGIN_RES LYS A 131
REMARK  4 active torsions:
REMARK  status: ('A' for Active; 'I' for Inactive)
REMARK    1  A    between atoms: CA   and  CB  
REMARK    2  A    between atoms: CB   and  CG  
REMARK    3  A    between atoms: CG   and  CD  
REMARK    4  A    between atoms: CD   and  CE  
ROOT
ATOM      1  CA  LYS A 131      29.867  25.555  16.977  1.00 20.52     0.186 C 
ENDROOT
BRANCH   1   2
ATOM      2  CB  LYS A 131      28.345  25.722  17.026  1.00 20.94     0.034 C 
BRANCH   2   3
ATOM      3  CG  LYS A 131      27.601  24.405  16.866  1.00 22.96     0.005 C 
BRANCH   3   4
ATOM      4  CD  LYS A 131      26.730  24.099  18.053  1.00 24.33     0.041 C 
BRANCH   4   5
ATOM      5  CE  LYS A 131      25.729  25.233  18.256  1.00 26.91     0.338 C 
ATOM      6  NZ  LYS A 131      24.608  25.113  17.294  1.00 27.40     0.618 N 
ENDBRANCH   4   5
ENDBRANCH   3   4
ENDBRANCH   2   3
ENDBRANCH   1   2
END_RES LYS A 131
BEGIN_RES LYS A 135
REMARK  4 active torsions:
REMARK  status: ('A' for Active; 'I' for Inactive)
REMARK    5  A    between atoms: CA   and  CB  
REMARK    6  A    between atoms: CB   and  CG  
REMARK    7  A    between atoms: CG   and  CD  
REMARK    8  A    between atoms: CD   and  CE  
ROOT
ATOM      7  CA  LYS A 135      33.193  34.663   9.290  1.00 25.02     0.186 C 
ENDROOT
BRANCH   7   8
ATOM      8  CB  LYS A 135      32.060  35.360  10.034  1.00 26.63     0.034 C 
BRANCH   8   9
ATOM      9  CG  LYS A 135      30.775  35.427   9.249  1.00 29.45     0.005 C 
BRANCH   9  10
ATOM     10  CD  LYS A 135      30.018  34.111   9.345  1.00 32.00     0.041 C 
BRANCH  10  11
ATOM     11  CE  LYS A 135      28.755  34.283  10.166  1.00 34.25     0.338 C 
ATOM     12  NZ  LYS A 135      27.567  33.754   9.440  1.00 35.99     0.618 N 
ENDBRANCH  10  11
ENDBRANCH   9  10
ENDBRANCH   8   9
ENDBRANCH   7   8
END_RES LYS A 135
