REMARK VINA RESULT:    -9.224      2.910      5.429
REMARK INTER + INTRA:         -13.567
REMARK INTER:                  -9.782
REMARK INTRA:                  -3.784
REMARK UNBOUND:                 4.555
REMARK SMILES CC(=O)N[C@@H]1[C@@H](O)C[C@](O)(C(=O)O)O[C@H]1C(O)[C@H](O)CNC(=O)OCc1cn(C2CCc3ccccc3NC2=O)nn1
REMARK SMILES IDX 24 1 22 2 21 3 23 5 20 6 18 7 16 8 15 9 9 10 8 11 14 12 6 13
REMARK SMILES IDX 5 14 10 15 11 17 12 18 13 19 7 21 4 23 2 24 1 26 3 27 17 28
REMARK SMILES IDX 19 30 25 32 26 33 27 34 42 35 28 36 41 37 29 38 39 40 38 41
REMARK SMILES IDX 40 42 37 44 32 45 36 46 33 47 35 48 34 49 31 50 30 51
REMARK H PARENT 21 4 10 16 13 20 7 22 4 25 17 29 19 31 38 43
REMARK Flexibility Score: 80.00
ROOT
ATOM      1  O   UNL     1      26.170  34.080  15.453  1.00  0.00    -0.443 OA
ENDROOT
BRANCH   1   2
ATOM      2  C   UNL     1      26.757  32.900  15.838  1.00  0.00     0.407 C 
ATOM      3  N   UNL     1      28.092  32.588  15.414  1.00  0.00    -0.319 N 
ATOM      4  H   UNL     1      28.563  33.305  14.814  1.00  0.00     0.167 HD
ATOM      5  O   UNL     1      26.164  32.060  16.561  1.00  0.00    -0.225 OA
BRANCH   3   6
ATOM      6  C   UNL     1      28.749  31.352  15.797  1.00  0.00     0.154 C 
BRANCH   6   7
ATOM      7  C   UNL     1      29.880  31.687  16.738  1.00  0.00     0.165 C 
BRANCH   7   8
ATOM      8  C   UNL     1      31.128  32.137  16.008  1.00  0.00     0.176 C 
BRANCH   8   9
ATOM      9  C   UNL     1      31.524  33.555  16.447  1.00  0.00     0.178 C 
ATOM     10  C   UNL     1      31.008  34.937  18.271  1.00  0.00     0.269 C 
ATOM     11  C   UNL     1      31.134  36.077  17.309  1.00  0.00     0.112 C 
ATOM     12  O   UNL     1      31.176  33.690  17.735  1.00  0.00    -0.332 OA
ATOM     13  C   UNL     1      30.284  35.710  16.104  1.00  0.00     0.145 C 
ATOM     14  C   UNL     1      30.905  34.494  15.465  1.00  0.00     0.142 C 
BRANCH  10  15
ATOM     15  O   UNL     1      29.701  34.956  18.799  1.00  0.00    -0.357 OA
ATOM     16  H   UNL     1      29.161  35.453  18.132  1.00  0.00     0.214 HD
ENDBRANCH  10  15
BRANCH  10  17
ATOM     17  C   UNL     1      31.937  35.064  19.422  1.00  0.00     0.364 C 
ATOM     18  O   UNL     1      32.936  35.808  19.324  1.00  0.00    -0.246 OA
BRANCH  17  19
ATOM     19  O   UNL     1      31.735  34.381  20.619  1.00  0.00    -0.477 OA
ATOM     20  H   UNL     1      30.762  34.112  20.828  1.00  0.00     0.296 HD
ENDBRANCH  17  19
ENDBRANCH  10  17
BRANCH  13  21
ATOM     21  O   UNL     1      29.022  35.370  16.580  1.00  0.00    -0.391 OA
ATOM     22  H   UNL     1      29.047  34.416  16.835  1.00  0.00     0.211 HD
ENDBRANCH  13  21
BRANCH  14  23
ATOM     23  N   UNL     1      31.956  34.973  14.584  1.00  0.00    -0.348 N 
ATOM     24  C   UNL     1      31.792  35.131  13.182  1.00  0.00     0.217 C 
ATOM     25  H   UNL     1      32.902  35.220  15.007  1.00  0.00     0.163 HD
ATOM     26  C   UNL     1      32.940  35.627  12.387  1.00  0.00     0.114 C 
ATOM     27  O   UNL     1      30.678  34.842  12.672  1.00  0.00    -0.275 OA
ENDBRANCH  14  23
ENDBRANCH   8   9
BRANCH   8  28
ATOM     28  O   UNL     1      30.794  32.187  14.651  1.00  0.00    -0.388 OA
ATOM     29  H   UNL     1      31.125  31.417  14.140  1.00  0.00     0.211 HD
ENDBRANCH   8  28
ENDBRANCH   7   8
BRANCH   7  30
ATOM     30  O   UNL     1      30.163  30.623  17.587  1.00  0.00    -0.388 OA
ATOM     31  H   UNL     1      31.122  30.514  17.752  1.00  0.00     0.211 HD
ENDBRANCH   7  30
ENDBRANCH   6   7
ENDBRANCH   3   6
ENDBRANCH   1   2
BRANCH   1  32
ATOM     32  C   UNL     1      25.047  34.107  14.587  1.00  0.00     0.294 C 
BRANCH  32  33
ATOM     33  C   UNL     1      25.309  34.949  13.393  1.00  0.00     0.120 A 
ATOM     34  C   UNL     1      24.441  35.067  12.302  1.00  0.00     0.139 A 
ATOM     35  N   UNL     1      26.358  35.735  13.090  1.00  0.00    -0.132 NA
ATOM     36  N   UNL     1      24.986  35.900  11.401  1.00  0.00    -0.240 N 
ATOM     37  N   UNL     1      26.137  36.282  11.908  1.00  0.00    -0.066 NA
BRANCH  36  38
ATOM     38  C   UNL     1      24.423  36.288  10.126  1.00  0.00     0.198 CG0
ATOM     39  G   UNL     1      24.711  35.219   9.123  1.00  0.00     0.000 G0
BRANCH  38  40
ATOM     40  C   UNL     1      24.920  37.626   9.699  1.00  0.00     0.249 C 
ATOM     41  N   UNL     1      26.018  38.021   8.898  1.00  0.00    -0.324 N 
ATOM     42  O   UNL     1      24.212  38.561  10.149  1.00  0.00    -0.272 OA
ATOM     43  H   UNL     1      26.336  39.013   8.932  1.00  0.00     0.170 HD
BRANCH  41  44
ATOM     44  C   UNL     1      26.786  37.196   8.003  1.00  0.00     0.044 A 
ATOM     45  C   UNL     1      26.865  35.815   8.002  1.00  0.00    -0.024 A 
ATOM     46  C   UNL     1      27.472  37.972   7.090  1.00  0.00     0.026 A 
ATOM     47  C   UNL     1      27.650  35.214   7.067  1.00  0.00     0.006 A 
ATOM     48  C   UNL     1      28.265  37.360   6.144  1.00  0.00     0.002 A 
ATOM     49  C   UNL     1      28.344  35.986   6.144  1.00  0.00     0.000 A 
BRANCH  45  50
ATOM     50  C   UNL     1      26.173  34.883   8.932  1.00  0.00     0.040 C 
BRANCH  50  51
ATOM     51  C   UNL     1      24.699  35.217   9.092  1.00  0.00     0.042 CG0
ATOM     52  G   UNL     1      24.465  36.277  10.119  1.00  0.00     0.000 G0
ENDBRANCH  50  51
ENDBRANCH  45  50
ENDBRANCH  41  44
ENDBRANCH  38  40
ENDBRANCH  36  38
ENDBRANCH  32  33
ENDBRANCH   1  32
TORSDOF 15
BEGIN_RES LYS A 131
REMARK  4 active torsions:
REMARK  status: ('A' for Active; 'I' for Inactive)
REMARK    1  A    between atoms: CA   and  CB  
REMARK    2  A    between atoms: CB   and  CG  
REMARK    3  A    between atoms: CG   and  CD  
REMARK    4  A    between atoms: CD   and  CE  
ROOT
ATOM      1  CA  LYS A 131      29.867  25.555  16.977  1.00 20.52     0.186 C 
ENDROOT
BRANCH   1   2
ATOM      2  CB  LYS A 131      28.345  25.722  17.026  1.00 20.94     0.034 C 
BRANCH   2   3
ATOM      3  CG  LYS A 131      27.625  24.452  17.454  1.00 22.96     0.005 C 
BRANCH   3   4
ATOM      4  CD  LYS A 131      26.158  24.685  17.688  1.00 24.33     0.041 C 
BRANCH   4   5
ATOM      5  CE  LYS A 131      25.542  23.446  18.330  1.00 26.91     0.338 C 
ATOM      6  NZ  LYS A 131      24.776  22.669  17.327  1.00 27.40     0.618 N 
ENDBRANCH   4   5
ENDBRANCH   3   4
ENDBRANCH   2   3
ENDBRANCH   1   2
END_RES LYS A 131
BEGIN_RES LYS A 135
REMARK  4 active torsions:
REMARK  status: ('A' for Active; 'I' for Inactive)
REMARK    5  A    between atoms: CA   and  CB  
REMARK    6  A    between atoms: CB   and  CG  
REMARK    7  A    between atoms: CG   and  CD  
REMARK    8  A    between atoms: CD   and  CE  
ROOT
ATOM      7  CA  LYS A 135      33.193  34.663   9.290  1.00 25.02     0.186 C 
ENDROOT
BRANCH   7   8
ATOM      8  CB  LYS A 135      32.060  35.360  10.034  1.00 26.63     0.034 C 
BRANCH   8   9
ATOM      9  CG  LYS A 135      30.788  35.466   9.232  1.00 29.45     0.005 C 
BRANCH   9  10
ATOM     10  CD  LYS A 135      30.200  36.864   9.342  1.00 32.00     0.041 C 
BRANCH  10  11
ATOM     11  CE  LYS A 135      31.163  37.793  10.058  1.00 34.25     0.338 C 
ATOM     12  NZ  LYS A 135      30.542  38.370  11.282  1.00 35.99     0.618 N 
ENDBRANCH  10  11
ENDBRANCH   9  10
ENDBRANCH   8   9
ENDBRANCH   7   8
END_RES LYS A 135
