REMARK VINA RESULT:    -4.160      8.928     16.570
REMARK INTER + INTRA:         -13.709
REMARK INTER:                  -6.213
REMARK INTRA:                  -7.496
REMARK UNBOUND:                -6.145
REMARK SMILES CC(=O)N[C@@H]1[C@@H](O)C[C@](O)(C(=O)O)O[C@H]1C(O)[C@H](O)CNC(=O)OCc1cn(C(C)(C)CO)nn1
REMARK SMILES IDX 21 1 22 2 23 3 20 5 18 6 16 7 15 8 9 9 8 10 14 11 6 12 5 13
REMARK SMILES IDX 10 14 11 16 12 17 13 18 7 20 4 22 2 23 1 25 3 26 17 27 19 29
REMARK SMILES IDX 24 31 25 32 26 33 27 34 35 35 28 36 34 37 29 38 30 39 31 40
REMARK SMILES IDX 32 41 33 42
REMARK H PARENT 21 4 10 15 13 19 7 21 4 24 17 28 19 30 33 43
REMARK Flexibility Score: inf
ROOT
ATOM      1  N   UNL     1      29.295  30.058  18.352  1.00  0.00    -0.319 N 
ATOM      2  C   UNL     1      28.086  30.616  17.825  1.00  0.00     0.407 C 
ATOM      3  O   UNL     1      27.505  31.601  18.396  1.00  0.00    -0.225 OA
ATOM      4  H   UNL     1      29.732  29.268  17.843  1.00  0.00     0.167 HD
ENDROOT
BRANCH   1   5
ATOM      5  C   UNL     1      29.874  30.618  19.555  1.00  0.00     0.154 C 
BRANCH   5   6
ATOM      6  C   UNL     1      29.745  29.732  20.730  1.00  0.00     0.165 C 
BRANCH   6   7
ATOM      7  C   UNL     1      30.400  28.403  20.685  1.00  0.00     0.176 C 
BRANCH   7   8
ATOM      8  C   UNL     1      31.125  28.097  21.972  1.00  0.00     0.178 C 
ATOM      9  C   UNL     1      29.412  27.253  23.369  1.00  0.00     0.269 C 
ATOM     10  C   UNL     1      29.525  28.517  24.241  1.00  0.00     0.112 C 
ATOM     11  O   UNL     1      30.521  27.037  22.616  1.00  0.00    -0.332 OA
ATOM     12  C   UNL     1      30.981  28.836  24.289  1.00  0.00     0.145 C 
ATOM     13  C   UNL     1      31.374  29.284  22.852  1.00  0.00     0.142 C 
BRANCH   9  14
ATOM     14  O   UNL     1      28.211  27.291  22.691  1.00  0.00    -0.357 OA
ATOM     15  H   UNL     1      28.306  26.855  21.812  1.00  0.00     0.214 HD
ENDBRANCH   9  14
BRANCH   9  16
ATOM     16  C   UNL     1      29.336  26.081  24.327  1.00  0.00     0.364 C 
ATOM     17  O   UNL     1      29.030  26.254  25.530  1.00  0.00    -0.246 OA
BRANCH  16  18
ATOM     18  O   UNL     1      29.612  24.824  23.834  1.00  0.00    -0.477 OA
ATOM     19  H   UNL     1      29.092  24.433  23.056  1.00  0.00     0.296 HD
ENDBRANCH  16  18
ENDBRANCH   9  16
BRANCH  12  20
ATOM     20  O   UNL     1      31.306  29.827  25.195  1.00  0.00    -0.391 OA
ATOM     21  H   UNL     1      31.386  29.391  26.083  1.00  0.00     0.211 HD
ENDBRANCH  12  20
BRANCH  13  22
ATOM     22  N   UNL     1      32.804  29.590  23.014  1.00  0.00    -0.348 N 
ATOM     23  C   UNL     1      33.454  30.618  22.323  1.00  0.00     0.217 C 
ATOM     24  H   UNL     1      33.335  28.997  23.684  1.00  0.00     0.163 HD
ATOM     25  C   UNL     1      34.897  30.941  22.467  1.00  0.00     0.114 C 
ATOM     26  O   UNL     1      32.781  31.323  21.520  1.00  0.00    -0.275 OA
ENDBRANCH  13  22
ENDBRANCH   7   8
BRANCH   7  27
ATOM     27  O   UNL     1      29.748  27.373  20.092  1.00  0.00    -0.388 OA
ATOM     28  H   UNL     1      30.002  27.204  19.148  1.00  0.00     0.211 HD
ENDBRANCH   7  27
ENDBRANCH   6   7
BRANCH   6  29
ATOM     29  O   UNL     1      28.375  29.538  21.020  1.00  0.00    -0.388 OA
ATOM     30  H   UNL     1      27.942  30.420  21.016  1.00  0.00     0.211 HD
ENDBRANCH   6  29
ENDBRANCH   5   6
ENDBRANCH   1   5
BRANCH   2  31
ATOM     31  O   UNL     1      27.560  30.067  16.685  1.00  0.00    -0.443 OA
BRANCH  31  32
ATOM     32  C   UNL     1      26.493  29.164  16.685  1.00  0.00     0.294 C 
BRANCH  32  33
ATOM     33  C   UNL     1      26.425  28.408  17.963  1.00  0.00     0.120 A 
ATOM     34  C   UNL     1      25.302  28.302  18.745  1.00  0.00     0.139 A 
ATOM     35  N   UNL     1      27.383  27.716  18.580  1.00  0.00    -0.132 NA
ATOM     36  N   UNL     1      25.599  27.553  19.812  1.00  0.00    -0.244 N 
ATOM     37  N   UNL     1      26.881  27.208  19.683  1.00  0.00    -0.066 NA
BRANCH  36  38
ATOM     38  C   UNL     1      24.688  27.207  20.873  1.00  0.00     0.082 C 
ATOM     39  C   UNL     1      25.133  25.939  21.571  1.00  0.00     0.039 C 
ATOM     40  C   UNL     1      23.298  27.020  20.278  1.00  0.00     0.039 C 
BRANCH  38  41
ATOM     41  C   UNL     1      24.593  28.348  21.853  1.00  0.00     0.186 C 
BRANCH  41  42
ATOM     42  O   UNL     1      25.872  28.724  22.274  1.00  0.00    -0.394 OA
ATOM     43  H   UNL     1      26.338  27.920  22.618  1.00  0.00     0.210 HD
ENDBRANCH  41  42
ENDBRANCH  38  41
ENDBRANCH  36  38
ENDBRANCH  32  33
ENDBRANCH  31  32
ENDBRANCH   2  31
TORSDOF 17
BEGIN_RES LYS A 131
REMARK  4 active torsions:
REMARK  status: ('A' for Active; 'I' for Inactive)
REMARK    1  A    between atoms: CA   and  CB  
REMARK    2  A    between atoms: CB   and  CG  
REMARK    3  A    between atoms: CG   and  CD  
REMARK    4  A    between atoms: CD   and  CE  
ROOT
ATOM      1  CA  LYS A 131      29.867  25.555  16.977  1.00 20.52     0.186 C 
ENDROOT
BRANCH   1   2
ATOM      2  CB  LYS A 131      28.345  25.722  17.026  1.00 20.94     0.034 C 
BRANCH   2   3
ATOM      3  CG  LYS A 131      27.602  24.399  16.925  1.00 22.96     0.005 C 
BRANCH   3   4
ATOM      4  CD  LYS A 131      26.146  24.539  17.273  1.00 24.33     0.041 C 
BRANCH   4   5
ATOM      5  CE  LYS A 131      25.601  23.191  17.734  1.00 26.91     0.338 C 
ATOM      6  NZ  LYS A 131      25.482  23.156  19.211  1.00 27.40     0.618 N 
ENDBRANCH   4   5
ENDBRANCH   3   4
ENDBRANCH   2   3
ENDBRANCH   1   2
END_RES LYS A 131
BEGIN_RES LYS A 135
REMARK  4 active torsions:
REMARK  status: ('A' for Active; 'I' for Inactive)
REMARK    5  A    between atoms: CA   and  CB  
REMARK    6  A    between atoms: CB   and  CG  
REMARK    7  A    between atoms: CG   and  CD  
REMARK    8  A    between atoms: CD   and  CE  
ROOT
ATOM      7  CA  LYS A 135      33.193  34.663   9.290  1.00 25.02     0.186 C 
ENDROOT
BRANCH   7   8
ATOM      8  CB  LYS A 135      32.060  35.360  10.034  1.00 26.63     0.034 C 
BRANCH   8   9
ATOM      9  CG  LYS A 135      30.706  34.752   9.775  1.00 29.45     0.005 C 
BRANCH   9  10
ATOM     10  CD  LYS A 135      30.495  34.524   8.286  1.00 32.00     0.041 C 
BRANCH  10  11
ATOM     11  CE  LYS A 135      29.059  34.821   7.899  1.00 34.25     0.338 C 
ATOM     12  NZ  LYS A 135      28.106  34.212   8.868  1.00 35.99     0.618 N 
ENDBRANCH  10  11
ENDBRANCH   9  10
ENDBRANCH   8   9
ENDBRANCH   7   8
END_RES LYS A 135
