REMARK VINA RESULT:    -4.713      0.000      0.000
REMARK INTER + INTRA:         -15.165
REMARK INTER:                  -8.917
REMARK INTRA:                  -6.247
REMARK UNBOUND:                -7.007
REMARK SMILES CC(=O)N[C@@H]1[C@@H](O)C[C@](O)(C(=O)O)O[C@H]1C(O)[C@H](O)CNC(=O)OCc1cn(-c2ccc(Cl)cc2)nn1
REMARK SMILES IDX 20 1 18 2 16 3 15 4 9 5 8 6 14 7 6 8 5 9 10 10 11 12 12 13
REMARK SMILES IDX 13 14 7 16 4 18 2 19 1 21 3 22 17 23 19 25 21 27 22 28 23 30
REMARK SMILES IDX 24 31 25 32 26 33 27 34 37 35 28 36 36 37 29 38 30 39 35 40
REMARK SMILES IDX 31 41 34 42 32 43 33 44
REMARK H PARENT 10 11 13 15 7 17 4 20 17 24 19 26 21 29
REMARK Flexibility Score: inf
ROOT
ATOM      1  C   UNL     1      30.271  27.242  21.047  1.00  0.00     0.154 C 
ENDROOT
BRANCH   1   2
ATOM      2  C   UNL     1      31.738  27.484  20.880  1.00  0.00     0.165 C 
BRANCH   2   3
ATOM      3  C   UNL     1      31.985  28.995  21.019  1.00  0.00     0.176 C 
BRANCH   3   4
ATOM      4  C   UNL     1      33.155  29.274  21.959  1.00  0.00     0.178 C 
ATOM      5  C   UNL     1      32.795  28.469  24.134  1.00  0.00     0.269 C 
ATOM      6  C   UNL     1      33.524  29.593  24.838  1.00  0.00     0.112 C 
ATOM      7  O   UNL     1      33.182  28.230  22.861  1.00  0.00    -0.332 OA
ATOM      8  C   UNL     1      34.003  30.569  23.824  1.00  0.00     0.145 C 
ATOM      9  C   UNL     1      33.036  30.567  22.656  1.00  0.00     0.142 C 
BRANCH   5  10
ATOM     10  O   UNL     1      31.435  28.730  24.289  1.00  0.00    -0.357 OA
ATOM     11  H   UNL     1      31.132  29.129  23.435  1.00  0.00     0.214 HD
ENDBRANCH   5  10
BRANCH   5  12
ATOM     12  C   UNL     1      33.091  27.245  24.923  1.00  0.00     0.364 C 
ATOM     13  O   UNL     1      34.229  27.136  25.435  1.00  0.00    -0.246 OA
BRANCH  12  14
ATOM     14  O   UNL     1      32.167  26.253  25.101  1.00  0.00    -0.477 OA
ATOM     15  H   UNL     1      31.650  25.894  24.294  1.00  0.00     0.296 HD
ENDBRANCH  12  14
ENDBRANCH   5  12
BRANCH   8  16
ATOM     16  O   UNL     1      34.205  31.845  24.333  1.00  0.00    -0.391 OA
ATOM     17  H   UNL     1      33.720  32.512  23.806  1.00  0.00     0.211 HD
ENDBRANCH   8  16
BRANCH   9  18
ATOM     18  N   UNL     1      33.269  31.752  21.905  1.00  0.00    -0.348 N 
ATOM     19  C   UNL     1      32.277  32.733  21.670  1.00  0.00     0.217 C 
ATOM     20  H   UNL     1      34.245  31.864  21.521  1.00  0.00     0.163 HD
ATOM     21  C   UNL     1      32.556  33.953  20.885  1.00  0.00     0.114 C 
ATOM     22  O   UNL     1      31.153  32.477  22.183  1.00  0.00    -0.275 OA
ENDBRANCH   9  18
ENDBRANCH   3   4
BRANCH   3  23
ATOM     23  O   UNL     1      30.829  29.617  21.501  1.00  0.00    -0.388 OA
ATOM     24  H   UNL     1      31.044  30.460  21.991  1.00  0.00     0.211 HD
ENDBRANCH   3  23
ENDBRANCH   2   3
BRANCH   2  25
ATOM     25  O   UNL     1      32.238  27.006  19.690  1.00  0.00    -0.388 OA
ATOM     26  H   UNL     1      32.253  26.040  19.578  1.00  0.00     0.211 HD
ENDBRANCH   2  25
ENDBRANCH   1   2
BRANCH   1  27
ATOM     27  N   UNL     1      29.443  27.580  19.939  1.00  0.00    -0.319 N 
ATOM     28  C   UNL     1      28.026  27.534  19.937  1.00  0.00     0.407 C 
ATOM     29  H   UNL     1      29.899  27.893  19.037  1.00  0.00     0.167 HD
ATOM     30  O   UNL     1      27.381  27.190  20.941  1.00  0.00    -0.225 OA
BRANCH  28  31
ATOM     31  O   UNL     1      27.311  27.884  18.775  1.00  0.00    -0.443 OA
BRANCH  31  32
ATOM     32  C   UNL     1      26.767  29.192  18.624  1.00  0.00     0.294 C 
BRANCH  32  33
ATOM     33  C   UNL     1      27.908  30.138  18.670  1.00  0.00     0.121 A 
ATOM     34  C   UNL     1      28.528  30.702  17.594  1.00  0.00     0.144 A 
ATOM     35  N   UNL     1      28.515  30.593  19.756  1.00  0.00    -0.131 NA
ATOM     36  N   UNL     1      29.509  31.494  18.074  1.00  0.00    -0.220 N 
ATOM     37  N   UNL     1      29.489  31.417  19.392  1.00  0.00    -0.062 NA
BRANCH  36  38
ATOM     38  C   UNL     1      30.380  32.256  17.232  1.00  0.00     0.066 A 
ATOM     39  C   UNL     1      30.644  31.815  15.958  1.00  0.00     0.030 A 
ATOM     40  C   UNL     1      30.920  33.408  17.745  1.00  0.00     0.030 A 
ATOM     41  C   UNL     1      31.491  32.580  15.179  1.00  0.00     0.023 A 
ATOM     42  C   UNL     1      31.762  34.151  16.940  1.00  0.00     0.023 A 
ATOM     43  C   UNL     1      32.057  33.752  15.660  1.00  0.00     0.041 A 
ATOM     44  Cl  UNL     1      33.127  34.733  14.696  1.00  0.00    -0.084 Cl
ENDBRANCH  36  38
ENDBRANCH  32  33
ENDBRANCH  31  32
ENDBRANCH  28  31
ENDBRANCH   1  27
TORSDOF 15
BEGIN_RES LYS A 131
REMARK  4 active torsions:
REMARK  status: ('A' for Active; 'I' for Inactive)
REMARK    1  A    between atoms: CA   and  CB  
REMARK    2  A    between atoms: CB   and  CG  
REMARK    3  A    between atoms: CG   and  CD  
REMARK    4  A    between atoms: CD   and  CE  
ROOT
ATOM      1  CA  LYS A 131      29.867  25.555  16.977  1.00 20.52     0.186 C 
ENDROOT
BRANCH   1   2
ATOM      2  CB  LYS A 131      28.345  25.722  17.026  1.00 20.94     0.034 C 
BRANCH   2   3
ATOM      3  CG  LYS A 131      27.599  24.469  16.593  1.00 22.96     0.005 C 
BRANCH   3   4
ATOM      4  CD  LYS A 131      27.039  23.710  17.763  1.00 24.33     0.041 C 
BRANCH   4   5
ATOM      5  CE  LYS A 131      26.147  24.632  18.588  1.00 26.91     0.338 C 
ATOM      6  NZ  LYS A 131      25.501  23.879  19.690  1.00 27.40     0.618 N 
ENDBRANCH   4   5
ENDBRANCH   3   4
ENDBRANCH   2   3
ENDBRANCH   1   2
END_RES LYS A 131
BEGIN_RES LYS A 135
REMARK  4 active torsions:
REMARK  status: ('A' for Active; 'I' for Inactive)
REMARK    5  A    between atoms: CA   and  CB  
REMARK    6  A    between atoms: CB   and  CG  
REMARK    7  A    between atoms: CG   and  CD  
REMARK    8  A    between atoms: CD   and  CE  
ROOT
ATOM      7  CA  LYS A 135      33.193  34.663   9.290  1.00 25.02     0.186 C 
ENDROOT
BRANCH   7   8
ATOM      8  CB  LYS A 135      32.060  35.360  10.034  1.00 26.63     0.034 C 
BRANCH   8   9
ATOM      9  CG  LYS A 135      30.792  35.476   9.228  1.00 29.45     0.005 C 
BRANCH   9  10
ATOM     10  CD  LYS A 135      30.162  34.108   9.019  1.00 32.00     0.041 C 
BRANCH  10  11
ATOM     11  CE  LYS A 135      28.715  34.113   9.472  1.00 34.25     0.338 C 
ATOM     12  NZ  LYS A 135      27.810  34.554   8.374  1.00 35.99     0.618 N 
ENDBRANCH  10  11
ENDBRANCH   9  10
ENDBRANCH   8   9
ENDBRANCH   7   8
END_RES LYS A 135
