REMARK VINA RESULT:    -5.018      2.773      5.093
REMARK INTER + INTRA:         -15.735
REMARK INTER:                  -9.446
REMARK INTRA:                  -6.289
REMARK UNBOUND:                -6.317
REMARK SMILES CC(=O)N[C@@H]1[C@@H](O)C[C@](O)(C(=O)O)O[C@H]1C(O)[C@H](O)CNC(=O)OCc1cn(-c2cccc(C=CC(=O)O)c2)nn1
REMARK SMILES IDX 21 1 22 2 23 3 20 5 18 6 16 7 15 8 9 9 8 10 14 11 6 12 5 13
REMARK SMILES IDX 10 14 11 16 12 17 13 18 7 20 4 22 2 23 1 25 3 26 17 27 19 29
REMARK SMILES IDX 24 31 25 32 26 33 27 34 41 35 28 36 40 37 29 38 39 39 30 40
REMARK SMILES IDX 33 41 31 42 32 43 34 44 35 45 36 46 37 47 38 48
REMARK H PARENT 21 4 10 15 13 19 7 21 4 24 17 28 19 30 38 49
REMARK Flexibility Score: inf
ROOT
ATOM      1  N   UNL     1      21.045  39.902   7.945  1.00  0.00    -0.319 N 
ATOM      2  C   UNL     1      20.651  39.011   8.970  1.00  0.00     0.407 C 
ATOM      3  O   UNL     1      20.947  39.189  10.170  1.00  0.00    -0.225 OA
ATOM      4  H   UNL     1      20.735  39.630   6.949  1.00  0.00     0.167 HD
ENDROOT
BRANCH   1   5
ATOM      5  C   UNL     1      21.802  41.108   8.114  1.00  0.00     0.154 C 
BRANCH   5   6
ATOM      6  C   UNL     1      23.147  40.996   7.471  1.00  0.00     0.165 C 
BRANCH   6   7
ATOM      7  C   UNL     1      24.249  40.568   8.420  1.00  0.00     0.176 C 
BRANCH   7   8
ATOM      8  C   UNL     1      25.547  40.443   7.709  1.00  0.00     0.178 C 
ATOM      9  C   UNL     1      26.752  39.816   5.842  1.00  0.00     0.269 C 
ATOM     10  C   UNL     1      27.878  40.444   6.616  1.00  0.00     0.112 C 
ATOM     11  O   UNL     1      25.513  40.011   6.422  1.00  0.00    -0.332 OA
ATOM     12  C   UNL     1      27.926  40.106   8.060  1.00  0.00     0.145 C 
ATOM     13  C   UNL     1      26.565  39.639   8.515  1.00  0.00     0.142 C 
BRANCH   9  14
ATOM     14  O   UNL     1      27.042  38.471   5.616  1.00  0.00    -0.357 OA
ATOM     15  H   UNL     1      27.997  38.313   5.450  1.00  0.00     0.214 HD
ENDBRANCH   9  14
BRANCH   9  16
ATOM     16  C   UNL     1      26.716  40.480   4.510  1.00  0.00     0.364 C 
ATOM     17  O   UNL     1      27.801  40.617   3.850  1.00  0.00    -0.246 OA
BRANCH  16  18
ATOM     18  O   UNL     1      25.539  40.960   3.952  1.00  0.00    -0.477 OA
ATOM     19  H   UNL     1      24.880  40.372   3.482  1.00  0.00     0.296 HD
ENDBRANCH  16  18
ENDBRANCH   9  16
BRANCH  12  20
ATOM     20  O   UNL     1      28.922  39.189   8.385  1.00  0.00    -0.391 OA
ATOM     21  H   UNL     1      28.521  38.330   8.597  1.00  0.00     0.211 HD
ENDBRANCH  12  20
BRANCH  13  22
ATOM     22  N   UNL     1      26.377  39.763   9.927  1.00  0.00    -0.348 N 
ATOM     23  C   UNL     1      26.866  38.803  10.851  1.00  0.00     0.217 C 
ATOM     24  H   UNL     1      25.856  40.590  10.345  1.00  0.00     0.163 HD
ATOM     25  C   UNL     1      26.648  38.974  12.300  1.00  0.00     0.114 C 
ATOM     26  O   UNL     1      27.494  37.791  10.453  1.00  0.00    -0.275 OA
ENDBRANCH  13  22
ENDBRANCH   7   8
BRANCH   7  27
ATOM     27  O   UNL     1      23.888  39.460   9.181  1.00  0.00    -0.388 OA
ATOM     28  H   UNL     1      23.491  39.786  10.018  1.00  0.00     0.211 HD
ENDBRANCH   7  27
ENDBRANCH   6   7
BRANCH   6  29
ATOM     29  O   UNL     1      23.531  42.191   6.858  1.00  0.00    -0.388 OA
ATOM     30  H   UNL     1      23.489  42.064   5.870  1.00  0.00     0.211 HD
ENDBRANCH   6  29
ENDBRANCH   5   6
ENDBRANCH   1   5
BRANCH   2  31
ATOM     31  O   UNL     1      19.893  37.858   8.676  1.00  0.00    -0.443 OA
BRANCH  31  32
ATOM     32  C   UNL     1      20.449  36.875   7.862  1.00  0.00     0.294 C 
BRANCH  32  33
ATOM     33  C   UNL     1      21.910  36.719   8.061  1.00  0.00     0.121 A 
ATOM     34  C   UNL     1      22.609  35.970   8.976  1.00  0.00     0.144 A 
ATOM     35  N   UNL     1      22.847  37.335   7.320  1.00  0.00    -0.131 NA
ATOM     36  N   UNL     1      23.940  36.139   8.780  1.00  0.00    -0.220 N 
ATOM     37  N   UNL     1      24.052  36.975   7.764  1.00  0.00    -0.062 NA
BRANCH  36  38
ATOM     38  C   UNL     1      24.972  35.514   9.545  1.00  0.00     0.067 A 
ATOM     39  C   UNL     1      26.123  35.064   8.953  1.00  0.00     0.036 A 
ATOM     40  C   UNL     1      24.824  35.351  10.903  1.00  0.00     0.028 A 
ATOM     41  C   UNL     1      27.155  34.439   9.708  1.00  0.00    -0.023 A 
ATOM     42  C   UNL     1      25.774  34.761  11.682  1.00  0.00     0.003 A 
ATOM     43  C   UNL     1      26.948  34.307  11.055  1.00  0.00     0.008 A 
BRANCH  41  44
ATOM     44  C   UNL     1      28.342  34.032   9.042  1.00  0.00     0.015 C 
ATOM     45  C   UNL     1      29.305  34.548   8.383  1.00  0.00     0.094 C 
BRANCH  45  46
ATOM     46  C   UNL     1      29.679  35.844   7.980  1.00  0.00     0.328 C 
ATOM     47  O   UNL     1      28.871  36.492   7.142  1.00  0.00    -0.247 OA
BRANCH  46  48
ATOM     48  O   UNL     1      30.765  36.628   8.281  1.00  0.00    -0.478 OA
ATOM     49  H   UNL     1      31.265  37.174   7.598  1.00  0.00     0.297 HD
ENDBRANCH  46  48
ENDBRANCH  45  46
ENDBRANCH  41  44
ENDBRANCH  36  38
ENDBRANCH  32  33
ENDBRANCH  31  32
ENDBRANCH   2  31
TORSDOF 18
BEGIN_RES LYS A 131
REMARK  4 active torsions:
REMARK  status: ('A' for Active; 'I' for Inactive)
REMARK    1  A    between atoms: CA   and  CB  
REMARK    2  A    between atoms: CB   and  CG  
REMARK    3  A    between atoms: CG   and  CD  
REMARK    4  A    between atoms: CD   and  CE  
ROOT
ATOM      1  CA  LYS A 131      29.867  25.555  16.977  1.00 20.52     0.186 C 
ENDROOT
BRANCH   1   2
ATOM      2  CB  LYS A 131      28.345  25.722  17.026  1.00 20.94     0.034 C 
BRANCH   2   3
ATOM      3  CG  LYS A 131      27.602  24.400  16.911  1.00 22.96     0.005 C 
BRANCH   3   4
ATOM      4  CD  LYS A 131      26.620  24.203  18.033  1.00 24.33     0.041 C 
BRANCH   4   5
ATOM      5  CE  LYS A 131      26.018  25.549  18.425  1.00 26.91     0.338 C 
ATOM      6  NZ  LYS A 131      24.712  25.748  17.753  1.00 27.40     0.618 N 
ENDBRANCH   4   5
ENDBRANCH   3   4
ENDBRANCH   2   3
ENDBRANCH   1   2
END_RES LYS A 131
BEGIN_RES LYS A 135
REMARK  4 active torsions:
REMARK  status: ('A' for Active; 'I' for Inactive)
REMARK    5  A    between atoms: CA   and  CB  
REMARK    6  A    between atoms: CB   and  CG  
REMARK    7  A    between atoms: CG   and  CD  
REMARK    8  A    between atoms: CD   and  CE  
ROOT
ATOM      7  CA  LYS A 135      33.193  34.663   9.290  1.00 25.02     0.186 C 
ENDROOT
BRANCH   7   8
ATOM      8  CB  LYS A 135      32.060  35.360  10.034  1.00 26.63     0.034 C 
BRANCH   8   9
ATOM      9  CG  LYS A 135      32.169  35.254  11.533  1.00 29.45     0.005 C 
BRANCH   9  10
ATOM     10  CD  LYS A 135      32.251  36.636  12.164  1.00 32.00     0.041 C 
BRANCH  10  11
ATOM     11  CE  LYS A 135      31.367  36.713  13.394  1.00 34.25     0.338 C 
ATOM     12  NZ  LYS A 135      32.160  37.071  14.603  1.00 35.99     0.618 N 
ENDBRANCH  10  11
ENDBRANCH   9  10
ENDBRANCH   8   9
ENDBRANCH   7   8
END_RES LYS A 135
