REMARK VINA RESULT:    -5.132      2.767      7.739
REMARK INTER + INTRA:         -14.167
REMARK INTER:                  -7.389
REMARK INTRA:                  -6.778
REMARK UNBOUND:                -5.134
REMARK SMILES CC(=O)N[C@@H]1[C@@H](O)C[C@](O)(C(=O)O)O[C@H]1C(O)[C@H](O)CNC(=O)OCc1cn(-c2nc(C)nc(N)n2)nn1
REMARK SMILES IDX 21 1 22 2 23 3 20 5 18 6 16 7 15 8 9 9 8 10 14 11 6 12 5 13
REMARK SMILES IDX 10 14 11 16 12 17 13 18 7 20 4 22 2 23 1 25 3 26 17 27 19 29
REMARK SMILES IDX 24 31 25 32 26 33 27 34 38 35 28 36 37 37 29 38 36 39 30 40
REMARK SMILES IDX 34 41 31 42 33 43 32 44 35 45
REMARK H PARENT 21 4 10 15 13 19 7 21 4 24 17 28 19 30 35 46 35 47
REMARK Flexibility Score: inf
ROOT
ATOM      1  N   UNL     1      33.151  35.364  19.519  1.00  0.00    -0.319 N 
ATOM      2  C   UNL     1      34.245  35.668  20.352  1.00  0.00     0.407 C 
ATOM      3  O   UNL     1      34.320  36.694  21.065  1.00  0.00    -0.225 OA
ATOM      4  H   UNL     1      33.119  34.479  18.930  1.00  0.00     0.167 HD
ENDROOT
BRANCH   1   5
ATOM      5  C   UNL     1      32.028  36.274  19.448  1.00  0.00     0.154 C 
BRANCH   5   6
ATOM      6  C   UNL     1      30.765  35.478  19.354  1.00  0.00     0.165 C 
BRANCH   6   7
ATOM      7  C   UNL     1      31.078  34.040  18.993  1.00  0.00     0.176 C 
BRANCH   7   8
ATOM      8  C   UNL     1      30.137  33.625  17.873  1.00  0.00     0.178 C 
ATOM      9  C   UNL     1      29.711  31.309  17.805  1.00  0.00     0.269 C 
ATOM     10  C   UNL     1      30.661  31.128  16.663  1.00  0.00     0.112 C 
ATOM     11  O   UNL     1      29.469  32.537  18.252  1.00  0.00    -0.332 OA
ATOM     12  C   UNL     1      30.522  32.344  15.757  1.00  0.00     0.145 C 
ATOM     13  C   UNL     1      30.986  33.505  16.636  1.00  0.00     0.142 C 
BRANCH   9  14
ATOM     14  O   UNL     1      30.236  30.544  18.874  1.00  0.00    -0.357 OA
ATOM     15  H   UNL     1      29.617  29.825  19.139  1.00  0.00     0.214 HD
ENDBRANCH   9  14
BRANCH   9  16
ATOM     16  C   UNL     1      28.433  30.659  17.420  1.00  0.00     0.364 C 
ATOM     17  O   UNL     1      27.343  31.041  17.916  1.00  0.00    -0.246 OA
BRANCH  16  18
ATOM     18  O   UNL     1      28.381  29.616  16.510  1.00  0.00    -0.477 OA
ATOM     19  H   UNL     1      27.542  29.395  15.970  1.00  0.00     0.296 HD
ENDBRANCH  16  18
ENDBRANCH   9  16
BRANCH  12  20
ATOM     20  O   UNL     1      31.363  32.268  14.664  1.00  0.00    -0.391 OA
ATOM     21  H   UNL     1      31.299  31.337  14.306  1.00  0.00     0.211 HD
ENDBRANCH  12  20
BRANCH  13  22
ATOM     22  N   UNL     1      31.003  34.744  15.890  1.00  0.00    -0.348 N 
ATOM     23  C   UNL     1      32.179  35.532  15.804  1.00  0.00     0.217 C 
ATOM     24  H   UNL     1      30.104  35.013  15.427  1.00  0.00     0.163 HD
ATOM     25  C   UNL     1      32.129  36.789  15.025  1.00  0.00     0.114 C 
ATOM     26  O   UNL     1      33.247  35.199  16.361  1.00  0.00    -0.275 OA
ENDBRANCH  13  22
ENDBRANCH   7   8
BRANCH   7  27
ATOM     27  O   UNL     1      30.819  33.230  20.131  1.00  0.00    -0.388 OA
ATOM     28  H   UNL     1      31.725  32.918  20.414  1.00  0.00     0.211 HD
ENDBRANCH   7  27
ENDBRANCH   6   7
BRANCH   6  29
ATOM     29  O   UNL     1      29.924  36.066  18.399  1.00  0.00    -0.388 OA
ATOM     30  H   UNL     1      29.440  36.823  18.773  1.00  0.00     0.211 HD
ENDBRANCH   6  29
ENDBRANCH   5   6
ENDBRANCH   1   5
BRANCH   2  31
ATOM     31  O   UNL     1      35.325  34.770  20.394  1.00  0.00    -0.443 OA
BRANCH  31  32
ATOM     32  C   UNL     1      35.534  34.058  21.594  1.00  0.00     0.294 C 
BRANCH  32  33
ATOM     33  C   UNL     1      34.322  33.220  21.871  1.00  0.00     0.121 A 
ATOM     34  C   UNL     1      34.205  31.848  21.753  1.00  0.00     0.148 A 
ATOM     35  N   UNL     1      33.102  33.629  22.289  1.00  0.00    -0.131 NA
ATOM     36  N   UNL     1      32.957  31.464  22.091  1.00  0.00    -0.185 N 
ATOM     37  N   UNL     1      32.314  32.565  22.411  1.00  0.00    -0.059 NA
BRANCH  36  38
ATOM     38  C   UNL     1      32.449  30.125  22.098  1.00  0.00     0.257 A 
ATOM     39  N   UNL     1      32.457  29.359  20.992  1.00  0.00    -0.175 NA
ATOM     40  N   UNL     1      31.941  29.585  23.222  1.00  0.00    -0.196 NA
ATOM     41  C   UNL     1      31.990  28.100  20.956  1.00  0.00     0.225 A 
ATOM     42  C   UNL     1      31.454  28.318  23.250  1.00  0.00     0.133 A 
ATOM     43  N   UNL     1      31.489  27.605  22.120  1.00  0.00    -0.198 NA
ATOM     44  C   UNL     1      30.891  27.710  24.485  1.00  0.00     0.090 C 
BRANCH  41  45
ATOM     45  N   UNL     1      31.997  27.294  19.799  1.00  0.00    -0.368 N 
ATOM     46  H   UNL     1      31.620  27.659  18.914  1.00  0.00     0.159 HD
ATOM     47  H   UNL     1      32.379  26.339  19.843  1.00  0.00     0.159 HD
ENDBRANCH  41  45
ENDBRANCH  36  38
ENDBRANCH  32  33
ENDBRANCH  31  32
ENDBRANCH   2  31
TORSDOF 16
BEGIN_RES LYS A 131
REMARK  4 active torsions:
REMARK  status: ('A' for Active; 'I' for Inactive)
REMARK    1  A    between atoms: CA   and  CB  
REMARK    2  A    between atoms: CB   and  CG  
REMARK    3  A    between atoms: CG   and  CD  
REMARK    4  A    between atoms: CD   and  CE  
ROOT
ATOM      1  CA  LYS A 131      29.867  25.555  16.977  1.00 20.52     0.186 C 
ENDROOT
BRANCH   1   2
ATOM      2  CB  LYS A 131      28.345  25.722  17.026  1.00 20.94     0.034 C 
BRANCH   2   3
ATOM      3  CG  LYS A 131      27.599  24.437  16.701  1.00 22.96     0.005 C 
BRANCH   3   4
ATOM      4  CD  LYS A 131      26.965  23.826  17.920  1.00 24.33     0.041 C 
BRANCH   4   5
ATOM      5  CE  LYS A 131      25.610  23.235  17.547  1.00 26.91     0.338 C 
ATOM      6  NZ  LYS A 131      24.741  24.272  16.941  1.00 27.40     0.618 N 
ENDBRANCH   4   5
ENDBRANCH   3   4
ENDBRANCH   2   3
ENDBRANCH   1   2
END_RES LYS A 131
BEGIN_RES LYS A 135
REMARK  4 active torsions:
REMARK  status: ('A' for Active; 'I' for Inactive)
REMARK    5  A    between atoms: CA   and  CB  
REMARK    6  A    between atoms: CB   and  CG  
REMARK    7  A    between atoms: CG   and  CD  
REMARK    8  A    between atoms: CD   and  CE  
ROOT
ATOM      7  CA  LYS A 135      33.193  34.663   9.290  1.00 25.02     0.186 C 
ENDROOT
BRANCH   7   8
ATOM      8  CB  LYS A 135      32.060  35.360  10.034  1.00 26.63     0.034 C 
BRANCH   8   9
ATOM      9  CG  LYS A 135      30.796  35.488   9.224  1.00 29.45     0.005 C 
BRANCH   9  10
ATOM     10  CD  LYS A 135      30.210  34.117   8.922  1.00 32.00     0.041 C 
BRANCH  10  11
ATOM     11  CE  LYS A 135      28.760  34.049   9.362  1.00 34.25     0.338 C 
ATOM     12  NZ  LYS A 135      27.856  34.596   8.312  1.00 35.99     0.618 N 
ENDBRANCH  10  11
ENDBRANCH   9  10
ENDBRANCH   8   9
ENDBRANCH   7   8
END_RES LYS A 135
