REMARK VINA RESULT:    -4.913      4.625      8.181
REMARK INTER + INTRA:         -15.058
REMARK INTER:                 -10.632
REMARK INTRA:                  -4.426
REMARK UNBOUND:                -6.554
REMARK SMILES CC(=O)N[C@@H]1[C@@H](O)C[C@](O)(C(=O)O)O[C@H]1C(O)[C@H](O)CNC(=O)OCc1cn(C23CC4CC(CC(C4)C2)C3)nn1
REMARK SMILES IDX 20 1 18 2 16 3 15 4 9 5 8 6 14 7 6 8 5 9 10 10 11 12 12 13
REMARK SMILES IDX 13 14 7 16 4 18 2 19 1 21 3 22 17 23 19 25 21 27 22 28 23 30
REMARK SMILES IDX 24 31 25 32 26 33 27 34 40 35 28 36 39 37 29 38 38 39 37 40
REMARK SMILES IDX 30 41 33 42 35 43 31 44 32 45 34 46 36 47
REMARK H PARENT 10 11 13 15 7 17 4 20 17 24 19 26 21 29
REMARK Flexibility Score: inf
ROOT
ATOM      1  C   UNL     1      31.890  37.575  15.517  1.00  0.00     0.154 C 
ENDROOT
BRANCH   1   2
ATOM      2  C   UNL     1      32.273  36.342  14.740  1.00  0.00     0.165 C 
BRANCH   2   3
ATOM      3  C   UNL     1      31.104  35.403  14.524  1.00  0.00     0.176 C 
BRANCH   3   4
ATOM      4  C   UNL     1      30.642  34.818  15.864  1.00  0.00     0.178 C 
ATOM      5  C   UNL     1      30.632  32.474  15.886  1.00  0.00     0.269 C 
ATOM      6  C   UNL     1      29.342  32.566  15.112  1.00  0.00     0.112 C 
ATOM      7  O   UNL     1      31.249  33.642  16.170  1.00  0.00    -0.332 OA
ATOM      8  C   UNL     1      28.448  33.572  15.749  1.00  0.00     0.145 C 
ATOM      9  C   UNL     1      29.169  34.862  16.035  1.00  0.00     0.142 C 
BRANCH   5  10
ATOM     10  O   UNL     1      31.503  31.734  15.052  1.00  0.00    -0.357 OA
ATOM     11  H   UNL     1      32.160  32.381  14.683  1.00  0.00     0.214 HD
ENDBRANCH   5  10
BRANCH   5  12
ATOM     12  C   UNL     1      30.365  31.629  17.078  1.00  0.00     0.364 C 
ATOM     13  O   UNL     1      30.624  32.017  18.249  1.00  0.00    -0.246 OA
BRANCH  12  14
ATOM     14  O   UNL     1      29.815  30.376  16.921  1.00  0.00    -0.477 OA
ATOM     15  H   UNL     1      29.157  30.151  16.173  1.00  0.00     0.296 HD
ENDBRANCH  12  14
ENDBRANCH   5  12
BRANCH   8  16
ATOM     16  O   UNL     1      27.345  33.765  14.886  1.00  0.00    -0.391 OA
ATOM     17  H   UNL     1      26.914  34.623  15.083  1.00  0.00     0.211 HD
ENDBRANCH   8  16
BRANCH   9  18
ATOM     18  N   UNL     1      28.873  35.295  17.394  1.00  0.00    -0.348 N 
ATOM     19  C   UNL     1      27.746  36.100  17.707  1.00  0.00     0.217 C 
ATOM     20  H   UNL     1      29.516  35.005  18.187  1.00  0.00     0.163 HD
ATOM     21  C   UNL     1      27.523  36.492  19.106  1.00  0.00     0.114 C 
ATOM     22  O   UNL     1      26.978  36.449  16.760  1.00  0.00    -0.275 OA
ENDBRANCH   9  18
ENDBRANCH   3   4
BRANCH   3  23
ATOM     23  O   UNL     1      30.083  35.959  13.816  1.00  0.00    -0.388 OA
ATOM     24  H   UNL     1      30.055  35.779  12.864  1.00  0.00     0.211 HD
ENDBRANCH   3  23
ENDBRANCH   2   3
BRANCH   2  25
ATOM     25  O   UNL     1      33.320  35.724  15.417  1.00  0.00    -0.388 OA
ATOM     26  H   UNL     1      34.180  36.188  15.160  1.00  0.00     0.211 HD
ENDBRANCH   2  25
ENDBRANCH   1   2
BRANCH   1  27
ATOM     27  N   UNL     1      31.304  38.510  14.572  1.00  0.00    -0.319 N 
ATOM     28  C   UNL     1      30.004  39.085  14.780  1.00  0.00     0.407 C 
ATOM     29  H   UNL     1      31.786  38.816  13.694  1.00  0.00     0.167 HD
ATOM     30  O   UNL     1      29.384  38.750  15.819  1.00  0.00    -0.225 OA
BRANCH  28  31
ATOM     31  O   UNL     1      29.437  39.969  13.895  1.00  0.00    -0.443 OA
BRANCH  31  32
ATOM     32  C   UNL     1      28.114  39.752  13.456  1.00  0.00     0.294 C 
BRANCH  32  33
ATOM     33  C   UNL     1      28.191  39.246  12.049  1.00  0.00     0.120 A 
ATOM     34  C   UNL     1      28.188  37.907  11.706  1.00  0.00     0.138 A 
ATOM     35  N   UNL     1      28.277  39.908  10.898  1.00  0.00    -0.132 NA
ATOM     36  N   UNL     1      28.271  37.821  10.386  1.00  0.00    -0.246 N 
ATOM     37  N   UNL     1      28.324  39.046   9.906  1.00  0.00    -0.066 NA
BRANCH  36  38
ATOM     38  C   UNL     1      28.296  36.563   9.636  1.00  0.00     0.065 C 
ATOM     39  C   UNL     1      26.850  36.253   9.275  1.00  0.00     0.034 C 
ATOM     40  C   UNL     1      28.875  35.458  10.465  1.00  0.00     0.034 C 
ATOM     41  C   UNL     1      29.135  36.738   8.395  1.00  0.00     0.034 C 
ATOM     42  C   UNL     1      26.803  34.969   8.469  1.00  0.00    -0.008 C 
ATOM     43  C   UNL     1      28.772  34.171   9.678  1.00  0.00    -0.008 C 
ATOM     44  C   UNL     1      29.076  35.461   7.583  1.00  0.00    -0.008 C 
ATOM     45  C   UNL     1      27.631  35.156   7.232  1.00  0.00     0.007 C 
ATOM     46  C   UNL     1      27.343  33.863   9.341  1.00  0.00     0.007 C 
ATOM     47  C   UNL     1      29.614  34.337   8.434  1.00  0.00     0.007 C 
ENDBRANCH  36  38
ENDBRANCH  32  33
ENDBRANCH  31  32
ENDBRANCH  28  31
ENDBRANCH   1  27
TORSDOF 15
BEGIN_RES LYS A 131
REMARK  4 active torsions:
REMARK  status: ('A' for Active; 'I' for Inactive)
REMARK    1  A    between atoms: CA   and  CB  
REMARK    2  A    between atoms: CB   and  CG  
REMARK    3  A    between atoms: CG   and  CD  
REMARK    4  A    between atoms: CD   and  CE  
ROOT
ATOM      1  CA  LYS A 131      29.867  25.555  16.977  1.00 20.52     0.186 C 
ENDROOT
BRANCH   1   2
ATOM      2  CB  LYS A 131      28.345  25.722  17.026  1.00 20.94     0.034 C 
BRANCH   2   3
ATOM      3  CG  LYS A 131      27.599  24.479  16.564  1.00 22.96     0.005 C 
BRANCH   3   4
ATOM      4  CD  LYS A 131      27.018  23.707  17.716  1.00 24.33     0.041 C 
BRANCH   4   5
ATOM      5  CE  LYS A 131      25.678  24.316  18.113  1.00 26.91     0.338 C 
ATOM      6  NZ  LYS A 131      24.760  24.355  16.950  1.00 27.40     0.618 N 
ENDBRANCH   4   5
ENDBRANCH   3   4
ENDBRANCH   2   3
ENDBRANCH   1   2
END_RES LYS A 131
BEGIN_RES LYS A 135
REMARK  4 active torsions:
REMARK  status: ('A' for Active; 'I' for Inactive)
REMARK    5  A    between atoms: CA   and  CB  
REMARK    6  A    between atoms: CB   and  CG  
REMARK    7  A    between atoms: CG   and  CD  
REMARK    8  A    between atoms: CD   and  CE  
ROOT
ATOM      7  CA  LYS A 135      33.193  34.663   9.290  1.00 25.02     0.186 C 
ENDROOT
BRANCH   7   8
ATOM      8  CB  LYS A 135      32.060  35.360  10.034  1.00 26.63     0.034 C 
BRANCH   8   9
ATOM      9  CG  LYS A 135      32.532  36.247  11.157  1.00 29.45     0.005 C 
BRANCH   9  10
ATOM     10  CD  LYS A 135      31.710  37.525  11.214  1.00 32.00     0.041 C 
BRANCH  10  11
ATOM     11  CE  LYS A 135      31.929  38.355   9.963  1.00 34.25     0.338 C 
ATOM     12  NZ  LYS A 135      31.789  39.809  10.254  1.00 35.99     0.618 N 
ENDBRANCH  10  11
ENDBRANCH   9  10
ENDBRANCH   8   9
ENDBRANCH   7   8
END_RES LYS A 135
