REMARK VINA RESULT:    -5.341      1.714      2.224
REMARK INTER + INTRA:         -15.448
REMARK INTER:                  -8.886
REMARK INTRA:                  -6.561
REMARK UNBOUND:                -5.735
REMARK SMILES CC(=O)N[C@@H]1[C@@H](O)C[C@](O)(C(=O)O)O[C@H]1C(O)[C@H](O)CNC(=O)OCc1cn(-c2ccc(CO)cn2)nn1
REMARK SMILES IDX 21 1 22 2 23 3 20 5 18 6 16 7 15 8 9 9 8 10 14 11 6 12 5 13
REMARK SMILES IDX 10 14 11 16 12 17 13 18 7 20 4 22 2 23 1 25 3 26 17 27 19 29
REMARK SMILES IDX 24 31 25 32 26 33 27 34 38 35 28 36 37 37 29 38 30 39 36 40
REMARK SMILES IDX 31 41 35 42 32 43 33 44 34 45
REMARK H PARENT 21 4 10 15 13 19 7 21 4 24 17 28 19 30 34 46
REMARK Flexibility Score: inf
ROOT
ATOM      1  N   UNL     1      26.224  30.147  19.233  1.00  0.00    -0.319 N 
ATOM      2  C   UNL     1      24.978  30.603  18.686  1.00  0.00     0.407 C 
ATOM      3  O   UNL     1      23.940  30.172  19.235  1.00  0.00    -0.225 OA
ATOM      4  H   UNL     1      27.063  30.540  18.755  1.00  0.00     0.167 HD
ENDROOT
BRANCH   1   5
ATOM      5  C   UNL     1      26.258  29.253  20.358  1.00  0.00     0.154 C 
BRANCH   5   6
ATOM      6  C   UNL     1      26.681  27.868  19.895  1.00  0.00     0.165 C 
BRANCH   6   7
ATOM      7  C   UNL     1      27.886  27.506  20.714  1.00  0.00     0.176 C 
BRANCH   7   8
ATOM      8  C   UNL     1      28.840  28.614  21.056  1.00  0.00     0.178 C 
ATOM      9  C   UNL     1      30.041  30.172  19.753  1.00  0.00     0.269 C 
ATOM     10  C   UNL     1      31.280  30.036  20.604  1.00  0.00     0.112 C 
ATOM     11  O   UNL     1      29.230  29.093  19.833  1.00  0.00    -0.332 OA
ATOM     12  C   UNL     1      31.291  28.585  21.045  1.00  0.00     0.145 C 
ATOM     13  C   UNL     1      30.016  28.292  21.874  1.00  0.00     0.142 C 
BRANCH   9  14
ATOM     14  O   UNL     1      30.523  30.293  18.412  1.00  0.00    -0.357 OA
ATOM     15  H   UNL     1      29.943  29.760  17.811  1.00  0.00     0.214 HD
ENDBRANCH   9  14
BRANCH   9  16
ATOM     16  C   UNL     1      29.278  31.411  20.011  1.00  0.00     0.364 C 
ATOM     17  O   UNL     1      29.390  31.983  21.112  1.00  0.00    -0.246 OA
BRANCH  16  18
ATOM     18  O   UNL     1      28.445  31.950  19.050  1.00  0.00    -0.477 OA
ATOM     19  H   UNL     1      27.475  32.124  19.285  1.00  0.00     0.296 HD
ENDBRANCH  16  18
ENDBRANCH   9  16
BRANCH  12  20
ATOM     20  O   UNL     1      31.429  27.709  19.997  1.00  0.00    -0.391 OA
ATOM     21  H   UNL     1      30.794  27.962  19.267  1.00  0.00     0.211 HD
ENDBRANCH  12  20
BRANCH  13  22
ATOM     22  N   UNL     1      30.189  29.060  23.064  1.00  0.00    -0.348 N 
ATOM     23  C   UNL     1      30.666  28.498  24.259  1.00  0.00     0.217 C 
ATOM     24  H   UNL     1      29.949  30.067  23.047  1.00  0.00     0.163 HD
ATOM     25  C   UNL     1      30.847  29.297  25.495  1.00  0.00     0.114 C 
ATOM     26  O   UNL     1      30.952  27.285  24.289  1.00  0.00    -0.275 OA
ENDBRANCH  13  22
ENDBRANCH   7   8
BRANCH   7  27
ATOM     27  O   UNL     1      28.638  26.576  19.974  1.00  0.00    -0.388 OA
ATOM     28  H   UNL     1      29.589  26.557  20.269  1.00  0.00     0.211 HD
ENDBRANCH   7  27
ENDBRANCH   6   7
BRANCH   6  29
ATOM     29  O   UNL     1      27.078  28.092  18.548  1.00  0.00    -0.388 OA
ATOM     30  H   UNL     1      27.904  28.602  18.552  1.00  0.00     0.211 HD
ENDBRANCH   6  29
ENDBRANCH   5   6
ENDBRANCH   1   5
BRANCH   2  31
ATOM     31  O   UNL     1      24.895  31.461  17.624  1.00  0.00    -0.443 OA
BRANCH  31  32
ATOM     32  C   UNL     1      25.330  31.163  16.332  1.00  0.00     0.294 C 
BRANCH  32  33
ATOM     33  C   UNL     1      26.806  31.184  16.179  1.00  0.00     0.121 A 
ATOM     34  C   UNL     1      27.525  32.267  15.666  1.00  0.00     0.146 A 
ATOM     35  N   UNL     1      27.731  30.273  16.457  1.00  0.00    -0.131 NA
ATOM     36  N   UNL     1      28.822  31.961  15.659  1.00  0.00    -0.202 N 
ATOM     37  N   UNL     1      28.937  30.747  16.140  1.00  0.00    -0.061 NA
BRANCH  36  38
ATOM     38  C   UNL     1      29.887  32.806  15.198  1.00  0.00     0.155 A 
ATOM     39  C   UNL     1      31.142  32.811  15.772  1.00  0.00     0.049 A 
ATOM     40  N   UNL     1      29.677  33.647  14.173  1.00  0.00    -0.237 NA
ATOM     41  C   UNL     1      32.159  33.623  15.345  1.00  0.00     0.011 A 
ATOM     42  C   UNL     1      30.642  34.460  13.720  1.00  0.00     0.119 A 
ATOM     43  C   UNL     1      31.912  34.477  14.288  1.00  0.00    -0.004 A 
BRANCH  43  44
ATOM     44  C   UNL     1      32.948  35.401  13.744  1.00  0.00     0.193 C 
BRANCH  44  45
ATOM     45  O   UNL     1      33.258  35.015  12.446  1.00  0.00    -0.392 OA
ATOM     46  H   UNL     1      32.752  35.571  11.799  1.00  0.00     0.211 HD
ENDBRANCH  44  45
ENDBRANCH  43  44
ENDBRANCH  36  38
ENDBRANCH  32  33
ENDBRANCH  31  32
ENDBRANCH   2  31
TORSDOF 17
BEGIN_RES LYS A 131
REMARK  4 active torsions:
REMARK  status: ('A' for Active; 'I' for Inactive)
REMARK    1  A    between atoms: CA   and  CB  
REMARK    2  A    between atoms: CB   and  CG  
REMARK    3  A    between atoms: CG   and  CD  
REMARK    4  A    between atoms: CD   and  CE  
ROOT
ATOM      1  CA  LYS A 131      29.867  25.555  16.977  1.00 20.52     0.186 C 
ENDROOT
BRANCH   1   2
ATOM      2  CB  LYS A 131      28.345  25.722  17.026  1.00 20.94     0.034 C 
BRANCH   2   3
ATOM      3  CG  LYS A 131      27.602  24.398  16.930  1.00 22.96     0.005 C 
BRANCH   3   4
ATOM      4  CD  LYS A 131      26.147  24.539  17.283  1.00 24.33     0.041 C 
BRANCH   4   5
ATOM      5  CE  LYS A 131      25.980  24.459  18.797  1.00 26.91     0.338 C 
ATOM      6  NZ  LYS A 131      25.498  23.115  19.195  1.00 27.40     0.618 N 
ENDBRANCH   4   5
ENDBRANCH   3   4
ENDBRANCH   2   3
ENDBRANCH   1   2
END_RES LYS A 131
BEGIN_RES LYS A 135
REMARK  4 active torsions:
REMARK  status: ('A' for Active; 'I' for Inactive)
REMARK    5  A    between atoms: CA   and  CB  
REMARK    6  A    between atoms: CB   and  CG  
REMARK    7  A    between atoms: CG   and  CD  
REMARK    8  A    between atoms: CD   and  CE  
ROOT
ATOM      7  CA  LYS A 135      33.193  34.663   9.290  1.00 25.02     0.186 C 
ENDROOT
BRANCH   7   8
ATOM      8  CB  LYS A 135      32.060  35.360  10.034  1.00 26.63     0.034 C 
BRANCH   8   9
ATOM      9  CG  LYS A 135      30.780  35.440   9.243  1.00 29.45     0.005 C 
BRANCH   9  10
ATOM     10  CD  LYS A 135      30.177  34.057   9.055  1.00 32.00     0.041 C 
BRANCH  10  11
ATOM     11  CE  LYS A 135      28.663  34.124   9.098  1.00 34.25     0.338 C 
ATOM     12  NZ  LYS A 135      28.175  34.330  10.490  1.00 35.99     0.618 N 
ENDBRANCH  10  11
ENDBRANCH   9  10
ENDBRANCH   8   9
ENDBRANCH   7   8
END_RES LYS A 135
