REMARK VINA RESULT:    -4.220      3.243      6.700
REMARK INTER + INTRA:         -14.722
REMARK INTER:                  -9.490
REMARK INTRA:                  -5.233
REMARK UNBOUND:                -5.938
REMARK SMILES CCOC(CCn1cc(COC(=O)NC[C@@H](O)C(O)[C@@H]2O[C@@](O)(C(=O)O)C[C@H](O)[C@H]2NC(C)=O)nn1)OCC
REMARK SMILES IDX 11 1 12 2 14 3 13 5 15 6 16 7 18 8 20 9 22 10 27 11 21 12
REMARK SMILES IDX 28 13 30 14 23 15 24 17 25 18 26 19 29 21 31 23 32 24 33 26
REMARK SMILES IDX 34 27 19 28 17 30 10 32 9 33 8 34 35 35 7 36 36 37 6 38 5 39
REMARK SMILES IDX 4 40 3 41 2 42 1 43 37 44 38 45 39 46
REMARK H PARENT 14 4 23 16 26 20 29 22 31 25 19 29 17 31
REMARK Flexibility Score: inf
ROOT
ATOM      1  O   UNL     1      26.161  35.013  14.861  1.00  0.00    -0.443 OA
ENDROOT
BRANCH   1   2
ATOM      2  C   UNL     1      27.392  34.708  15.459  1.00  0.00     0.407 C 
ATOM      3  N   UNL     1      28.521  34.345  14.694  1.00  0.00    -0.319 N 
ATOM      4  H   UNL     1      28.367  34.333  13.635  1.00  0.00     0.167 HD
ATOM      5  O   UNL     1      27.460  34.768  16.689  1.00  0.00    -0.225 OA
BRANCH   3   6
ATOM      6  C   UNL     1      29.822  33.999  15.169  1.00  0.00     0.154 C 
BRANCH   6   7
ATOM      7  C   UNL     1      30.098  32.532  15.000  1.00  0.00     0.165 C 
BRANCH   7   8
ATOM      8  C   UNL     1      29.859  31.899  16.369  1.00  0.00     0.176 C 
BRANCH   8   9
ATOM      9  C   UNL     1      28.669  30.991  16.365  1.00  0.00     0.178 C 
ATOM     10  C   UNL     1      26.355  31.129  16.294  1.00  0.00     0.269 C 
ATOM     11  C   UNL     1      26.306  29.727  16.805  1.00  0.00     0.112 C 
ATOM     12  O   UNL     1      27.571  31.505  15.742  1.00  0.00    -0.332 OA
ATOM     13  C   UNL     1      27.482  29.318  17.644  1.00  0.00     0.145 C 
ATOM     14  C   UNL     1      28.379  30.528  17.789  1.00  0.00     0.142 C 
BRANCH  10  15
ATOM     15  O   UNL     1      25.933  32.026  17.278  1.00  0.00    -0.357 OA
ATOM     16  H   UNL     1      24.930  32.026  17.253  1.00  0.00     0.214 HD
ENDBRANCH  10  15
BRANCH  10  17
ATOM     17  C   UNL     1      25.364  31.208  15.182  1.00  0.00     0.364 C 
ATOM     18  O   UNL     1      24.988  30.181  14.579  1.00  0.00    -0.246 OA
BRANCH  17  19
ATOM     19  O   UNL     1      24.856  32.470  14.819  1.00  0.00    -0.477 OA
ATOM     20  H   UNL     1      24.740  33.131  15.585  1.00  0.00     0.296 HD
ENDBRANCH  17  19
ENDBRANCH  10  17
BRANCH  13  21
ATOM     21  O   UNL     1      27.122  28.771  18.869  1.00  0.00    -0.391 OA
ATOM     22  H   UNL     1      27.944  28.761  19.423  1.00  0.00     0.211 HD
ENDBRANCH  13  21
BRANCH  14  23
ATOM     23  N   UNL     1      29.646  30.198  18.407  1.00  0.00    -0.348 N 
ATOM     24  C   UNL     1      29.812  30.398  19.804  1.00  0.00     0.217 C 
ATOM     25  H   UNL     1      30.458  29.817  17.891  1.00  0.00     0.163 HD
ATOM     26  C   UNL     1      31.067  30.090  20.518  1.00  0.00     0.114 C 
ATOM     27  O   UNL     1      28.842  30.861  20.465  1.00  0.00    -0.275 OA
ENDBRANCH  14  23
ENDBRANCH   8   9
BRANCH   8  28
ATOM     28  O   UNL     1      29.749  32.912  17.308  1.00  0.00    -0.388 OA
ATOM     29  H   UNL     1      29.554  32.571  18.222  1.00  0.00     0.211 HD
ENDBRANCH   8  28
ENDBRANCH   7   8
BRANCH   7  30
ATOM     30  O   UNL     1      31.414  32.314  14.684  1.00  0.00    -0.388 OA
ATOM     31  H   UNL     1      31.909  31.821  15.387  1.00  0.00     0.211 HD
ENDBRANCH   7  30
ENDBRANCH   6   7
ENDBRANCH   3   6
ENDBRANCH   1   2
BRANCH   1  32
ATOM     32  C   UNL     1      26.057  36.093  13.938  1.00  0.00     0.294 C 
BRANCH  32  33
ATOM     33  C   UNL     1      26.099  35.566  12.563  1.00  0.00     0.120 A 
ATOM     34  C   UNL     1      25.796  36.361  11.453  1.00  0.00     0.138 A 
ATOM     35  N   UNL     1      26.390  34.373  12.064  1.00  0.00    -0.132 NA
ATOM     36  N   UNL     1      25.919  35.609  10.340  1.00  0.00    -0.252 N 
ATOM     37  N   UNL     1      26.277  34.419  10.730  1.00  0.00    -0.067 NA
BRANCH  36  38
ATOM     38  C   UNL     1      25.679  36.099   9.012  1.00  0.00     0.151 C 
BRANCH  38  39
ATOM     39  C   UNL     1      26.767  35.719   8.036  1.00  0.00     0.086 C 
BRANCH  39  40
ATOM     40  C   UNL     1      28.036  36.486   8.243  1.00  0.00     0.251 C 
BRANCH  40  41
ATOM     41  O   UNL     1      28.583  36.769   6.997  1.00  0.00    -0.353 OA
BRANCH  41  42
ATOM     42  C   UNL     1      28.188  38.044   6.573  1.00  0.00     0.160 C 
ATOM     43  C   UNL     1      27.856  38.062   5.104  1.00  0.00     0.035 C 
ENDBRANCH  41  42
ENDBRANCH  40  41
BRANCH  40  44
ATOM     44  O   UNL     1      28.958  35.800   8.990  1.00  0.00    -0.353 OA
BRANCH  44  45
ATOM     45  C   UNL     1      29.222  34.533   8.471  1.00  0.00     0.160 C 
ATOM     46  C   UNL     1      30.729  34.385   8.286  1.00  0.00     0.035 C 
ENDBRANCH  44  45
ENDBRANCH  40  44
ENDBRANCH  39  40
ENDBRANCH  38  39
ENDBRANCH  36  38
ENDBRANCH  32  33
ENDBRANCH   1  32
TORSDOF 21
BEGIN_RES LYS A 131
REMARK  4 active torsions:
REMARK  status: ('A' for Active; 'I' for Inactive)
REMARK    1  A    between atoms: CA   and  CB  
REMARK    2  A    between atoms: CB   and  CG  
REMARK    3  A    between atoms: CG   and  CD  
REMARK    4  A    between atoms: CD   and  CE  
ROOT
ATOM      1  CA  LYS A 131      29.867  25.555  16.977  1.00 20.52     0.186 C 
ENDROOT
BRANCH   1   2
ATOM      2  CB  LYS A 131      28.345  25.722  17.026  1.00 20.94     0.034 C 
BRANCH   2   3
ATOM      3  CG  LYS A 131      27.600  24.407  16.850  1.00 22.96     0.005 C 
BRANCH   3   4
ATOM      4  CD  LYS A 131      26.685  24.115  18.007  1.00 24.33     0.041 C 
BRANCH   4   5
ATOM      5  CE  LYS A 131      26.435  25.398  18.794  1.00 26.91     0.338 C 
ATOM      6  NZ  LYS A 131      25.105  25.354  19.447  1.00 27.40     0.618 N 
ENDBRANCH   4   5
ENDBRANCH   3   4
ENDBRANCH   2   3
ENDBRANCH   1   2
END_RES LYS A 131
BEGIN_RES LYS A 135
REMARK  4 active torsions:
REMARK  status: ('A' for Active; 'I' for Inactive)
REMARK    5  A    between atoms: CA   and  CB  
REMARK    6  A    between atoms: CB   and  CG  
REMARK    7  A    between atoms: CG   and  CD  
REMARK    8  A    between atoms: CD   and  CE  
ROOT
ATOM      7  CA  LYS A 135      33.193  34.663   9.290  1.00 25.02     0.186 C 
ENDROOT
BRANCH   7   8
ATOM      8  CB  LYS A 135      32.060  35.360  10.034  1.00 26.63     0.034 C 
BRANCH   8   9
ATOM      9  CG  LYS A 135      32.524  36.165  11.221  1.00 29.45     0.005 C 
BRANCH   9  10
ATOM     10  CD  LYS A 135      31.881  35.653  12.500  1.00 32.00     0.041 C 
BRANCH  10  11
ATOM     11  CE  LYS A 135      31.872  36.737  13.562  1.00 34.25     0.338 C 
ATOM     12  NZ  LYS A 135      32.597  36.295  14.785  1.00 35.99     0.618 N 
ENDBRANCH  10  11
ENDBRANCH   9  10
ENDBRANCH   8   9
ENDBRANCH   7   8
END_RES LYS A 135
