REMARK VINA RESULT:    -4.028      2.678      4.586
REMARK INTER + INTRA:         -14.323
REMARK INTER:                  -8.385
REMARK INTRA:                  -5.938
REMARK UNBOUND:                -5.938
REMARK SMILES CCOC(CCn1cc(COC(=O)NC[C@@H](O)C(O)[C@@H]2O[C@@](O)(C(=O)O)C[C@H](O)[C@H]2NC(C)=O)nn1)OCC
REMARK SMILES IDX 11 1 12 2 14 3 13 5 15 6 16 7 18 8 20 9 22 10 27 11 21 12
REMARK SMILES IDX 28 13 30 14 23 15 24 17 25 18 26 19 29 21 31 23 32 24 33 26
REMARK SMILES IDX 34 27 19 28 17 30 10 32 9 33 8 34 35 35 7 36 36 37 6 38 5 39
REMARK SMILES IDX 4 40 3 41 2 42 1 43 37 44 38 45 39 46
REMARK H PARENT 14 4 23 16 26 20 29 22 31 25 19 29 17 31
REMARK Flexibility Score: inf
ROOT
ATOM      1  O   UNL     1      29.474  31.651  17.809  1.00  0.00    -0.443 OA
ENDROOT
BRANCH   1   2
ATOM      2  C   UNL     1      29.487  30.983  19.042  1.00  0.00     0.407 C 
ATOM      3  N   UNL     1      30.420  29.963  19.325  1.00  0.00    -0.319 N 
ATOM      4  H   UNL     1      31.115  29.753  18.540  1.00  0.00     0.167 HD
ATOM      5  O   UNL     1      28.647  31.317  19.881  1.00  0.00    -0.225 OA
BRANCH   3   6
ATOM      6  C   UNL     1      30.537  29.196  20.524  1.00  0.00     0.154 C 
BRANCH   6   7
ATOM      7  C   UNL     1      30.097  27.776  20.313  1.00  0.00     0.165 C 
BRANCH   7   8
ATOM      8  C   UNL     1      28.691  27.680  20.900  1.00  0.00     0.176 C 
BRANCH   8   9
ATOM      9  C   UNL     1      27.662  27.420  19.844  1.00  0.00     0.178 C 
ATOM     10  C   UNL     1      26.389  28.599  18.304  1.00  0.00     0.269 C 
ATOM     11  C   UNL     1      25.489  27.410  18.214  1.00  0.00     0.112 C 
ATOM     12  O   UNL     1      27.643  28.341  18.838  1.00  0.00    -0.332 OA
ATOM     13  C   UNL     1      25.436  26.562  19.451  1.00  0.00     0.145 C 
ATOM     14  C   UNL     1      26.298  27.232  20.499  1.00  0.00     0.142 C 
BRANCH  10  15
ATOM     15  O   UNL     1      25.750  29.649  18.968  1.00  0.00    -0.357 OA
ATOM     16  H   UNL     1      24.804  29.666  18.632  1.00  0.00     0.214 HD
ENDBRANCH  10  15
BRANCH  10  17
ATOM     17  C   UNL     1      26.630  29.054  16.905  1.00  0.00     0.364 C 
ATOM     18  O   UNL     1      27.741  28.895  16.357  1.00  0.00    -0.246 OA
BRANCH  17  19
ATOM     19  O   UNL     1      25.577  29.672  16.205  1.00  0.00    -0.477 OA
ATOM     20  H   UNL     1      25.833  30.505  15.677  1.00  0.00     0.296 HD
ENDBRANCH  17  19
ENDBRANCH  10  17
BRANCH  13  21
ATOM     21  O   UNL     1      24.143  26.319  19.899  1.00  0.00    -0.391 OA
ATOM     22  H   UNL     1      24.106  26.644  20.834  1.00  0.00     0.211 HD
ENDBRANCH  13  21
BRANCH  14  23
ATOM     23  N   UNL     1      26.485  26.397  21.667  1.00  0.00    -0.348 N 
ATOM     24  C   UNL     1      25.681  26.618  22.817  1.00  0.00     0.217 C 
ATOM     25  H   UNL     1      27.181  25.634  21.724  1.00  0.00     0.163 HD
ATOM     26  C   UNL     1      25.803  25.816  24.051  1.00  0.00     0.114 C 
ATOM     27  O   UNL     1      24.822  27.541  22.782  1.00  0.00    -0.275 OA
ENDBRANCH  14  23
ENDBRANCH   8   9
BRANCH   8  28
ATOM     28  O   UNL     1      28.434  28.838  21.616  1.00  0.00    -0.388 OA
ATOM     29  H   UNL     1      29.200  29.473  21.611  1.00  0.00     0.211 HD
ENDBRANCH   8  28
ENDBRANCH   7   8
BRANCH   7  30
ATOM     30  O   UNL     1      30.885  26.908  21.024  1.00  0.00    -0.388 OA
ATOM     31  H   UNL     1      30.441  26.550  21.835  1.00  0.00     0.211 HD
ENDBRANCH   7  30
ENDBRANCH   6   7
ENDBRANCH   3   6
ENDBRANCH   1   2
BRANCH   1  32
ATOM     32  C   UNL     1      30.271  31.178  16.727  1.00  0.00     0.294 C 
BRANCH  32  33
ATOM     33  C   UNL     1      30.733  32.324  15.924  1.00  0.00     0.120 A 
ATOM     34  C   UNL     1      30.031  32.775  14.802  1.00  0.00     0.138 A 
ATOM     35  N   UNL     1      31.782  33.129  16.022  1.00  0.00    -0.132 NA
ATOM     36  N   UNL     1      30.691  33.829  14.278  1.00  0.00    -0.252 N 
ATOM     37  N   UNL     1      31.739  34.024  15.027  1.00  0.00    -0.067 NA
BRANCH  36  38
ATOM     38  C   UNL     1      30.259  34.545  13.112  1.00  0.00     0.151 C 
BRANCH  38  39
ATOM     39  C   UNL     1      28.938  35.252  13.307  1.00  0.00     0.086 C 
BRANCH  39  40
ATOM     40  C   UNL     1      28.209  35.496  12.022  1.00  0.00     0.251 C 
BRANCH  40  41
ATOM     41  O   UNL     1      27.885  36.847  11.955  1.00  0.00    -0.353 OA
BRANCH  41  42
ATOM     42  C   UNL     1      27.807  37.260  10.620  1.00  0.00     0.160 C 
ATOM     43  C   UNL     1      28.749  38.401  10.337  1.00  0.00     0.035 C 
ENDBRANCH  41  42
ENDBRANCH  40  41
BRANCH  40  44
ATOM     44  O   UNL     1      27.061  34.756  11.912  1.00  0.00    -0.353 OA
BRANCH  44  45
ATOM     45  C   UNL     1      26.468  34.509  13.150  1.00  0.00     0.160 C 
ATOM     46  C   UNL     1      25.043  35.051  13.127  1.00  0.00     0.035 C 
ENDBRANCH  44  45
ENDBRANCH  40  44
ENDBRANCH  39  40
ENDBRANCH  38  39
ENDBRANCH  36  38
ENDBRANCH  32  33
ENDBRANCH   1  32
TORSDOF 21
BEGIN_RES LYS A 131
REMARK  4 active torsions:
REMARK  status: ('A' for Active; 'I' for Inactive)
REMARK    1  A    between atoms: CA   and  CB  
REMARK    2  A    between atoms: CB   and  CG  
REMARK    3  A    between atoms: CG   and  CD  
REMARK    4  A    between atoms: CD   and  CE  
ROOT
ATOM      1  CA  LYS A 131      29.867  25.555  16.977  1.00 20.52     0.186 C 
ENDROOT
BRANCH   1   2
ATOM      2  CB  LYS A 131      28.345  25.722  17.026  1.00 20.94     0.034 C 
BRANCH   2   3
ATOM      3  CG  LYS A 131      27.599  24.485  16.551  1.00 22.96     0.005 C 
BRANCH   3   4
ATOM      4  CD  LYS A 131      26.975  23.727  17.690  1.00 24.33     0.041 C 
BRANCH   4   5
ATOM      5  CE  LYS A 131      25.480  23.565  17.436  1.00 26.91     0.338 C 
ATOM      6  NZ  LYS A 131      25.073  22.152  17.614  1.00 27.40     0.618 N 
ENDBRANCH   4   5
ENDBRANCH   3   4
ENDBRANCH   2   3
ENDBRANCH   1   2
END_RES LYS A 131
BEGIN_RES LYS A 135
REMARK  4 active torsions:
REMARK  status: ('A' for Active; 'I' for Inactive)
REMARK    5  A    between atoms: CA   and  CB  
REMARK    6  A    between atoms: CB   and  CG  
REMARK    7  A    between atoms: CG   and  CD  
REMARK    8  A    between atoms: CD   and  CE  
ROOT
ATOM      7  CA  LYS A 135      33.193  34.663   9.290  1.00 25.02     0.186 C 
ENDROOT
BRANCH   7   8
ATOM      8  CB  LYS A 135      32.060  35.360  10.034  1.00 26.63     0.034 C 
BRANCH   8   9
ATOM      9  CG  LYS A 135      30.803  35.509   9.215  1.00 29.45     0.005 C 
BRANCH   9  10
ATOM     10  CD  LYS A 135      30.069  34.181   9.113  1.00 32.00     0.041 C 
BRANCH  10  11
ATOM     11  CE  LYS A 135      28.711  34.372   8.465  1.00 34.25     0.338 C 
ATOM     12  NZ  LYS A 135      28.794  35.312   7.314  1.00 35.99     0.618 N 
ENDBRANCH  10  11
ENDBRANCH   9  10
ENDBRANCH   8   9
ENDBRANCH   7   8
END_RES LYS A 135
