REMARK VINA RESULT:    -4.593      1.903      4.172
REMARK INTER + INTRA:         -14.505
REMARK INTER:                  -7.542
REMARK INTRA:                  -6.962
REMARK UNBOUND:                -6.555
REMARK SMILES CC(=O)N[C@@H]1[C@@H](O)C[C@](O)(C(=O)O)O[C@H]1C(O)[C@H](O)CNC(=O)OCc1cn([C@H]2C[C@H]3CC[C@@H](C2)N3C)nn1
REMARK SMILES IDX 20 1 18 2 16 3 15 4 9 5 8 6 14 7 6 8 5 9 10 10 11 12 12 13
REMARK SMILES IDX 13 14 7 16 4 18 2 19 1 21 3 22 17 23 19 25 21 27 22 28 23 30
REMARK SMILES IDX 24 31 25 32 26 33 27 34 39 35 28 36 38 37 29 38 35 39 30 40
REMARK SMILES IDX 34 41 31 42 36 43 33 44 32 45 37 46
REMARK H PARENT 10 11 13 15 7 17 4 20 17 24 19 26 21 29
REMARK Flexibility Score: inf
ROOT
ATOM      1  C   UNL     1      29.689  28.947  21.629  1.00  0.00     0.154 C 
ENDROOT
BRANCH   1   2
ATOM      2  C   UNL     1      29.380  27.891  20.625  1.00  0.00     0.165 C 
BRANCH   2   3
ATOM      3  C   UNL     1      27.929  27.794  20.270  1.00  0.00     0.176 C 
BRANCH   3   4
ATOM      4  C   UNL     1      27.639  28.260  18.862  1.00  0.00     0.178 C 
ATOM      5  C   UNL     1      27.748  30.135  17.514  1.00  0.00     0.269 C 
ATOM      6  C   UNL     1      27.050  29.179  16.584  1.00  0.00     0.112 C 
ATOM      7  O   UNL     1      28.142  29.543  18.704  1.00  0.00    -0.332 OA
ATOM      8  C   UNL     1      25.879  28.483  17.208  1.00  0.00     0.145 C 
ATOM      9  C   UNL     1      26.137  28.345  18.684  1.00  0.00     0.142 C 
BRANCH   5  10
ATOM     10  O   UNL     1      27.001  31.287  17.756  1.00  0.00    -0.357 OA
ATOM     11  H   UNL     1      26.541  31.579  16.935  1.00  0.00     0.214 HD
ENDBRANCH   5  10
BRANCH   5  12
ATOM     12  C   UNL     1      29.000  30.579  16.822  1.00  0.00     0.364 C 
ATOM     13  O   UNL     1      28.973  30.947  15.600  1.00  0.00    -0.246 OA
BRANCH  12  14
ATOM     14  O   UNL     1      30.226  30.618  17.445  1.00  0.00    -0.477 OA
ATOM     15  H   UNL     1      30.432  31.426  18.045  1.00  0.00     0.296 HD
ENDBRANCH  12  14
ENDBRANCH   5  12
BRANCH   8  16
ATOM     16  O   UNL     1      24.665  29.051  16.903  1.00  0.00    -0.391 OA
ATOM     17  H   UNL     1      24.016  28.316  16.746  1.00  0.00     0.211 HD
ENDBRANCH   8  16
BRANCH   9  18
ATOM     18  N   UNL     1      25.448  27.229  19.282  1.00  0.00    -0.348 N 
ATOM     19  C   UNL     1      24.128  27.340  19.814  1.00  0.00     0.217 C 
ATOM     20  H   UNL     1      25.902  26.290  19.344  1.00  0.00     0.163 HD
ATOM     21  C   UNL     1      23.477  26.158  20.414  1.00  0.00     0.114 C 
ATOM     22  O   UNL     1      23.566  28.457  19.749  1.00  0.00    -0.275 OA
ENDBRANCH   9  18
ENDBRANCH   3   4
BRANCH   3  23
ATOM     23  O   UNL     1      27.193  28.592  21.144  1.00  0.00    -0.388 OA
ATOM     24  H   UNL     1      27.451  28.456  22.073  1.00  0.00     0.211 HD
ENDBRANCH   3  23
ENDBRANCH   2   3
BRANCH   2  25
ATOM     25  O   UNL     1      29.801  26.620  21.081  1.00  0.00    -0.388 OA
ATOM     26  H   UNL     1      30.088  26.132  20.258  1.00  0.00     0.211 HD
ENDBRANCH   2  25
ENDBRANCH   1   2
BRANCH   1  27
ATOM     27  N   UNL     1      29.824  30.253  21.030  1.00  0.00    -0.319 N 
ATOM     28  C   UNL     1      31.115  30.771  20.750  1.00  0.00     0.407 C 
ATOM     29  H   UNL     1      29.001  30.855  20.784  1.00  0.00     0.167 HD
ATOM     30  O   UNL     1      32.179  30.141  21.001  1.00  0.00    -0.225 OA
BRANCH  28  31
ATOM     31  O   UNL     1      31.303  32.026  20.171  1.00  0.00    -0.443 OA
BRANCH  31  32
ATOM     32  C   UNL     1      30.439  33.117  20.419  1.00  0.00     0.294 C 
BRANCH  32  33
ATOM     33  C   UNL     1      29.781  33.543  19.155  1.00  0.00     0.120 A 
ATOM     34  C   UNL     1      30.441  33.982  18.026  1.00  0.00     0.138 A 
ATOM     35  N   UNL     1      28.474  33.590  18.842  1.00  0.00    -0.132 NA
ATOM     36  N   UNL     1      29.526  34.285  17.063  1.00  0.00    -0.249 N 
ATOM     37  N   UNL     1      28.351  34.029  17.612  1.00  0.00    -0.067 NA
BRANCH  36  38
ATOM     38  C   UNL     1      29.796  34.784  15.718  1.00  0.00     0.112 C 
ATOM     39  C   UNL     1      30.820  33.908  15.097  1.00  0.00     0.046 C 
ATOM     40  C   UNL     1      30.166  36.220  15.832  1.00  0.00     0.046 C 
ATOM     41  C   UNL     1      31.750  34.577  14.151  1.00  0.00     0.058 C 
ATOM     42  C   UNL     1      31.365  36.616  15.010  1.00  0.00     0.058 C 
ATOM     43  N   UNL     1      31.285  35.887  13.757  1.00  0.00    -0.300 NA
ATOM     44  C   UNL     1      33.030  34.906  14.903  1.00  0.00     0.021 C 
ATOM     45  C   UNL     1      32.601  36.113  15.712  1.00  0.00     0.021 C 
ATOM     46  C   UNL     1      32.155  36.441  12.749  1.00  0.00     0.105 C 
ENDBRANCH  36  38
ENDBRANCH  32  33
ENDBRANCH  31  32
ENDBRANCH  28  31
ENDBRANCH   1  27
TORSDOF 15
BEGIN_RES LYS A 131
REMARK  4 active torsions:
REMARK  status: ('A' for Active; 'I' for Inactive)
REMARK    1  A    between atoms: CA   and  CB  
REMARK    2  A    between atoms: CB   and  CG  
REMARK    3  A    between atoms: CG   and  CD  
REMARK    4  A    between atoms: CD   and  CE  
ROOT
ATOM      1  CA  LYS A 131      29.867  25.555  16.977  1.00 20.52     0.186 C 
ENDROOT
BRANCH   1   2
ATOM      2  CB  LYS A 131      28.345  25.722  17.026  1.00 20.94     0.034 C 
BRANCH   2   3
ATOM      3  CG  LYS A 131      27.599  24.436  16.706  1.00 22.96     0.005 C 
BRANCH   3   4
ATOM      4  CD  LYS A 131      26.589  24.089  17.764  1.00 24.33     0.041 C 
BRANCH   4   5
ATOM      5  CE  LYS A 131      25.183  24.347  17.231  1.00 26.91     0.338 C 
ATOM      6  NZ  LYS A 131      24.384  23.099  17.249  1.00 27.40     0.618 N 
ENDBRANCH   4   5
ENDBRANCH   3   4
ENDBRANCH   2   3
ENDBRANCH   1   2
END_RES LYS A 131
BEGIN_RES LYS A 135
REMARK  4 active torsions:
REMARK  status: ('A' for Active; 'I' for Inactive)
REMARK    5  A    between atoms: CA   and  CB  
REMARK    6  A    between atoms: CB   and  CG  
REMARK    7  A    between atoms: CG   and  CD  
REMARK    8  A    between atoms: CD   and  CE  
ROOT
ATOM      7  CA  LYS A 135      33.193  34.663   9.290  1.00 25.02     0.186 C 
ENDROOT
BRANCH   7   8
ATOM      8  CB  LYS A 135      32.060  35.360  10.034  1.00 26.63     0.034 C 
BRANCH   8   9
ATOM      9  CG  LYS A 135      30.873  35.679   9.162  1.00 29.45     0.005 C 
BRANCH   9  10
ATOM     10  CD  LYS A 135      30.354  34.422   8.481  1.00 32.00     0.041 C 
BRANCH  10  11
ATOM     11  CE  LYS A 135      28.838  34.429   8.434  1.00 34.25     0.338 C 
ATOM     12  NZ  LYS A 135      28.261  33.769   9.637  1.00 35.99     0.618 N 
ENDBRANCH  10  11
ENDBRANCH   9  10
ENDBRANCH   8   9
ENDBRANCH   7   8
END_RES LYS A 135
