REMARK VINA RESULT:    -5.647      2.248      4.822
REMARK INTER + INTRA:         -18.316
REMARK INTER:                 -10.872
REMARK INTRA:                  -7.444
REMARK UNBOUND:                -7.717
REMARK SMILES CC(=O)N[C@@H]1[C@@H](O)C[C@](O)(C(=O)O)O[C@H]1C(O)[C@H](O)CNC(=O)OCc1cn(-c2ccc(-c3c4ccc(=O)cc-4oc4cc(O)ccc34)c(C(=O)[O-])c2)nn1
REMARK SMILES IDX 21 1 22 2 23 3 20 5 18 6 16 7 15 8 9 9 8 10 14 11 6 12 5 13
REMARK SMILES IDX 10 14 11 16 12 17 13 18 7 20 4 22 2 23 1 25 3 26 17 27 19 29
REMARK SMILES IDX 24 31 25 32 26 33 27 34 55 35 28 36 54 37 29 38 53 39 30 40
REMARK SMILES IDX 49 41 31 42 32 43 50 44 51 45 52 46 33 47 48 48 34 49 47 50
REMARK SMILES IDX 42 51 40 52 35 53 46 54 43 55 41 56 39 57 36 58 44 59 37 60
REMARK SMILES IDX 38 61 45 62
REMARK H PARENT 21 4 10 15 13 19 7 21 4 24 17 28 19 30 45 63
REMARK Flexibility Score: inf
ROOT
ATOM      1  N   UNL     1      29.229  31.815  18.283  1.00  0.00    -0.319 N 
ATOM      2  C   UNL     1      29.312  30.657  19.131  1.00  0.00     0.407 C 
ATOM      3  O   UNL     1      30.461  30.336  19.541  1.00  0.00    -0.225 OA
ATOM      4  H   UNL     1      28.310  32.124  17.917  1.00  0.00     0.167 HD
ENDROOT
BRANCH   1   5
ATOM      5  C   UNL     1      30.408  32.565  17.926  1.00  0.00     0.154 C 
BRANCH   5   6
ATOM      6  C   UNL     1      30.620  32.474  16.451  1.00  0.00     0.165 C 
BRANCH   6   7
ATOM      7  C   UNL     1      29.499  33.159  15.669  1.00  0.00     0.176 C 
BRANCH   7   8
ATOM      8  C   UNL     1      30.004  33.615  14.310  1.00  0.00     0.178 C 
ATOM      9  C   UNL     1      31.875  35.000  14.224  1.00  0.00     0.269 C 
ATOM     10  C   UNL     1      31.480  35.551  12.871  1.00  0.00     0.112 C 
ATOM     11  O   UNL     1      31.362  33.738  14.386  1.00  0.00    -0.332 OA
ATOM     12  C   UNL     1      30.005  35.535  12.701  1.00  0.00     0.145 C 
ATOM     13  C   UNL     1      29.273  34.809  13.802  1.00  0.00     0.142 C 
BRANCH   9  14
ATOM     14  O   UNL     1      31.478  35.905  15.175  1.00  0.00    -0.357 OA
ATOM     15  H   UNL     1      30.522  36.089  15.189  1.00  0.00     0.214 HD
ENDBRANCH   9  14
BRANCH   9  16
ATOM     16  C   UNL     1      33.354  34.893  14.228  1.00  0.00     0.364 C 
ATOM     17  O   UNL     1      34.012  35.327  15.206  1.00  0.00    -0.246 OA
BRANCH  16  18
ATOM     18  O   UNL     1      34.073  34.326  13.188  1.00  0.00    -0.477 OA
ATOM     19  H   UNL     1      34.827  34.841  12.710  1.00  0.00     0.296 HD
ENDBRANCH  16  18
ENDBRANCH   9  16
BRANCH  12  20
ATOM     20  O   UNL     1      29.475  36.819  12.607  1.00  0.00    -0.391 OA
ATOM     21  H   UNL     1      29.936  37.478  13.172  1.00  0.00     0.211 HD
ENDBRANCH  12  20
BRANCH  13  22
ATOM     22  N   UNL     1      27.982  34.405  13.227  1.00  0.00    -0.348 N 
ATOM     23  C   UNL     1      26.740  34.699  13.819  1.00  0.00     0.217 C 
ATOM     24  H   UNL     1      28.014  33.872  12.328  1.00  0.00     0.163 HD
ATOM     25  C   UNL     1      25.482  34.257  13.177  1.00  0.00     0.114 C 
ATOM     26  O   UNL     1      26.768  35.354  14.913  1.00  0.00    -0.275 OA
ENDBRANCH  13  22
ENDBRANCH   7   8
BRANCH   7  27
ATOM     27  O   UNL     1      29.104  34.252  16.449  1.00  0.00    -0.388 OA
ATOM     28  H   UNL     1      29.531  34.131  17.339  1.00  0.00     0.211 HD
ENDBRANCH   7  27
ENDBRANCH   6   7
BRANCH   6  29
ATOM     29  O   UNL     1      30.783  31.157  16.028  1.00  0.00    -0.388 OA
ATOM     30  H   UNL     1      29.994  30.815  15.546  1.00  0.00     0.211 HD
ENDBRANCH   6  29
ENDBRANCH   5   6
ENDBRANCH   1   5
BRANCH   2  31
ATOM     31  O   UNL     1      28.228  29.918  19.496  1.00  0.00    -0.443 OA
BRANCH  31  32
ATOM     32  C   UNL     1      27.743  28.868  18.693  1.00  0.00     0.294 C 
BRANCH  32  33
ATOM     33  C   UNL     1      27.232  29.431  17.428  1.00  0.00     0.121 A 
ATOM     34  C   UNL     1      25.898  29.676  17.094  1.00  0.00     0.144 A 
ATOM     35  N   UNL     1      27.938  29.808  16.353  1.00  0.00    -0.131 NA
ATOM     36  N   UNL     1      25.849  30.186  15.850  1.00  0.00    -0.220 N 
ATOM     37  N   UNL     1      27.095  30.253  15.431  1.00  0.00    -0.062 NA
BRANCH  36  38
ATOM     38  C   UNL     1      24.645  30.547  15.193  1.00  0.00     0.067 A 
ATOM     39  C   UNL     1      23.472  30.846  15.819  1.00  0.00     0.039 A 
ATOM     40  C   UNL     1      24.656  30.598  13.797  1.00  0.00     0.029 A 
ATOM     41  C   UNL     1      22.313  31.193  15.132  1.00  0.00     0.007 A 
ATOM     42  C   UNL     1      23.530  30.937  13.099  1.00  0.00     0.012 A 
ATOM     43  C   UNL     1      22.347  31.238  13.773  1.00  0.00    -0.008 A 
BRANCH  41  44
ATOM     44  C   UNL     1      21.073  31.508  15.839  1.00  0.00     0.072 C 
ATOM     45  O   UNL     1      20.232  30.600  16.128  1.00  0.00    -0.545 OA
ATOM     46  O   UNL     1      20.793  32.796  16.206  1.00  0.00    -0.545 OA
ENDBRANCH  41  44
BRANCH  43  47
ATOM     47  C   UNL     1      21.205  31.585  12.942  1.00  0.00     0.004 A 
ATOM     48  C   UNL     1      20.879  32.869  12.565  1.00  0.00     0.026 A 
ATOM     49  C   UNL     1      20.386  30.563  12.491  1.00  0.00     0.026 A 
ATOM     50  C   UNL     1      21.672  33.915  12.994  1.00  0.00     0.016 A 
ATOM     51  C   UNL     1      19.774  33.137  11.765  1.00  0.00     0.139 A 
ATOM     52  C   UNL     1      19.242  30.895  11.656  1.00  0.00     0.139 A 
ATOM     53  C   UNL     1      20.623  29.246  12.811  1.00  0.00     0.016 A 
ATOM     54  C   UNL     1      21.384  35.226  12.640  1.00  0.00     0.047 A 
ATOM     55  C   UNL     1      19.463  34.426  11.397  1.00  0.00     0.093 A 
ATOM     56  O   UNL     1      19.002  32.166  11.341  1.00  0.00    -0.456 OA
ATOM     57  C   UNL     1      18.429  29.896  11.207  1.00  0.00     0.099 A 
ATOM     58  C   UNL     1      19.780  28.281  12.337  1.00  0.00     0.053 A 
ATOM     59  C   UNL     1      20.281  35.460  11.845  1.00  0.00     0.119 A 
ATOM     60  C   UNL     1      18.687  28.584  11.540  1.00  0.00     0.182 A 
ATOM     61  O   UNL     1      17.939  27.657  11.127  1.00  0.00    -0.290 OA
BRANCH  59  62
ATOM     62  O   UNL     1      19.985  36.765  11.488  1.00  0.00    -0.508 OA
ATOM     63  H   UNL     1      20.594  37.355  10.953  1.00  0.00     0.293 HD
ENDBRANCH  59  62
ENDBRANCH  43  47
ENDBRANCH  36  38
ENDBRANCH  32  33
ENDBRANCH  31  32
ENDBRANCH   2  31
TORSDOF 18
BEGIN_RES LYS A 131
REMARK  4 active torsions:
REMARK  status: ('A' for Active; 'I' for Inactive)
REMARK    1  A    between atoms: CA   and  CB  
REMARK    2  A    between atoms: CB   and  CG  
REMARK    3  A    between atoms: CG   and  CD  
REMARK    4  A    between atoms: CD   and  CE  
ROOT
ATOM      1  CA  LYS A 131      29.867  25.555  16.977  1.00 20.52     0.186 C 
ENDROOT
BRANCH   1   2
ATOM      2  CB  LYS A 131      28.345  25.722  17.026  1.00 20.94     0.034 C 
BRANCH   2   3
ATOM      3  CG  LYS A 131      27.601  24.401  16.899  1.00 22.96     0.005 C 
BRANCH   3   4
ATOM      4  CD  LYS A 131      26.625  24.191  18.022  1.00 24.33     0.041 C 
BRANCH   4   5
ATOM      5  CE  LYS A 131      25.264  23.810  17.449  1.00 26.91     0.338 C 
ATOM      6  NZ  LYS A 131      24.499  25.024  17.077  1.00 27.40     0.618 N 
ENDBRANCH   4   5
ENDBRANCH   3   4
ENDBRANCH   2   3
ENDBRANCH   1   2
END_RES LYS A 131
BEGIN_RES LYS A 135
REMARK  4 active torsions:
REMARK  status: ('A' for Active; 'I' for Inactive)
REMARK    5  A    between atoms: CA   and  CB  
REMARK    6  A    between atoms: CB   and  CG  
REMARK    7  A    between atoms: CG   and  CD  
REMARK    8  A    between atoms: CD   and  CE  
ROOT
ATOM      7  CA  LYS A 135      33.193  34.663   9.290  1.00 25.02     0.186 C 
ENDROOT
BRANCH   7   8
ATOM      8  CB  LYS A 135      32.060  35.360  10.034  1.00 26.63     0.034 C 
BRANCH   8   9
ATOM      9  CG  LYS A 135      30.798  35.493   9.222  1.00 29.45     0.005 C 
BRANCH   9  10
ATOM     10  CD  LYS A 135      30.080  34.156   9.122  1.00 32.00     0.041 C 
BRANCH  10  11
ATOM     11  CE  LYS A 135      28.618  34.361   8.777  1.00 34.25     0.338 C 
ATOM     12  NZ  LYS A 135      27.735  33.612   9.713  1.00 35.99     0.618 N 
ENDBRANCH  10  11
ENDBRANCH   9  10
ENDBRANCH   8   9
ENDBRANCH   7   8
END_RES LYS A 135
