REMARK VINA RESULT:    -5.335      2.822      5.744
REMARK INTER + INTRA:         -14.882
REMARK INTER:                 -10.764
REMARK INTRA:                  -4.118
REMARK UNBOUND:                -5.337
REMARK SMILES CC(=O)N[C@@H]1[C@@H](O)C[C@](O)(C(=O)O)O[C@H]1C(O)[C@H](O)CNC(=O)OCc1cn(CC2=CC[C@H]3C[C@@H]2C3(C)C)nn1
REMARK SMILES IDX 21 1 22 2 23 3 20 5 18 6 16 7 15 8 9 9 8 10 14 11 6 12 5 13
REMARK SMILES IDX 10 14 11 16 12 17 13 18 7 20 4 22 2 23 1 25 3 26 17 27 19 29
REMARK SMILES IDX 24 31 25 32 26 33 27 34 40 35 28 36 39 37 29 38 30 39 31 40
REMARK SMILES IDX 35 41 32 42 34 43 36 44 33 45 37 46 38 47
REMARK H PARENT 21 4 10 15 13 19 7 21 4 24 17 28 19 30
REMARK Flexibility Score: inf
ROOT
ATOM      1  N   UNL     1      24.904  30.465  15.188  1.00  0.00    -0.319 N 
ATOM      2  C   UNL     1      24.563  31.861  15.165  1.00  0.00     0.407 C 
ATOM      3  O   UNL     1      23.833  32.316  16.083  1.00  0.00    -0.225 OA
ATOM      4  H   UNL     1      25.508  30.084  14.431  1.00  0.00     0.167 HD
ENDROOT
BRANCH   1   5
ATOM      5  C   UNL     1      24.405  29.621  16.253  1.00  0.00     0.154 C 
BRANCH   5   6
ATOM      6  C   UNL     1      25.544  29.323  17.187  1.00  0.00     0.165 C 
BRANCH   6   7
ATOM      7  C   UNL     1      26.888  29.653  16.577  1.00  0.00     0.176 C 
BRANCH   7   8
ATOM      8  C   UNL     1      27.524  30.715  17.443  1.00  0.00     0.178 C 
ATOM      9  C   UNL     1      29.264  31.592  16.189  1.00  0.00     0.269 C 
ATOM     10  C   UNL     1      30.325  31.182  17.185  1.00  0.00     0.112 C 
ATOM     11  O   UNL     1      28.024  31.779  16.752  1.00  0.00    -0.332 OA
ATOM     12  C   UNL     1      29.670  31.054  18.537  1.00  0.00     0.145 C 
ATOM     13  C   UNL     1      28.520  30.079  18.386  1.00  0.00     0.142 C 
BRANCH   9  14
ATOM     14  O   UNL     1      29.244  30.681  15.129  1.00  0.00    -0.357 OA
ATOM     15  H   UNL     1      28.375  30.827  14.665  1.00  0.00     0.214 HD
ENDBRANCH   9  14
BRANCH   9  16
ATOM     16  C   UNL     1      29.696  32.901  15.617  1.00  0.00     0.364 C 
ATOM     17  O   UNL     1      30.048  32.956  14.390  1.00  0.00    -0.246 OA
BRANCH  16  18
ATOM     18  O   UNL     1      29.735  34.064  16.355  1.00  0.00    -0.477 OA
ATOM     19  H   UNL     1      30.580  34.624  16.430  1.00  0.00     0.296 HD
ENDBRANCH  16  18
ENDBRANCH   9  16
BRANCH  12  20
ATOM     20  O   UNL     1      30.533  30.566  19.499  1.00  0.00    -0.391 OA
ATOM     21  H   UNL     1      30.258  29.636  19.700  1.00  0.00     0.211 HD
ENDBRANCH  12  20
BRANCH  13  22
ATOM     22  N   UNL     1      27.947  29.729  19.659  1.00  0.00    -0.348 N 
ATOM     23  C   UNL     1      27.693  28.380  20.019  1.00  0.00     0.217 C 
ATOM     24  H   UNL     1      27.718  30.501  20.322  1.00  0.00     0.163 HD
ATOM     25  C   UNL     1      27.098  28.108  21.355  1.00  0.00     0.114 C 
ATOM     26  O   UNL     1      27.966  27.446  19.225  1.00  0.00    -0.275 OA
ENDBRANCH  13  22
ENDBRANCH   7   8
BRANCH   7  27
ATOM     27  O   UNL     1      27.724  28.539  16.589  1.00  0.00    -0.388 OA
ATOM     28  H   UNL     1      28.299  28.478  15.808  1.00  0.00     0.211 HD
ENDBRANCH   7  27
ENDBRANCH   6   7
BRANCH   6  29
ATOM     29  O   UNL     1      25.503  27.935  17.438  1.00  0.00    -0.388 OA
ATOM     30  H   UNL     1      26.142  27.458  16.838  1.00  0.00     0.211 HD
ENDBRANCH   6  29
ENDBRANCH   5   6
ENDBRANCH   1   5
BRANCH   2  31
ATOM     31  O   UNL     1      24.998  32.718  14.191  1.00  0.00    -0.443 OA
BRANCH  31  32
ATOM     32  C   UNL     1      24.250  33.050  13.034  1.00  0.00     0.294 C 
BRANCH  32  33
ATOM     33  C   UNL     1      24.689  34.355  12.501  1.00  0.00     0.120 A 
ATOM     34  C   UNL     1      25.927  34.719  12.026  1.00  0.00     0.138 A 
ATOM     35  N   UNL     1      23.919  35.447  12.389  1.00  0.00    -0.132 NA
ATOM     36  N   UNL     1      25.886  36.026  11.632  1.00  0.00    -0.248 N 
ATOM     37  N   UNL     1      24.649  36.436  11.868  1.00  0.00    -0.067 NA
BRANCH  36  38
ATOM     38  C   UNL     1      26.999  36.759  11.079  1.00  0.00     0.177 C 
BRANCH  38  39
ATOM     39  C   UNL     1      27.508  36.103   9.824  1.00  0.00    -0.049 C 
ATOM     40  C   UNL     1      26.680  35.744   8.847  1.00  0.00    -0.025 C 
ATOM     41  C   UNL     1      28.947  35.833   9.632  1.00  0.00     0.023 C 
ATOM     42  C   UNL     1      27.259  35.330   7.540  1.00  0.00     0.031 C 
ATOM     43  C   UNL     1      29.320  36.459   8.281  1.00  0.00     0.013 C 
ATOM     44  C   UNL     1      29.117  34.487   8.957  1.00  0.00    -0.026 C 
ATOM     45  C   UNL     1      28.747  35.202   7.649  1.00  0.00    -0.000 C 
ATOM     46  C   UNL     1      30.541  34.011   8.893  1.00  0.00     0.012 C 
ATOM     47  C   UNL     1      28.165  33.419   9.377  1.00  0.00     0.012 C 
ENDBRANCH  38  39
ENDBRANCH  36  38
ENDBRANCH  32  33
ENDBRANCH  31  32
ENDBRANCH   2  31
TORSDOF 16
BEGIN_RES LYS A 131
REMARK  4 active torsions:
REMARK  status: ('A' for Active; 'I' for Inactive)
REMARK    1  A    between atoms: CA   and  CB  
REMARK    2  A    between atoms: CB   and  CG  
REMARK    3  A    between atoms: CG   and  CD  
REMARK    4  A    between atoms: CD   and  CE  
ROOT
ATOM      1  CA  LYS A 131      29.867  25.555  16.977  1.00 20.52     0.186 C 
ENDROOT
BRANCH   1   2
ATOM      2  CB  LYS A 131      28.345  25.722  17.026  1.00 20.94     0.034 C 
BRANCH   2   3
ATOM      3  CG  LYS A 131      27.602  24.399  16.919  1.00 22.96     0.005 C 
BRANCH   3   4
ATOM      4  CD  LYS A 131      26.619  24.210  18.041  1.00 24.33     0.041 C 
BRANCH   4   5
ATOM      5  CE  LYS A 131      25.614  23.128  17.660  1.00 26.91     0.338 C 
ATOM      6  NZ  LYS A 131      24.371  23.271  18.455  1.00 27.40     0.618 N 
ENDBRANCH   4   5
ENDBRANCH   3   4
ENDBRANCH   2   3
ENDBRANCH   1   2
END_RES LYS A 131
BEGIN_RES LYS A 135
REMARK  4 active torsions:
REMARK  status: ('A' for Active; 'I' for Inactive)
REMARK    5  A    between atoms: CA   and  CB  
REMARK    6  A    between atoms: CB   and  CG  
REMARK    7  A    between atoms: CG   and  CD  
REMARK    8  A    between atoms: CD   and  CE  
ROOT
ATOM      7  CA  LYS A 135      33.193  34.663   9.290  1.00 25.02     0.186 C 
ENDROOT
BRANCH   7   8
ATOM      8  CB  LYS A 135      32.060  35.360  10.034  1.00 26.63     0.034 C 
BRANCH   8   9
ATOM      9  CG  LYS A 135      32.494  36.007  11.324  1.00 29.45     0.005 C 
BRANCH   9  10
ATOM     10  CD  LYS A 135      31.749  35.403  12.504  1.00 32.00     0.041 C 
BRANCH  10  11
ATOM     11  CE  LYS A 135      32.319  35.916  13.813  1.00 34.25     0.338 C 
ATOM     12  NZ  LYS A 135      32.906  34.806  14.614  1.00 35.99     0.618 N 
ENDBRANCH  10  11
ENDBRANCH   9  10
ENDBRANCH   8   9
ENDBRANCH   7   8
END_RES LYS A 135
