REMARK VINA RESULT:    -3.758      2.412      5.744
REMARK INTER + INTRA:         -15.939
REMARK INTER:                  -7.718
REMARK INTRA:                  -8.220
REMARK UNBOUND:                -8.446
REMARK SMILES CC(=O)N[C@@H]1[C@@H](O)C[C@](O)(C(=O)O)O[C@H]1C(O)[C@H](O)CNC(=O)OCc1cn(CC(O)Cn2ccnc2[N+](=O)[O-])nn1
REMARK SMILES IDX 24 1 22 2 21 3 23 5 20 6 18 7 16 8 15 9 9 10 8 11 14 12 6 13
REMARK SMILES IDX 5 14 10 15 11 17 12 18 13 19 7 21 4 23 2 24 1 26 3 27 17 28
REMARK SMILES IDX 19 30 25 32 26 33 27 34 42 35 28 36 41 37 29 38 30 39 31 40
REMARK SMILES IDX 32 42 33 43 34 44 37 45 35 46 36 47 38 48 39 49 40 50
REMARK H PARENT 21 4 10 16 13 20 7 22 4 25 17 29 19 31 31 41
REMARK Flexibility Score: inf
ROOT
ATOM      1  O   UNL     1      27.082  33.018  16.765  1.00  0.00    -0.443 OA
ENDROOT
BRANCH   1   2
ATOM      2  C   UNL     1      28.328  33.207  17.386  1.00  0.00     0.407 C 
ATOM      3  N   UNL     1      28.595  32.798  18.696  1.00  0.00    -0.319 N 
ATOM      4  H   UNL     1      27.804  32.327  19.231  1.00  0.00     0.167 HD
ATOM      5  O   UNL     1      29.199  33.763  16.704  1.00  0.00    -0.225 OA
BRANCH   3   6
ATOM      6  C   UNL     1      29.861  32.969  19.369  1.00  0.00     0.154 C 
BRANCH   6   7
ATOM      7  C   UNL     1      30.471  31.610  19.583  1.00  0.00     0.165 C 
BRANCH   7   8
ATOM      8  C   UNL     1      29.360  30.645  19.925  1.00  0.00     0.176 C 
BRANCH   8   9
ATOM      9  C   UNL     1      29.837  29.594  20.918  1.00  0.00     0.178 C 
ATOM     10  C   UNL     1      31.402  27.872  21.025  1.00  0.00     0.269 C 
ATOM     11  C   UNL     1      30.358  27.155  21.859  1.00  0.00     0.112 C 
ATOM     12  O   UNL     1      30.802  28.861  20.284  1.00  0.00    -0.332 OA
ATOM     13  C   UNL     1      29.001  27.310  21.209  1.00  0.00     0.145 C 
ATOM     14  C   UNL     1      28.628  28.781  21.345  1.00  0.00     0.142 C 
BRANCH  10  15
ATOM     15  O   UNL     1      31.991  26.978  20.110  1.00  0.00    -0.357 OA
ATOM     16  H   UNL     1      31.527  27.107  19.251  1.00  0.00     0.214 HD
ENDBRANCH  10  15
BRANCH  10  17
ATOM     17  C   UNL     1      32.467  28.460  21.847  1.00  0.00     0.364 C 
ATOM     18  O   UNL     1      32.570  28.170  23.050  1.00  0.00    -0.246 OA
BRANCH  17  19
ATOM     19  O   UNL     1      33.371  29.345  21.288  1.00  0.00    -0.477 OA
ATOM     20  H   UNL     1      33.078  30.251  20.974  1.00  0.00     0.296 HD
ENDBRANCH  17  19
ENDBRANCH  10  17
BRANCH  13  21
ATOM     21  O   UNL     1      29.011  27.032  19.851  1.00  0.00    -0.391 OA
ATOM     22  H   UNL     1      29.923  26.853  19.545  1.00  0.00     0.211 HD
ENDBRANCH  13  21
BRANCH  14  23
ATOM     23  N   UNL     1      28.255  29.042  22.706  1.00  0.00    -0.348 N 
ATOM     24  C   UNL     1      26.956  29.488  23.025  1.00  0.00     0.217 C 
ATOM     25  H   UNL     1      28.915  28.921  23.520  1.00  0.00     0.163 HD
ATOM     26  C   UNL     1      26.575  29.758  24.445  1.00  0.00     0.114 C 
ATOM     27  O   UNL     1      26.095  29.665  22.126  1.00  0.00    -0.275 OA
ENDBRANCH  14  23
ENDBRANCH   8   9
BRANCH   8  28
ATOM     28  O   UNL     1      29.001  29.971  18.775  1.00  0.00    -0.388 OA
ATOM     29  H   UNL     1      28.181  29.435  18.882  1.00  0.00     0.211 HD
ENDBRANCH   8  28
ENDBRANCH   7   8
BRANCH   7  30
ATOM     30  O   UNL     1      31.467  31.626  20.555  1.00  0.00    -0.388 OA
ATOM     31  H   UNL     1      31.555  32.565  20.855  1.00  0.00     0.211 HD
ENDBRANCH   7  30
ENDBRANCH   6   7
ENDBRANCH   3   6
ENDBRANCH   1   2
BRANCH   1  32
ATOM     32  C   UNL     1      26.966  32.072  15.690  1.00  0.00     0.294 C 
BRANCH  32  33
ATOM     33  C   UNL     1      26.764  30.715  16.189  1.00  0.00     0.120 A 
ATOM     34  C   UNL     1      25.582  30.193  16.653  1.00  0.00     0.138 A 
ATOM     35  N   UNL     1      27.705  29.763  16.273  1.00  0.00    -0.132 NA
ATOM     36  N   UNL     1      25.843  28.927  17.009  1.00  0.00    -0.249 N 
ATOM     37  N   UNL     1      27.112  28.691  16.774  1.00  0.00    -0.067 NA
BRANCH  36  38
ATOM     38  C   UNL     1      24.840  28.002  17.562  1.00  0.00     0.181 C 
BRANCH  38  39
ATOM     39  C   UNL     1      24.716  28.209  19.055  1.00  0.00     0.170 C 
BRANCH  39  40
ATOM     40  O   UNL     1      26.006  27.964  19.574  1.00  0.00    -0.388 OA
ATOM     41  H   UNL     1      26.551  28.772  19.613  1.00  0.00     0.211 HD
ENDBRANCH  39  40
BRANCH  39  42
ATOM     42  C   UNL     1      23.719  27.240  19.608  1.00  0.00     0.239 C 
BRANCH  42  43
ATOM     43  N   UNL     1      23.300  27.720  20.927  1.00  0.00    -0.227 N 
ATOM     44  C   UNL     1      22.429  28.726  21.174  1.00  0.00     0.204 A 
ATOM     45  C   UNL     1      23.720  27.212  22.073  1.00  0.00     0.434 A 
ATOM     46  C   UNL     1      22.310  28.839  22.521  1.00  0.00     0.245 A 
ATOM     47  N   UNL     1      23.100  27.913  23.062  1.00  0.00    -0.074 NA
BRANCH  45  48
ATOM     48  N   UNL     1      24.649  26.135  22.286  1.00  0.00    -0.047 N 
ATOM     49  O   UNL     1      25.877  26.262  22.153  1.00  0.00    -0.390 OA
ATOM     50  O   UNL     1      24.163  24.899  22.657  1.00  0.00    -0.390 OA
ENDBRANCH  45  48
ENDBRANCH  42  43
ENDBRANCH  39  42
ENDBRANCH  38  39
ENDBRANCH  36  38
ENDBRANCH  32  33
ENDBRANCH   1  32
TORSDOF 20
BEGIN_RES LYS A 131
REMARK  4 active torsions:
REMARK  status: ('A' for Active; 'I' for Inactive)
REMARK    1  A    between atoms: CA   and  CB  
REMARK    2  A    between atoms: CB   and  CG  
REMARK    3  A    between atoms: CG   and  CD  
REMARK    4  A    between atoms: CD   and  CE  
ROOT
ATOM      1  CA  LYS A 131      29.867  25.555  16.977  1.00 20.52     0.186 C 
ENDROOT
BRANCH   1   2
ATOM      2  CB  LYS A 131      28.345  25.722  17.026  1.00 20.94     0.034 C 
BRANCH   2   3
ATOM      3  CG  LYS A 131      27.599  24.486  16.547  1.00 22.96     0.005 C 
BRANCH   3   4
ATOM      4  CD  LYS A 131      27.008  23.704  17.687  1.00 24.33     0.041 C 
BRANCH   4   5
ATOM      5  CE  LYS A 131      26.406  24.666  18.706  1.00 26.91     0.338 C 
ATOM      6  NZ  LYS A 131      25.433  23.962  19.573  1.00 27.40     0.618 N 
ENDBRANCH   4   5
ENDBRANCH   3   4
ENDBRANCH   2   3
ENDBRANCH   1   2
END_RES LYS A 131
BEGIN_RES LYS A 135
REMARK  4 active torsions:
REMARK  status: ('A' for Active; 'I' for Inactive)
REMARK    5  A    between atoms: CA   and  CB  
REMARK    6  A    between atoms: CB   and  CG  
REMARK    7  A    between atoms: CG   and  CD  
REMARK    8  A    between atoms: CD   and  CE  
ROOT
ATOM      7  CA  LYS A 135      33.193  34.663   9.290  1.00 25.02     0.186 C 
ENDROOT
BRANCH   7   8
ATOM      8  CB  LYS A 135      32.060  35.360  10.034  1.00 26.63     0.034 C 
BRANCH   8   9
ATOM      9  CG  LYS A 135      30.880  35.695   9.158  1.00 29.45     0.005 C 
BRANCH   9  10
ATOM     10  CD  LYS A 135      30.388  34.456   8.425  1.00 32.00     0.041 C 
BRANCH  10  11
ATOM     11  CE  LYS A 135      28.872  34.436   8.373  1.00 34.25     0.338 C 
ATOM     12  NZ  LYS A 135      28.363  35.248   7.233  1.00 35.99     0.618 N 
ENDBRANCH  10  11
ENDBRANCH   9  10
ENDBRANCH   8   9
ENDBRANCH   7   8
END_RES LYS A 135
