REMARK VINA RESULT:    -5.018      4.284      8.377
REMARK INTER + INTRA:         -16.500
REMARK INTER:                 -10.485
REMARK INTRA:                  -6.015
REMARK UNBOUND:                -6.934
REMARK SMILES CC(=O)N[C@@H]1[C@@H](O)C[C@](O)(C(=O)O)O[C@H]1C(O)[C@H](O)CNC(=O)OCc1cn(C(C)CC(=O)c2ccccc2)nn1
REMARK SMILES IDX 21 1 22 2 23 3 20 5 18 6 16 7 15 8 9 9 8 10 14 11 6 12 5 13
REMARK SMILES IDX 10 14 11 16 12 17 13 18 7 20 4 22 2 23 1 25 3 26 17 27 19 29
REMARK SMILES IDX 24 31 25 32 26 33 27 34 41 35 28 36 40 37 29 38 30 39 31 40
REMARK SMILES IDX 32 41 33 42 34 43 35 44 39 45 36 46 38 47 37 48
REMARK H PARENT 21 4 10 15 13 19 7 21 4 24 17 28 19 30
REMARK Flexibility Score: inf
ROOT
ATOM      1  N   UNL     1      27.370  32.668  15.528  1.00  0.00    -0.319 N 
ATOM      2  C   UNL     1      26.554  33.268  16.529  1.00  0.00     0.407 C 
ATOM      3  O   UNL     1      26.620  32.833  17.693  1.00  0.00    -0.225 OA
ATOM      4  H   UNL     1      27.258  33.097  14.559  1.00  0.00     0.167 HD
ENDROOT
BRANCH   1   5
ATOM      5  C   UNL     1      28.283  31.572  15.765  1.00  0.00     0.154 C 
BRANCH   5   6
ATOM      6  C   UNL     1      29.662  32.058  16.151  1.00  0.00     0.165 C 
BRANCH   6   7
ATOM      7  C   UNL     1      30.297  32.883  15.051  1.00  0.00     0.176 C 
BRANCH   7   8
ATOM      8  C   UNL     1      30.441  34.331  15.411  1.00  0.00     0.178 C 
ATOM      9  C   UNL     1      28.908  35.473  14.070  1.00  0.00     0.269 C 
ATOM     10  C   UNL     1      30.003  36.103  13.246  1.00  0.00     0.112 C 
ATOM     11  O   UNL     1      29.278  35.047  15.311  1.00  0.00    -0.332 OA
ATOM     12  C   UNL     1      31.271  35.303  13.244  1.00  0.00     0.145 C 
ATOM     13  C   UNL     1      31.601  34.987  14.685  1.00  0.00     0.142 C 
BRANCH   9  14
ATOM     14  O   UNL     1      28.254  34.485  13.300  1.00  0.00    -0.357 OA
ATOM     15  H   UNL     1      28.252  33.614  13.739  1.00  0.00     0.214 HD
ENDBRANCH   9  14
BRANCH   9  16
ATOM     16  C   UNL     1      27.882  36.560  14.275  1.00  0.00     0.364 C 
ATOM     17  O   UNL     1      27.544  37.357  13.391  1.00  0.00    -0.246 OA
BRANCH  16  18
ATOM     18  O   UNL     1      27.324  36.604  15.564  1.00  0.00    -0.477 OA
ATOM     19  H   UNL     1      26.325  36.647  15.693  1.00  0.00     0.296 HD
ENDBRANCH  16  18
ENDBRANCH   9  16
BRANCH  12  20
ATOM     20  O   UNL     1      31.203  34.181  12.452  1.00  0.00    -0.391 OA
ATOM     21  H   UNL     1      31.157  34.443  11.501  1.00  0.00     0.211 HD
ENDBRANCH  12  20
BRANCH  13  22
ATOM     22  N   UNL     1      31.789  36.293  15.338  1.00  0.00    -0.348 N 
ATOM     23  C   UNL     1      33.013  36.558  16.012  1.00  0.00     0.217 C 
ATOM     24  H   UNL     1      31.057  37.028  15.324  1.00  0.00     0.163 HD
ATOM     25  C   UNL     1      33.187  37.881  16.665  1.00  0.00     0.114 C 
ATOM     26  O   UNL     1      33.897  35.673  16.030  1.00  0.00    -0.275 OA
ENDBRANCH  13  22
ENDBRANCH   7   8
BRANCH   7  27
ATOM     27  O   UNL     1      31.538  32.301  14.779  1.00  0.00    -0.388 OA
ATOM     28  H   UNL     1      31.389  31.374  14.425  1.00  0.00     0.211 HD
ENDBRANCH   7  27
ENDBRANCH   6   7
BRANCH   6  29
ATOM     29  O   UNL     1      30.470  30.941  16.447  1.00  0.00    -0.388 OA
ATOM     30  H   UNL     1      31.428  31.183  16.496  1.00  0.00     0.211 HD
ENDBRANCH   6  29
ENDBRANCH   5   6
ENDBRANCH   1   5
BRANCH   2  31
ATOM     31  O   UNL     1      25.695  34.311  16.264  1.00  0.00    -0.443 OA
BRANCH  31  32
ATOM     32  C   UNL     1      24.483  34.217  15.550  1.00  0.00     0.294 C 
BRANCH  32  33
ATOM     33  C   UNL     1      24.622  34.317  14.094  1.00  0.00     0.120 A 
ATOM     34  C   UNL     1      23.781  35.041  13.239  1.00  0.00     0.138 A 
ATOM     35  N   UNL     1      25.553  33.760  13.278  1.00  0.00    -0.132 NA
ATOM     36  N   UNL     1      24.221  34.897  12.005  1.00  0.00    -0.249 N 
ATOM     37  N   UNL     1      25.274  34.133  12.044  1.00  0.00    -0.067 NA
BRANCH  36  38
ATOM     38  C   UNL     1      23.598  35.516  10.792  1.00  0.00     0.114 C 
ATOM     39  C   UNL     1      22.255  35.999  11.274  1.00  0.00     0.034 C 
BRANCH  38  40
ATOM     40  C   UNL     1      24.481  36.595  10.371  1.00  0.00     0.108 C 
BRANCH  40  41
ATOM     41  C   UNL     1      24.858  36.739   9.000  1.00  0.00     0.164 C 
ATOM     42  O   UNL     1      23.967  37.450   8.301  1.00  0.00    -0.294 OA
BRANCH  41  43
ATOM     43  C   UNL     1      25.967  36.293   8.216  1.00  0.00     0.018 A 
ATOM     44  C   UNL     1      26.419  37.117   7.155  1.00  0.00     0.012 A 
ATOM     45  C   UNL     1      26.663  35.125   8.408  1.00  0.00     0.012 A 
ATOM     46  C   UNL     1      27.487  36.758   6.374  1.00  0.00     0.001 A 
ATOM     47  C   UNL     1      27.740  34.794   7.598  1.00  0.00     0.001 A 
ATOM     48  C   UNL     1      28.169  35.584   6.582  1.00  0.00     0.000 A 
ENDBRANCH  41  43
ENDBRANCH  40  41
ENDBRANCH  38  40
ENDBRANCH  36  38
ENDBRANCH  32  33
ENDBRANCH  31  32
ENDBRANCH   2  31
TORSDOF 18
BEGIN_RES LYS A 131
REMARK  4 active torsions:
REMARK  status: ('A' for Active; 'I' for Inactive)
REMARK    1  A    between atoms: CA   and  CB  
REMARK    2  A    between atoms: CB   and  CG  
REMARK    3  A    between atoms: CG   and  CD  
REMARK    4  A    between atoms: CD   and  CE  
ROOT
ATOM      1  CA  LYS A 131      29.867  25.555  16.977  1.00 20.52     0.186 C 
ENDROOT
BRANCH   1   2
ATOM      2  CB  LYS A 131      28.345  25.722  17.026  1.00 20.94     0.034 C 
BRANCH   2   3
ATOM      3  CG  LYS A 131      27.604  24.394  17.007  1.00 22.96     0.005 C 
BRANCH   3   4
ATOM      4  CD  LYS A 131      26.388  24.411  17.892  1.00 24.33     0.041 C 
BRANCH   4   5
ATOM      5  CE  LYS A 131      25.388  23.368  17.403  1.00 26.91     0.338 C 
ATOM      6  NZ  LYS A 131      24.115  24.016  17.009  1.00 27.40     0.618 N 
ENDBRANCH   4   5
ENDBRANCH   3   4
ENDBRANCH   2   3
ENDBRANCH   1   2
END_RES LYS A 131
BEGIN_RES LYS A 135
REMARK  4 active torsions:
REMARK  status: ('A' for Active; 'I' for Inactive)
REMARK    5  A    between atoms: CA   and  CB  
REMARK    6  A    between atoms: CB   and  CG  
REMARK    7  A    between atoms: CG   and  CD  
REMARK    8  A    between atoms: CD   and  CE  
ROOT
ATOM      7  CA  LYS A 135      33.193  34.663   9.290  1.00 25.02     0.186 C 
ENDROOT
BRANCH   7   8
ATOM      8  CB  LYS A 135      32.060  35.360  10.034  1.00 26.63     0.034 C 
BRANCH   8   9
ATOM      9  CG  LYS A 135      30.811  35.529   9.208  1.00 29.45     0.005 C 
BRANCH   9  10
ATOM     10  CD  LYS A 135      30.464  37.002   9.056  1.00 32.00     0.041 C 
BRANCH  10  11
ATOM     11  CE  LYS A 135      29.247  37.351   9.892  1.00 34.25     0.338 C 
ATOM     12  NZ  LYS A 135      28.667  38.658   9.475  1.00 35.99     0.618 N 
ENDBRANCH  10  11
ENDBRANCH   9  10
ENDBRANCH   8   9
ENDBRANCH   7   8
END_RES LYS A 135
