REMARK VINA RESULT:    -4.105      2.415      4.497
REMARK INTER + INTRA:         -14.483
REMARK INTER:                  -7.845
REMARK INTRA:                  -6.638
REMARK UNBOUND:                -5.938
REMARK SMILES CCOC(CCn1cc(COC(=O)NC[C@@H](O)C(O)[C@@H]2O[C@@](O)(C(=O)O)C[C@H](O)[C@H]2NC(C)=O)nn1)OCC
REMARK SMILES IDX 11 1 12 2 14 3 13 5 15 6 16 7 18 8 20 9 22 10 27 11 21 12
REMARK SMILES IDX 28 13 30 14 23 15 24 17 25 18 26 19 29 21 31 23 32 24 33 26
REMARK SMILES IDX 34 27 19 28 17 30 10 32 9 33 8 34 35 35 7 36 36 37 6 38 5 39
REMARK SMILES IDX 4 40 3 41 2 42 1 43 37 44 38 45 39 46
REMARK H PARENT 14 4 23 16 26 20 29 22 31 25 19 29 17 31
REMARK Flexibility Score: inf
ROOT
ATOM      1  O   UNL     1      26.265  27.765  22.528  1.00  0.00    -0.443 OA
ENDROOT
BRANCH   1   2
ATOM      2  C   UNL     1      27.635  27.972  22.744  1.00  0.00     0.407 C 
ATOM      3  N   UNL     1      28.591  26.974  22.460  1.00  0.00    -0.319 N 
ATOM      4  H   UNL     1      28.194  26.065  22.060  1.00  0.00     0.167 HD
ATOM      5  O   UNL     1      27.983  29.065  23.196  1.00  0.00    -0.225 OA
BRANCH   3   6
ATOM      6  C   UNL     1      30.006  27.045  22.643  1.00  0.00     0.154 C 
BRANCH   6   7
ATOM      7  C   UNL     1      30.738  26.850  21.346  1.00  0.00     0.165 C 
BRANCH   7   8
ATOM      8  C   UNL     1      31.771  27.973  21.274  1.00  0.00     0.176 C 
BRANCH   8   9
ATOM      9  C   UNL     1      31.224  29.269  21.785  1.00  0.00     0.178 C 
ATOM     10  C   UNL     1      30.272  31.218  20.965  1.00  0.00     0.269 C 
ATOM     11  C   UNL     1      30.595  31.866  22.271  1.00  0.00     0.112 C 
ATOM     12  O   UNL     1      30.272  29.832  20.986  1.00  0.00    -0.332 OA
ATOM     13  C   UNL     1      31.784  31.292  22.985  1.00  0.00     0.145 C 
ATOM     14  C   UNL     1      32.374  30.220  22.094  1.00  0.00     0.142 C 
BRANCH  10  15
ATOM     15  O   UNL     1      31.092  31.721  19.951  1.00  0.00    -0.357 OA
ATOM     16  H   UNL     1      30.714  31.385  19.085  1.00  0.00     0.214 HD
ENDBRANCH  10  15
BRANCH  10  17
ATOM     17  C   UNL     1      28.875  31.618  20.629  1.00  0.00     0.364 C 
ATOM     18  O   UNL     1      28.004  30.762  20.366  1.00  0.00    -0.246 OA
BRANCH  17  19
ATOM     19  O   UNL     1      28.550  32.988  20.612  1.00  0.00    -0.477 OA
ATOM     20  H   UNL     1      28.896  33.508  19.807  1.00  0.00     0.296 HD
ENDBRANCH  17  19
ENDBRANCH  10  17
BRANCH  13  21
ATOM     21  O   UNL     1      32.719  32.249  23.359  1.00  0.00    -0.391 OA
ATOM     22  H   UNL     1      32.425  32.597  24.239  1.00  0.00     0.211 HD
ENDBRANCH  13  21
BRANCH  14  23
ATOM     23  N   UNL     1      33.404  29.456  22.767  1.00  0.00    -0.348 N 
ATOM     24  C   UNL     1      34.764  29.840  22.621  1.00  0.00     0.217 C 
ATOM     25  H   UNL     1      33.214  28.630  23.361  1.00  0.00     0.163 HD
ATOM     26  C   UNL     1      35.878  29.120  23.270  1.00  0.00     0.114 C 
ATOM     27  O   UNL     1      35.032  30.843  21.904  1.00  0.00    -0.275 OA
ENDBRANCH  14  23
ENDBRANCH   8   9
BRANCH   8  28
ATOM     28  O   UNL     1      32.225  28.068  19.969  1.00  0.00    -0.388 OA
ATOM     29  H   UNL     1      32.941  27.408  19.760  1.00  0.00     0.211 HD
ENDBRANCH   8  28
ENDBRANCH   7   8
BRANCH   7  30
ATOM     30  O   UNL     1      29.895  27.015  20.278  1.00  0.00    -0.388 OA
ATOM     31  H   UNL     1      30.100  26.409  19.520  1.00  0.00     0.211 HD
ENDBRANCH   7  30
ENDBRANCH   6   7
ENDBRANCH   3   6
ENDBRANCH   1   2
BRANCH   1  32
ATOM     32  C   UNL     1      25.825  26.825  21.551  1.00  0.00     0.294 C 
BRANCH  32  33
ATOM     33  C   UNL     1      26.344  27.219  20.229  1.00  0.00     0.120 A 
ATOM     34  C   UNL     1      25.855  28.333  19.541  1.00  0.00     0.138 A 
ATOM     35  N   UNL     1      27.278  26.707  19.439  1.00  0.00    -0.132 NA
ATOM     36  N   UNL     1      26.517  28.438  18.370  1.00  0.00    -0.252 N 
ATOM     37  N   UNL     1      27.366  27.453  18.330  1.00  0.00    -0.067 NA
BRANCH  36  38
ATOM     38  C   UNL     1      26.271  29.469  17.401  1.00  0.00     0.151 C 
BRANCH  38  39
ATOM     39  C   UNL     1      27.441  29.704  16.476  1.00  0.00     0.086 C 
BRANCH  39  40
ATOM     40  C   UNL     1      27.686  31.154  16.196  1.00  0.00     0.251 C 
BRANCH  40  41
ATOM     41  O   UNL     1      28.848  31.262  15.441  1.00  0.00    -0.353 OA
BRANCH  41  42
ATOM     42  C   UNL     1      29.973  31.158  16.268  1.00  0.00     0.160 C 
ATOM     43  C   UNL     1      31.059  32.116  15.850  1.00  0.00     0.035 C 
ENDBRANCH  41  42
ENDBRANCH  40  41
BRANCH  40  44
ATOM     44  O   UNL     1      27.824  31.901  17.337  1.00  0.00    -0.353 OA
BRANCH  44  45
ATOM     45  C   UNL     1      27.182  33.136  17.244  1.00  0.00     0.160 C 
ATOM     46  C   UNL     1      25.879  33.069  18.032  1.00  0.00     0.035 C 
ENDBRANCH  44  45
ENDBRANCH  40  44
ENDBRANCH  39  40
ENDBRANCH  38  39
ENDBRANCH  36  38
ENDBRANCH  32  33
ENDBRANCH   1  32
TORSDOF 21
BEGIN_RES LYS A 131
REMARK  4 active torsions:
REMARK  status: ('A' for Active; 'I' for Inactive)
REMARK    1  A    between atoms: CA   and  CB  
REMARK    2  A    between atoms: CB   and  CG  
REMARK    3  A    between atoms: CG   and  CD  
REMARK    4  A    between atoms: CD   and  CE  
ROOT
ATOM      1  CA  LYS A 131      29.867  25.555  16.977  1.00 20.52     0.186 C 
ENDROOT
BRANCH   1   2
ATOM      2  CB  LYS A 131      28.345  25.722  17.026  1.00 20.94     0.034 C 
BRANCH   2   3
ATOM      3  CG  LYS A 131      27.599  24.474  16.580  1.00 22.96     0.005 C 
BRANCH   3   4
ATOM      4  CD  LYS A 131      27.020  23.714  17.741  1.00 24.33     0.041 C 
BRANCH   4   5
ATOM      5  CE  LYS A 131      25.526  24.004  17.845  1.00 26.91     0.338 C 
ATOM      6  NZ  LYS A 131      24.738  22.835  17.391  1.00 27.40     0.618 N 
ENDBRANCH   4   5
ENDBRANCH   3   4
ENDBRANCH   2   3
ENDBRANCH   1   2
END_RES LYS A 131
BEGIN_RES LYS A 135
REMARK  4 active torsions:
REMARK  status: ('A' for Active; 'I' for Inactive)
REMARK    5  A    between atoms: CA   and  CB  
REMARK    6  A    between atoms: CB   and  CG  
REMARK    7  A    between atoms: CG   and  CD  
REMARK    8  A    between atoms: CD   and  CE  
ROOT
ATOM      7  CA  LYS A 135      33.193  34.663   9.290  1.00 25.02     0.186 C 
ENDROOT
BRANCH   7   8
ATOM      8  CB  LYS A 135      32.060  35.360  10.034  1.00 26.63     0.034 C 
BRANCH   8   9
ATOM      9  CG  LYS A 135      30.709  34.735   9.797  1.00 29.45     0.005 C 
BRANCH   9  10
ATOM     10  CD  LYS A 135      30.482  34.493   8.313  1.00 32.00     0.041 C 
BRANCH  10  11
ATOM     11  CE  LYS A 135      29.064  34.865   7.924  1.00 34.25     0.338 C 
ATOM     12  NZ  LYS A 135      28.977  36.294   7.516  1.00 35.99     0.618 N 
ENDBRANCH  10  11
ENDBRANCH   9  10
ENDBRANCH   8   9
ENDBRANCH   7   8
END_RES LYS A 135
