REMARK VINA RESULT:    -3.683      2.343      3.543
REMARK INTER + INTRA:         -14.889
REMARK INTER:                  -7.864
REMARK INTRA:                  -7.025
REMARK UNBOUND:                -7.438
REMARK SMILES CC(=O)N[C@@H]1[C@@H](O)C[C@](O)(C(=O)O)O[C@H]1C(O)[C@H](O)CNC(=O)OCc1cn([C@@H](CCC(=O)O)C(=O)O)nn1
REMARK SMILES IDX 24 1 22 2 21 3 23 5 20 6 18 7 16 8 15 9 9 10 8 11 14 12 6 13
REMARK SMILES IDX 5 14 10 15 11 17 12 18 13 19 7 21 4 23 2 24 1 26 3 27 17 28
REMARK SMILES IDX 19 30 25 32 26 33 27 34 39 35 28 36 38 37 29 38 30 39 31 40
REMARK SMILES IDX 32 41 33 42 34 43 35 45 36 46 37 47
REMARK H PARENT 21 4 10 16 13 20 7 22 4 25 17 29 19 31 34 44 37 48
REMARK Flexibility Score: inf
ROOT
ATOM      1  O   UNL     1      24.858  33.915  12.425  1.00  0.00    -0.443 OA
ENDROOT
BRANCH   1   2
ATOM      2  C   UNL     1      23.709  34.493  12.980  1.00  0.00     0.407 C 
ATOM      3  N   UNL     1      22.489  34.559  12.293  1.00  0.00    -0.319 N 
ATOM      4  H   UNL     1      22.496  34.144  11.302  1.00  0.00     0.167 HD
ATOM      5  O   UNL     1      23.818  34.954  14.128  1.00  0.00    -0.225 OA
BRANCH   3   6
ATOM      6  C   UNL     1      21.254  35.115  12.769  1.00  0.00     0.154 C 
BRANCH   6   7
ATOM      7  C   UNL     1      21.025  36.476  12.240  1.00  0.00     0.165 C 
BRANCH   7   8
ATOM      8  C   UNL     1      21.507  36.656  10.813  1.00  0.00     0.176 C 
BRANCH   8   9
ATOM      9  C   UNL     1      20.370  37.179   9.931  1.00  0.00     0.178 C 
ATOM     10  C   UNL     1      19.321  35.323   8.965  1.00  0.00     0.269 C 
ATOM     11  C   UNL     1      20.490  35.321   8.023  1.00  0.00     0.112 C 
ATOM     12  O   UNL     1      19.306  36.342   9.867  1.00  0.00    -0.332 OA
ATOM     13  C   UNL     1      20.938  36.658   7.552  1.00  0.00     0.145 C 
ATOM     14  C   UNL     1      20.890  37.706   8.626  1.00  0.00     0.142 C 
BRANCH  10  15
ATOM     15  O   UNL     1      19.398  34.125   9.677  1.00  0.00    -0.357 OA
ATOM     16  H   UNL     1      19.740  34.259  10.585  1.00  0.00     0.214 HD
ENDBRANCH  10  15
BRANCH  10  17
ATOM     17  C   UNL     1      18.053  35.300   8.193  1.00  0.00     0.364 C 
ATOM     18  O   UNL     1      17.226  36.234   8.317  1.00  0.00    -0.246 OA
BRANCH  17  19
ATOM     19  O   UNL     1      17.739  34.264   7.319  1.00  0.00    -0.477 OA
ATOM     20  H   UNL     1      16.834  34.330   6.853  1.00  0.00     0.296 HD
ENDBRANCH  17  19
ENDBRANCH  10  17
BRANCH  13  21
ATOM     21  O   UNL     1      22.250  36.537   7.099  1.00  0.00    -0.391 OA
ATOM     22  H   UNL     1      22.367  36.974   6.214  1.00  0.00     0.211 HD
ENDBRANCH  13  21
BRANCH  14  23
ATOM     23  N   UNL     1      20.101  38.846   8.258  1.00  0.00    -0.348 N 
ATOM     24  C   UNL     1      20.445  40.127   8.758  1.00  0.00     0.217 C 
ATOM     25  H   UNL     1      19.264  38.733   7.615  1.00  0.00     0.163 HD
ATOM     26  C   UNL     1      19.635  41.304   8.382  1.00  0.00     0.114 C 
ATOM     27  O   UNL     1      21.429  40.311   9.525  1.00  0.00    -0.275 OA
ENDBRANCH  14  23
ENDBRANCH   8   9
BRANCH   8  28
ATOM     28  O   UNL     1      22.550  37.562  10.797  1.00  0.00    -0.388 OA
ATOM     29  H   UNL     1      23.263  37.213  10.205  1.00  0.00     0.211 HD
ENDBRANCH   8  28
ENDBRANCH   7   8
BRANCH   7  30
ATOM     30  O   UNL     1      21.447  37.456  13.079  1.00  0.00    -0.388 OA
ATOM     31  H   UNL     1      21.588  38.338  12.668  1.00  0.00     0.211 HD
ENDBRANCH   7  30
ENDBRANCH   6   7
ENDBRANCH   3   6
ENDBRANCH   1   2
BRANCH   1  32
ATOM     32  C   UNL     1      25.916  34.753  11.969  1.00  0.00     0.294 C 
BRANCH  32  33
ATOM     33  C   UNL     1      25.548  35.505  10.778  1.00  0.00     0.120 A 
ATOM     34  C   UNL     1      26.087  36.671  10.303  1.00  0.00     0.139 A 
ATOM     35  N   UNL     1      24.585  35.182   9.902  1.00  0.00    -0.132 NA
ATOM     36  N   UNL     1      25.464  37.035   9.174  1.00  0.00    -0.238 N 
ATOM     37  N   UNL     1      24.554  36.105   8.957  1.00  0.00    -0.066 NA
BRANCH  36  38
ATOM     38  C   UNL     1      25.659  38.177   8.299  1.00  0.00     0.219 C 
BRANCH  38  39
ATOM     39  C   UNL     1      26.353  37.764   7.053  1.00  0.00     0.051 C 
BRANCH  39  40
ATOM     40  C   UNL     1      27.799  37.462   7.175  1.00  0.00     0.125 C 
BRANCH  40  41
ATOM     41  C   UNL     1      28.143  36.077   6.859  1.00  0.00     0.303 C 
ATOM     42  O   UNL     1      27.453  35.098   7.310  1.00  0.00    -0.252 OA
BRANCH  41  43
ATOM     43  O   UNL     1      29.247  35.801   6.049  1.00  0.00    -0.481 OA
ATOM     44  H   UNL     1      30.153  36.099   6.384  1.00  0.00     0.296 HD
ENDBRANCH  41  43
ENDBRANCH  40  41
ENDBRANCH  39  40
ENDBRANCH  38  39
BRANCH  38  45
ATOM     45  C   UNL     1      24.483  39.019   8.165  1.00  0.00     0.328 C 
ATOM     46  O   UNL     1      23.804  39.163   7.150  1.00  0.00    -0.250 OA
BRANCH  45  47
ATOM     47  O   UNL     1      24.088  39.742   9.307  1.00  0.00    -0.480 OA
ATOM     48  H   UNL     1      23.816  39.233  10.130  1.00  0.00     0.296 HD
ENDBRANCH  45  47
ENDBRANCH  38  45
ENDBRANCH  36  38
ENDBRANCH  32  33
ENDBRANCH   1  32
TORSDOF 21
BEGIN_RES LYS A 131
REMARK  4 active torsions:
REMARK  status: ('A' for Active; 'I' for Inactive)
REMARK    1  A    between atoms: CA   and  CB  
REMARK    2  A    between atoms: CB   and  CG  
REMARK    3  A    between atoms: CG   and  CD  
REMARK    4  A    between atoms: CD   and  CE  
ROOT
ATOM      1  CA  LYS A 131      29.867  25.555  16.977  1.00 20.52     0.186 C 
ENDROOT
BRANCH   1   2
ATOM      2  CB  LYS A 131      28.345  25.722  17.026  1.00 20.94     0.034 C 
BRANCH   2   3
ATOM      3  CG  LYS A 131      27.601  24.402  16.890  1.00 22.96     0.005 C 
BRANCH   3   4
ATOM      4  CD  LYS A 131      26.569  24.220  17.968  1.00 24.33     0.041 C 
BRANCH   4   5
ATOM      5  CE  LYS A 131      26.451  25.505  18.782  1.00 26.91     0.338 C 
ATOM      6  NZ  LYS A 131      25.586  25.291  19.967  1.00 27.40     0.618 N 
ENDBRANCH   4   5
ENDBRANCH   3   4
ENDBRANCH   2   3
ENDBRANCH   1   2
END_RES LYS A 131
BEGIN_RES LYS A 135
REMARK  4 active torsions:
REMARK  status: ('A' for Active; 'I' for Inactive)
REMARK    5  A    between atoms: CA   and  CB  
REMARK    6  A    between atoms: CB   and  CG  
REMARK    7  A    between atoms: CG   and  CD  
REMARK    8  A    between atoms: CD   and  CE  
ROOT
ATOM      7  CA  LYS A 135      33.193  34.663   9.290  1.00 25.02     0.186 C 
ENDROOT
BRANCH   7   8
ATOM      8  CB  LYS A 135      32.060  35.360  10.034  1.00 26.63     0.034 C 
BRANCH   8   9
ATOM      9  CG  LYS A 135      30.723  35.235   9.350  1.00 29.45     0.005 C 
BRANCH   9  10
ATOM     10  CD  LYS A 135      29.598  35.624  10.296  1.00 32.00     0.041 C 
BRANCH  10  11
ATOM     11  CE  LYS A 135      29.735  34.892  11.617  1.00 34.25     0.338 C 
ATOM     12  NZ  LYS A 135      29.377  35.777  12.760  1.00 35.99     0.618 N 
ENDBRANCH  10  11
ENDBRANCH   9  10
ENDBRANCH   8   9
ENDBRANCH   7   8
END_RES LYS A 135
