REMARK VINA RESULT:    -4.710      5.086      9.346
REMARK INTER + INTRA:         -14.826
REMARK INTER:                 -10.097
REMARK INTRA:                  -4.729
REMARK UNBOUND:                -6.398
REMARK SMILES CC(=O)N[C@@H]1[C@@H](O)C[C@](O)(C(=O)O)O[C@H]1C(O)[C@H](O)CNC(=O)OCc1cn(Cc2ccc(Br)cc2)nn1
REMARK SMILES IDX 21 1 22 2 23 3 20 5 18 6 16 7 15 8 9 9 8 10 14 11 6 12 5 13
REMARK SMILES IDX 10 14 11 16 12 17 13 18 7 20 4 22 2 23 1 25 3 26 17 27 19 29
REMARK SMILES IDX 24 31 25 32 26 33 27 34 38 35 28 36 37 37 29 38 30 39 31 40
REMARK SMILES IDX 36 41 32 42 35 43 33 44 34 45
REMARK H PARENT 21 4 10 15 13 19 7 21 4 24 17 28 19 30
REMARK Flexibility Score: inf
ROOT
ATOM      1  N   UNL     1      26.945  37.154  10.497  1.00  0.00    -0.319 N 
ATOM      2  C   UNL     1      28.302  37.555  10.436  1.00  0.00     0.407 C 
ATOM      3  O   UNL     1      28.849  38.138   9.481  1.00  0.00    -0.225 OA
ATOM      4  H   UNL     1      26.580  36.663  11.373  1.00  0.00     0.167 HD
ENDROOT
BRANCH   1   5
ATOM      5  C   UNL     1      26.071  37.407   9.395  1.00  0.00     0.154 C 
BRANCH   5   6
ATOM      6  C   UNL     1      25.147  36.270   9.041  1.00  0.00     0.165 C 
BRANCH   6   7
ATOM      7  C   UNL     1      23.929  36.701   8.307  1.00  0.00     0.176 C 
BRANCH   7   8
ATOM      8  C   UNL     1      22.806  37.283   9.070  1.00  0.00     0.178 C 
ATOM      9  C   UNL     1      20.791  36.381   8.400  1.00  0.00     0.269 C 
ATOM     10  C   UNL     1      19.951  37.451   9.058  1.00  0.00     0.112 C 
ATOM     11  O   UNL     1      21.891  36.230   9.230  1.00  0.00    -0.332 OA
ATOM     12  C   UNL     1      20.743  38.712   8.996  1.00  0.00     0.145 C 
ATOM     13  C   UNL     1      22.205  38.543   8.631  1.00  0.00     0.142 C 
BRANCH   9  14
ATOM     14  O   UNL     1      21.085  36.807   7.123  1.00  0.00    -0.357 OA
ATOM     15  H   UNL     1      22.026  37.006   6.964  1.00  0.00     0.214 HD
ENDBRANCH   9  14
BRANCH   9  16
ATOM     16  C   UNL     1      20.008  35.123   8.417  1.00  0.00     0.364 C 
ATOM     17  O   UNL     1      19.468  34.667   9.449  1.00  0.00    -0.246 OA
BRANCH  16  18
ATOM     18  O   UNL     1      19.886  34.436   7.213  1.00  0.00    -0.477 OA
ATOM     19  H   UNL     1      20.676  34.091   6.692  1.00  0.00     0.296 HD
ENDBRANCH  16  18
ENDBRANCH   9  16
BRANCH  12  20
ATOM     20  O   UNL     1      20.170  39.506   7.975  1.00  0.00    -0.391 OA
ATOM     21  H   UNL     1      19.209  39.347   7.887  1.00  0.00     0.211 HD
ENDBRANCH  12  20
BRANCH  13  22
ATOM     22  N   UNL     1      22.826  39.704   9.306  1.00  0.00    -0.348 N 
ATOM     23  C   UNL     1      23.831  40.485   8.724  1.00  0.00     0.217 C 
ATOM     24  H   UNL     1      22.448  39.894  10.266  1.00  0.00     0.163 HD
ATOM     25  C   UNL     1      24.398  41.632   9.493  1.00  0.00     0.114 C 
ATOM     26  O   UNL     1      24.249  40.232   7.584  1.00  0.00    -0.275 OA
ENDBRANCH  13  22
ENDBRANCH   7   8
BRANCH   7  27
ATOM     27  O   UNL     1      24.300  37.361   7.146  1.00  0.00    -0.388 OA
ATOM     28  H   UNL     1      23.492  37.517   6.578  1.00  0.00     0.211 HD
ENDBRANCH   7  27
ENDBRANCH   6   7
BRANCH   6  29
ATOM     29  O   UNL     1      24.911  35.373  10.069  1.00  0.00    -0.388 OA
ATOM     30  H   UNL     1      24.166  34.764   9.895  1.00  0.00     0.211 HD
ENDBRANCH   6  29
ENDBRANCH   5   6
ENDBRANCH   1   5
BRANCH   2  31
ATOM     31  O   UNL     1      29.115  37.282  11.535  1.00  0.00    -0.443 OA
BRANCH  31  32
ATOM     32  C   UNL     1      28.707  36.390  12.545  1.00  0.00     0.294 C 
BRANCH  32  33
ATOM     33  C   UNL     1      29.818  36.032  13.445  1.00  0.00     0.120 A 
ATOM     34  C   UNL     1      30.473  34.838  13.638  1.00  0.00     0.138 A 
ATOM     35  N   UNL     1      30.381  36.933  14.282  1.00  0.00    -0.132 NA
ATOM     36  N   UNL     1      31.415  35.052  14.585  1.00  0.00    -0.248 N 
ATOM     37  N   UNL     1      31.326  36.319  14.943  1.00  0.00    -0.067 NA
BRANCH  36  38
ATOM     38  C   UNL     1      32.330  34.047  15.084  1.00  0.00     0.181 C 
BRANCH  38  39
ATOM     39  C   UNL     1      31.579  33.212  16.080  1.00  0.00    -0.026 A 
ATOM     40  C   UNL     1      31.073  31.982  15.685  1.00  0.00     0.007 A 
ATOM     41  C   UNL     1      31.406  33.676  17.366  1.00  0.00     0.007 A 
ATOM     42  C   UNL     1      30.391  31.237  16.611  1.00  0.00     0.016 A 
ATOM     43  C   UNL     1      30.711  32.919  18.309  1.00  0.00     0.016 A 
ATOM     44  C   UNL     1      30.221  31.706  17.893  1.00  0.00     0.017 A 
ATOM     45  Br  UNL     1      29.265  30.643  19.164  1.00  0.00    -0.051 Br
ENDBRANCH  38  39
ENDBRANCH  36  38
ENDBRANCH  32  33
ENDBRANCH  31  32
ENDBRANCH   2  31
TORSDOF 16
BEGIN_RES LYS A 131
REMARK  4 active torsions:
REMARK  status: ('A' for Active; 'I' for Inactive)
REMARK    1  A    between atoms: CA   and  CB  
REMARK    2  A    between atoms: CB   and  CG  
REMARK    3  A    between atoms: CG   and  CD  
REMARK    4  A    between atoms: CD   and  CE  
ROOT
ATOM      1  CA  LYS A 131      29.867  25.555  16.977  1.00 20.52     0.186 C 
ENDROOT
BRANCH   1   2
ATOM      2  CB  LYS A 131      28.345  25.722  17.026  1.00 20.94     0.034 C 
BRANCH   2   3
ATOM      3  CG  LYS A 131      27.601  24.403  16.888  1.00 22.96     0.005 C 
BRANCH   3   4
ATOM      4  CD  LYS A 131      26.594  24.203  17.986  1.00 24.33     0.041 C 
BRANCH   4   5
ATOM      5  CE  LYS A 131      25.246  24.769  17.551  1.00 26.91     0.338 C 
ATOM      6  NZ  LYS A 131      24.398  23.701  16.970  1.00 27.40     0.618 N 
ENDBRANCH   4   5
ENDBRANCH   3   4
ENDBRANCH   2   3
ENDBRANCH   1   2
END_RES LYS A 131
BEGIN_RES LYS A 135
REMARK  4 active torsions:
REMARK  status: ('A' for Active; 'I' for Inactive)
REMARK    5  A    between atoms: CA   and  CB  
REMARK    6  A    between atoms: CB   and  CG  
REMARK    7  A    between atoms: CG   and  CD  
REMARK    8  A    between atoms: CD   and  CE  
ROOT
ATOM      7  CA  LYS A 135      33.193  34.663   9.290  1.00 25.02     0.186 C 
ENDROOT
BRANCH   7   8
ATOM      8  CB  LYS A 135      32.060  35.360  10.034  1.00 26.63     0.034 C 
BRANCH   8   9
ATOM      9  CG  LYS A 135      30.719  34.698   9.847  1.00 29.45     0.005 C 
BRANCH   9  10
ATOM     10  CD  LYS A 135      30.260  34.813   8.402  1.00 32.00     0.041 C 
BRANCH  10  11
ATOM     11  CE  LYS A 135      28.771  34.548   8.293  1.00 34.25     0.338 C 
ATOM     12  NZ  LYS A 135      28.237  33.964   9.555  1.00 35.99     0.618 N 
ENDBRANCH  10  11
ENDBRANCH   9  10
ENDBRANCH   8   9
ENDBRANCH   7   8
END_RES LYS A 135
