REMARK VINA RESULT:    -5.769      8.775     14.694
REMARK INTER + INTRA:         -14.469
REMARK INTER:                  -8.602
REMARK INTRA:                  -5.867
REMARK UNBOUND:                -4.485
REMARK SMILES CC(=O)N[C@@H]1[C@@H](O)C[C@](O)(C(=O)O)O[C@H]1C(O)[C@H](O)CNC(=O)OCc1cn(-c2ccccc2)nn1
REMARK SMILES IDX 20 1 18 2 16 3 15 4 9 5 8 6 14 7 6 8 5 9 10 10 11 12 12 13
REMARK SMILES IDX 13 14 7 16 4 18 2 19 1 21 3 22 17 23 19 25 21 27 22 28 23 30
REMARK SMILES IDX 24 31 25 32 26 33 27 34 36 35 28 36 35 37 29 38 30 39 34 40
REMARK SMILES IDX 31 41 33 42 32 43
REMARK H PARENT 10 11 13 15 7 17 4 20 17 24 19 26 21 29
REMARK Flexibility Score: inf
ROOT
ATOM      1  C   UNL     1      29.617  32.030  20.656  1.00  0.00     0.154 C 
ENDROOT
BRANCH   1   2
ATOM      2  C   UNL     1      31.002  31.495  20.350  1.00  0.00     0.165 C 
BRANCH   2   3
ATOM      3  C   UNL     1      31.010  29.987  20.232  1.00  0.00     0.176 C 
BRANCH   3   4
ATOM      4  C   UNL     1      30.556  29.308  21.481  1.00  0.00     0.178 C 
ATOM      5  C   UNL     1      32.458  28.665  22.699  1.00  0.00     0.269 C 
ATOM      6  C   UNL     1      32.407  27.264  22.199  1.00  0.00     0.112 C 
ATOM      7  O   UNL     1      31.364  29.429  22.549  1.00  0.00    -0.332 OA
ATOM      8  C   UNL     1      31.379  27.010  21.137  1.00  0.00     0.145 C 
ATOM      9  C   UNL     1      30.165  27.873  21.274  1.00  0.00     0.142 C 
BRANCH   5  10
ATOM     10  O   UNL     1      33.527  29.291  22.021  1.00  0.00    -0.357 OA
ATOM     11  H   UNL     1      33.172  29.586  21.135  1.00  0.00     0.214 HD
ENDBRANCH   5  10
BRANCH   5  12
ATOM     12  C   UNL     1      32.845  28.675  24.136  1.00  0.00     0.364 C 
ATOM     13  O   UNL     1      33.890  29.222  24.549  1.00  0.00    -0.246 OA
BRANCH  12  14
ATOM     14  O   UNL     1      32.033  28.063  25.065  1.00  0.00    -0.477 OA
ATOM     15  H   UNL     1      31.417  28.555  25.700  1.00  0.00     0.296 HD
ENDBRANCH  12  14
ENDBRANCH   5  12
BRANCH   8  16
ATOM     16  O   UNL     1      31.946  27.181  19.862  1.00  0.00    -0.391 OA
ATOM     17  H   UNL     1      31.834  26.393  19.294  1.00  0.00     0.211 HD
ENDBRANCH   8  16
BRANCH   9  18
ATOM     18  N   UNL     1      29.452  27.441  22.479  1.00  0.00    -0.348 N 
ATOM     19  C   UNL     1      28.044  27.249  22.486  1.00  0.00     0.217 C 
ATOM     20  H   UNL     1      29.960  27.262  23.371  1.00  0.00     0.163 HD
ATOM     21  C   UNL     1      27.303  26.810  23.698  1.00  0.00     0.114 C 
ATOM     22  O   UNL     1      27.361  27.447  21.443  1.00  0.00    -0.275 OA
ENDBRANCH   9  18
ENDBRANCH   3   4
BRANCH   3  23
ATOM     23  O   UNL     1      30.151  29.697  19.159  1.00  0.00    -0.388 OA
ATOM     24  H   UNL     1      30.761  29.387  18.424  1.00  0.00     0.211 HD
ENDBRANCH   3  23
ENDBRANCH   2   3
BRANCH   2  25
ATOM     25  O   UNL     1      31.943  31.987  21.237  1.00  0.00    -0.388 OA
ATOM     26  H   UNL     1      31.551  32.323  22.069  1.00  0.00     0.211 HD
ENDBRANCH   2  25
ENDBRANCH   1   2
BRANCH   1  27
ATOM     27  N   UNL     1      28.853  32.346  19.490  1.00  0.00    -0.319 N 
ATOM     28  C   UNL     1      27.713  31.609  19.070  1.00  0.00     0.407 C 
ATOM     29  H   UNL     1      29.121  33.161  18.890  1.00  0.00     0.167 HD
ATOM     30  O   UNL     1      27.309  30.628  19.708  1.00  0.00    -0.225 OA
BRANCH  28  31
ATOM     31  O   UNL     1      27.006  31.959  17.926  1.00  0.00    -0.443 OA
BRANCH  31  32
ATOM     32  C   UNL     1      27.263  31.289  16.701  1.00  0.00     0.294 C 
BRANCH  32  33
ATOM     33  C   UNL     1      28.618  31.685  16.257  1.00  0.00     0.121 A 
ATOM     34  C   UNL     1      28.964  32.800  15.527  1.00  0.00     0.144 A 
ATOM     35  N   UNL     1      29.755  31.002  16.501  1.00  0.00    -0.131 NA
ATOM     36  N   UNL     1      30.295  32.742  15.362  1.00  0.00    -0.220 N 
ATOM     37  N   UNL     1      30.757  31.659  15.952  1.00  0.00    -0.062 NA
BRANCH  36  38
ATOM     38  C   UNL     1      31.069  33.707  14.659  1.00  0.00     0.066 A 
ATOM     39  C   UNL     1      32.340  34.015  15.111  1.00  0.00     0.028 A 
ATOM     40  C   UNL     1      30.563  34.335  13.536  1.00  0.00     0.028 A 
ATOM     41  C   UNL     1      33.065  34.957  14.404  1.00  0.00     0.002 A 
ATOM     42  C   UNL     1      31.296  35.267  12.847  1.00  0.00     0.002 A 
ATOM     43  C   UNL     1      32.562  35.578  13.291  1.00  0.00     0.000 A 
ENDBRANCH  36  38
ENDBRANCH  32  33
ENDBRANCH  31  32
ENDBRANCH  28  31
ENDBRANCH   1  27
TORSDOF 15
BEGIN_RES LYS A 131
REMARK  4 active torsions:
REMARK  status: ('A' for Active; 'I' for Inactive)
REMARK    1  A    between atoms: CA   and  CB  
REMARK    2  A    between atoms: CB   and  CG  
REMARK    3  A    between atoms: CG   and  CD  
REMARK    4  A    between atoms: CD   and  CE  
ROOT
ATOM      1  CA  LYS A 131      29.867  25.555  16.977  1.00 20.52     0.186 C 
ENDROOT
BRANCH   1   2
ATOM      2  CB  LYS A 131      28.345  25.722  17.026  1.00 20.94     0.034 C 
BRANCH   2   3
ATOM      3  CG  LYS A 131      27.602  24.398  16.930  1.00 22.96     0.005 C 
BRANCH   3   4
ATOM      4  CD  LYS A 131      26.155  24.532  17.315  1.00 24.33     0.041 C 
BRANCH   4   5
ATOM      5  CE  LYS A 131      25.861  23.632  18.511  1.00 26.91     0.338 C 
ATOM      6  NZ  LYS A 131      25.512  24.446  19.700  1.00 27.40     0.618 N 
ENDBRANCH   4   5
ENDBRANCH   3   4
ENDBRANCH   2   3
ENDBRANCH   1   2
END_RES LYS A 131
BEGIN_RES LYS A 135
REMARK  4 active torsions:
REMARK  status: ('A' for Active; 'I' for Inactive)
REMARK    5  A    between atoms: CA   and  CB  
REMARK    6  A    between atoms: CB   and  CG  
REMARK    7  A    between atoms: CG   and  CD  
REMARK    8  A    between atoms: CD   and  CE  
ROOT
ATOM      7  CA  LYS A 135      33.193  34.663   9.290  1.00 25.02     0.186 C 
ENDROOT
BRANCH   7   8
ATOM      8  CB  LYS A 135      32.060  35.360  10.034  1.00 26.63     0.034 C 
BRANCH   8   9
ATOM      9  CG  LYS A 135      30.794  35.484   9.225  1.00 29.45     0.005 C 
BRANCH   9  10
ATOM     10  CD  LYS A 135      30.129  34.126   9.059  1.00 32.00     0.041 C 
BRANCH  10  11
ATOM     11  CE  LYS A 135      28.665  34.292   8.698  1.00 34.25     0.338 C 
ATOM     12  NZ  LYS A 135      27.785  33.691   9.738  1.00 35.99     0.618 N 
ENDBRANCH  10  11
ENDBRANCH   9  10
ENDBRANCH   8   9
ENDBRANCH   7   8
END_RES LYS A 135
