REMARK VINA RESULT:    -4.878      4.742      8.896
REMARK INTER + INTRA:         -14.449
REMARK INTER:                  -8.594
REMARK INTRA:                  -5.855
REMARK UNBOUND:                -5.578
REMARK SMILES CC(=O)N[C@@H]1[C@@H](O)C[C@](O)(C(=O)O)O[C@H]1C(O)[C@H](O)CNC(=O)OCc1cn(C(C)(C)C(=O)O)nn1
REMARK SMILES IDX 21 1 22 2 23 3 20 5 18 6 16 7 15 8 9 9 8 10 14 11 6 12 5 13
REMARK SMILES IDX 10 14 11 16 12 17 13 18 7 20 4 22 2 23 1 25 3 26 17 27 19 29
REMARK SMILES IDX 24 31 25 32 26 33 27 34 36 35 28 36 35 37 29 38 30 39 31 40
REMARK SMILES IDX 32 41 33 42 34 43
REMARK H PARENT 21 4 10 15 13 19 7 21 4 24 17 28 19 30 34 44
REMARK Flexibility Score: inf
ROOT
ATOM      1  N   UNL     1      29.024  33.080  18.739  1.00  0.00    -0.319 N 
ATOM      2  C   UNL     1      28.031  32.557  17.877  1.00  0.00     0.407 C 
ATOM      3  O   UNL     1      27.325  31.552  18.231  1.00  0.00    -0.225 OA
ATOM      4  H   UNL     1      29.589  33.898  18.444  1.00  0.00     0.167 HD
ENDROOT
BRANCH   1   5
ATOM      5  C   UNL     1      29.208  32.447  20.020  1.00  0.00     0.154 C 
BRANCH   5   6
ATOM      6  C   UNL     1      30.562  31.881  20.262  1.00  0.00     0.165 C 
BRANCH   6   7
ATOM      7  C   UNL     1      30.720  30.463  19.774  1.00  0.00     0.176 C 
BRANCH   7   8
ATOM      8  C   UNL     1      30.870  29.559  21.004  1.00  0.00     0.178 C 
ATOM      9  C   UNL     1      32.580  28.709  22.332  1.00  0.00     0.269 C 
ATOM     10  C   UNL     1      31.981  27.321  22.267  1.00  0.00     0.112 C 
ATOM     11  O   UNL     1      32.234  29.508  21.269  1.00  0.00    -0.332 OA
ATOM     12  C   UNL     1      31.333  27.103  20.930  1.00  0.00     0.145 C 
ATOM     13  C   UNL     1      30.301  28.190  20.698  1.00  0.00     0.142 C 
BRANCH   9  14
ATOM     14  O   UNL     1      33.971  28.534  22.258  1.00  0.00    -0.357 OA
ATOM     15  H   UNL     1      34.420  29.395  22.346  1.00  0.00     0.214 HD
ENDBRANCH   9  14
BRANCH   9  16
ATOM     16  C   UNL     1      32.271  29.350  23.628  1.00  0.00     0.364 C 
ATOM     17  O   UNL     1      31.729  28.691  24.538  1.00  0.00    -0.246 OA
BRANCH  16  18
ATOM     18  O   UNL     1      32.565  30.682  23.879  1.00  0.00    -0.477 OA
ATOM     19  H   UNL     1      32.088  31.439  23.411  1.00  0.00     0.296 HD
ENDBRANCH  16  18
ENDBRANCH   9  16
BRANCH  12  20
ATOM     20  O   UNL     1      32.234  27.003  19.898  1.00  0.00    -0.391 OA
ATOM     21  H   UNL     1      33.049  27.539  20.009  1.00  0.00     0.211 HD
ENDBRANCH  12  20
BRANCH  13  22
ATOM     22  N   UNL     1      29.173  27.887  21.577  1.00  0.00    -0.348 N 
ATOM     23  C   UNL     1      27.857  27.731  21.063  1.00  0.00     0.217 C 
ATOM     24  H   UNL     1      29.324  27.781  22.602  1.00  0.00     0.163 HD
ATOM     25  C   UNL     1      26.694  27.422  21.946  1.00  0.00     0.114 C 
ATOM     26  O   UNL     1      27.726  27.871  19.806  1.00  0.00    -0.275 OA
ENDBRANCH  13  22
ENDBRANCH   7   8
BRANCH   7  27
ATOM     27  O   UNL     1      29.730  30.019  18.944  1.00  0.00    -0.388 OA
ATOM     28  H   UNL     1      29.942  29.137  18.584  1.00  0.00     0.211 HD
ENDBRANCH   7  27
ENDBRANCH   6   7
BRANCH   6  29
ATOM     29  O   UNL     1      30.746  31.900  21.668  1.00  0.00    -0.388 OA
ATOM     30  H   UNL     1      30.469  32.800  22.007  1.00  0.00     0.211 HD
ENDBRANCH   6  29
ENDBRANCH   5   6
ENDBRANCH   1   5
BRANCH   2  31
ATOM     31  O   UNL     1      27.754  33.069  16.626  1.00  0.00    -0.443 OA
BRANCH  31  32
ATOM     32  C   UNL     1      28.280  32.461  15.433  1.00  0.00     0.294 C 
BRANCH  32  33
ATOM     33  C   UNL     1      29.701  32.877  15.307  1.00  0.00     0.120 A 
ATOM     34  C   UNL     1      30.141  34.094  14.810  1.00  0.00     0.139 A 
ATOM     35  N   UNL     1      30.825  32.209  15.625  1.00  0.00    -0.132 NA
ATOM     36  N   UNL     1      31.493  34.130  14.840  1.00  0.00    -0.235 N 
ATOM     37  N   UNL     1      31.873  32.970  15.341  1.00  0.00    -0.066 NA
BRANCH  36  38
ATOM     38  C   UNL     1      32.320  35.237  14.404  1.00  0.00     0.155 C 
ATOM     39  C   UNL     1      31.994  35.601  12.970  1.00  0.00     0.049 C 
ATOM     40  C   UNL     1      32.075  36.431  15.303  1.00  0.00     0.049 C 
BRANCH  38  41
ATOM     41  C   UNL     1      33.766  34.870  14.440  1.00  0.00     0.331 C 
ATOM     42  O   UNL     1      34.472  35.390  15.341  1.00  0.00    -0.250 OA
BRANCH  41  43
ATOM     43  O   UNL     1      34.329  33.995  13.531  1.00  0.00    -0.479 OA
ATOM     44  H   UNL     1      33.748  33.229  13.200  1.00  0.00     0.296 HD
ENDBRANCH  41  43
ENDBRANCH  38  41
ENDBRANCH  36  38
ENDBRANCH  32  33
ENDBRANCH  31  32
ENDBRANCH   2  31
TORSDOF 17
BEGIN_RES LYS A 131
REMARK  4 active torsions:
REMARK  status: ('A' for Active; 'I' for Inactive)
REMARK    1  A    between atoms: CA   and  CB  
REMARK    2  A    between atoms: CB   and  CG  
REMARK    3  A    between atoms: CG   and  CD  
REMARK    4  A    between atoms: CD   and  CE  
ROOT
ATOM      1  CA  LYS A 131      29.867  25.555  16.977  1.00 20.52     0.186 C 
ENDROOT
BRANCH   1   2
ATOM      2  CB  LYS A 131      28.345  25.722  17.026  1.00 20.94     0.034 C 
BRANCH   2   3
ATOM      3  CG  LYS A 131      27.603  24.395  16.983  1.00 22.96     0.005 C 
BRANCH   3   4
ATOM      4  CD  LYS A 131      26.117  24.572  17.123  1.00 24.33     0.041 C 
BRANCH   4   5
ATOM      5  CE  LYS A 131      25.645  23.913  18.415  1.00 26.91     0.338 C 
ATOM      6  NZ  LYS A 131      25.761  24.857  19.552  1.00 27.40     0.618 N 
ENDBRANCH   4   5
ENDBRANCH   3   4
ENDBRANCH   2   3
ENDBRANCH   1   2
END_RES LYS A 131
BEGIN_RES LYS A 135
REMARK  4 active torsions:
REMARK  status: ('A' for Active; 'I' for Inactive)
REMARK    5  A    between atoms: CA   and  CB  
REMARK    6  A    between atoms: CB   and  CG  
REMARK    7  A    between atoms: CG   and  CD  
REMARK    8  A    between atoms: CD   and  CE  
ROOT
ATOM      7  CA  LYS A 135      33.193  34.663   9.290  1.00 25.02     0.186 C 
ENDROOT
BRANCH   7   8
ATOM      8  CB  LYS A 135      32.060  35.360  10.034  1.00 26.63     0.034 C 
BRANCH   8   9
ATOM      9  CG  LYS A 135      30.704  34.758   9.768  1.00 29.45     0.005 C 
BRANCH   9  10
ATOM     10  CD  LYS A 135      30.479  34.583   8.274  1.00 32.00     0.041 C 
BRANCH  10  11
ATOM     11  CE  LYS A 135      29.027  34.844   7.920  1.00 34.25     0.338 C 
ATOM     12  NZ  LYS A 135      28.912  35.563   6.621  1.00 35.99     0.618 N 
ENDBRANCH  10  11
ENDBRANCH   9  10
ENDBRANCH   8   9
ENDBRANCH   7   8
END_RES LYS A 135
