REMARK VINA RESULT:    -9.267      4.806     10.064
REMARK INTER + INTRA:         -13.652
REMARK INTER:                  -9.223
REMARK INTRA:                  -4.428
REMARK UNBOUND:                 4.555
REMARK SMILES CC(=O)N[C@@H]1[C@@H](O)C[C@](O)(C(=O)O)O[C@H]1C(O)[C@H](O)CNC(=O)OCc1cn(C2CCc3ccccc3NC2=O)nn1
REMARK SMILES IDX 24 1 22 2 21 3 23 5 20 6 18 7 16 8 15 9 9 10 8 11 14 12 6 13
REMARK SMILES IDX 5 14 10 15 11 17 12 18 13 19 7 21 4 23 2 24 1 26 3 27 17 28
REMARK SMILES IDX 19 30 25 32 26 33 27 34 42 35 28 36 41 37 29 38 39 40 38 41
REMARK SMILES IDX 40 42 37 44 32 45 36 46 33 47 35 48 34 49 31 50 30 51
REMARK H PARENT 21 4 10 16 13 20 7 22 4 25 17 29 19 31 38 43
REMARK Flexibility Score: 80.00
ROOT
ATOM      1  O   UNL     1      30.934  30.529  19.693  1.00  0.00    -0.443 OA
ENDROOT
BRANCH   1   2
ATOM      2  C   UNL     1      29.842  30.888  18.941  1.00  0.00     0.407 C 
ATOM      3  N   UNL     1      29.892  30.794  17.509  1.00  0.00    -0.319 N 
ATOM      4  H   UNL     1      30.790  30.441  17.103  1.00  0.00     0.167 HD
ATOM      5  O   UNL     1      28.778  31.307  19.461  1.00  0.00    -0.225 OA
BRANCH   3   6
ATOM      6  C   UNL     1      28.763  31.165  16.677  1.00  0.00     0.154 C 
BRANCH   6   7
ATOM      7  C   UNL     1      29.266  32.048  15.561  1.00  0.00     0.165 C 
BRANCH   7   8
ATOM      8  C   UNL     1      30.637  32.621  15.849  1.00  0.00     0.176 C 
BRANCH   8   9
ATOM      9  C   UNL     1      30.719  34.081  15.376  1.00  0.00     0.178 C 
ATOM     10  C   UNL     1      30.957  35.146  13.299  1.00  0.00     0.269 C 
ATOM     11  C   UNL     1      31.721  36.197  14.043  1.00  0.00     0.112 C 
ATOM     12  O   UNL     1      30.528  34.085  14.048  1.00  0.00    -0.332 OA
ATOM     13  C   UNL     1      32.757  35.458  14.874  1.00  0.00     0.145 C 
ATOM     14  C   UNL     1      32.014  34.623  15.886  1.00  0.00     0.142 C 
BRANCH  10  15
ATOM     15  O   UNL     1      31.810  34.601  12.317  1.00  0.00    -0.357 OA
ATOM     16  H   UNL     1      31.387  34.836  11.451  1.00  0.00     0.214 HD
ENDBRANCH  10  15
BRANCH  10  17
ATOM     17  C   UNL     1      29.781  35.702  12.584  1.00  0.00     0.364 C 
ATOM     18  O   UNL     1      28.792  34.969  12.369  1.00  0.00    -0.246 OA
BRANCH  17  19
ATOM     19  O   UNL     1      29.736  37.021  12.141  1.00  0.00    -0.477 OA
ATOM     20  H   UNL     1      28.830  37.345  11.773  1.00  0.00     0.296 HD
ENDBRANCH  17  19
ENDBRANCH  10  17
BRANCH  13  21
ATOM     21  O   UNL     1      33.446  34.610  14.014  1.00  0.00    -0.391 OA
ATOM     22  H   UNL     1      34.079  35.162  13.495  1.00  0.00     0.211 HD
ENDBRANCH  13  21
BRANCH  14  23
ATOM     23  N   UNL     1      31.720  35.490  17.013  1.00  0.00    -0.348 N 
ATOM     24  C   UNL     1      32.714  36.006  17.886  1.00  0.00     0.217 C 
ATOM     25  H   UNL     1      30.705  35.756  17.200  1.00  0.00     0.163 HD
ATOM     26  C   UNL     1      32.290  36.881  19.004  1.00  0.00     0.114 C 
ATOM     27  O   UNL     1      33.916  35.697  17.674  1.00  0.00    -0.275 OA
ENDBRANCH  14  23
ENDBRANCH   8   9
BRANCH   8  28
ATOM     28  O   UNL     1      31.544  31.875  15.089  1.00  0.00    -0.388 OA
ATOM     29  H   UNL     1      31.183  31.014  14.786  1.00  0.00     0.211 HD
ENDBRANCH   8  28
ENDBRANCH   7   8
BRANCH   7  30
ATOM     30  O   UNL     1      28.360  33.061  15.270  1.00  0.00    -0.388 OA
ATOM     31  H   UNL     1      28.756  33.955  15.332  1.00  0.00     0.211 HD
ENDBRANCH   7  30
ENDBRANCH   6   7
ENDBRANCH   3   6
ENDBRANCH   1   2
BRANCH   1  32
ATOM     32  C   UNL     1      30.796  29.882  20.947  1.00  0.00     0.294 C 
BRANCH  32  33
ATOM     33  C   UNL     1      31.423  30.676  22.033  1.00  0.00     0.120 A 
ATOM     34  C   UNL     1      32.801  30.871  22.176  1.00  0.00     0.139 A 
ATOM     35  N   UNL     1      30.867  31.344  23.060  1.00  0.00    -0.132 NA
ATOM     36  N   UNL     1      33.022  31.630  23.262  1.00  0.00    -0.240 N 
ATOM     37  N   UNL     1      31.838  31.896  23.767  1.00  0.00    -0.066 NA
BRANCH  36  38
ATOM     38  C   UNL     1      34.305  32.060  23.775  1.00  0.00     0.198 CG0
ATOM     39  G   UNL     1      34.497  33.505  23.447  1.00  0.00     0.000 G0
BRANCH  38  40
ATOM     40  C   UNL     1      35.409  31.202  23.262  1.00  0.00     0.249 C 
ATOM     41  N   UNL     1      36.267  31.323  22.142  1.00  0.00    -0.324 N 
ATOM     42  O   UNL     1      35.592  30.186  23.978  1.00  0.00    -0.272 OA
ATOM     43  H   UNL     1      36.799  30.487  21.822  1.00  0.00     0.170 HD
BRANCH  41  44
ATOM     44  C   UNL     1      36.509  32.503  21.355  1.00  0.00     0.044 A 
ATOM     45  C   UNL     1      35.714  33.632  21.274  1.00  0.00    -0.024 A 
ATOM     46  C   UNL     1      37.691  32.385  20.649  1.00  0.00     0.026 A 
ATOM     47  C   UNL     1      36.118  34.651  20.469  1.00  0.00     0.006 A 
ATOM     48  C   UNL     1      38.098  33.420  19.835  1.00  0.00     0.002 A 
ATOM     49  C   UNL     1      37.305  34.542  19.755  1.00  0.00     0.000 A 
BRANCH  45  50
ATOM     50  C   UNL     1      34.429  33.867  21.985  1.00  0.00     0.040 C 
BRANCH  50  51
ATOM     51  C   UNL     1      34.521  33.541  23.466  1.00  0.00     0.042 CG0
ATOM     52  G   UNL     1      34.315  32.087  23.742  1.00  0.00     0.000 G0
ENDBRANCH  50  51
ENDBRANCH  45  50
ENDBRANCH  41  44
ENDBRANCH  38  40
ENDBRANCH  36  38
ENDBRANCH  32  33
ENDBRANCH   1  32
TORSDOF 15
BEGIN_RES LYS A 131
REMARK  4 active torsions:
REMARK  status: ('A' for Active; 'I' for Inactive)
REMARK    1  A    between atoms: CA   and  CB  
REMARK    2  A    between atoms: CB   and  CG  
REMARK    3  A    between atoms: CG   and  CD  
REMARK    4  A    between atoms: CD   and  CE  
ROOT
ATOM      1  CA  LYS A 131      29.867  25.555  16.977  1.00 20.52     0.186 C 
ENDROOT
BRANCH   1   2
ATOM      2  CB  LYS A 131      28.345  25.722  17.026  1.00 20.94     0.034 C 
BRANCH   2   3
ATOM      3  CG  LYS A 131      27.599  24.471  16.588  1.00 22.96     0.005 C 
BRANCH   3   4
ATOM      4  CD  LYS A 131      27.001  23.731  17.753  1.00 24.33     0.041 C 
BRANCH   4   5
ATOM      5  CE  LYS A 131      25.608  23.235  17.380  1.00 26.91     0.338 C 
ATOM      6  NZ  LYS A 131      24.725  24.376  17.039  1.00 27.40     0.618 N 
ENDBRANCH   4   5
ENDBRANCH   3   4
ENDBRANCH   2   3
ENDBRANCH   1   2
END_RES LYS A 131
BEGIN_RES LYS A 135
REMARK  4 active torsions:
REMARK  status: ('A' for Active; 'I' for Inactive)
REMARK    5  A    between atoms: CA   and  CB  
REMARK    6  A    between atoms: CB   and  CG  
REMARK    7  A    between atoms: CG   and  CD  
REMARK    8  A    between atoms: CD   and  CE  
ROOT
ATOM      7  CA  LYS A 135      33.193  34.663   9.290  1.00 25.02     0.186 C 
ENDROOT
BRANCH   7   8
ATOM      8  CB  LYS A 135      32.060  35.360  10.034  1.00 26.63     0.034 C 
BRANCH   8   9
ATOM      9  CG  LYS A 135      30.873  35.679   9.162  1.00 29.45     0.005 C 
BRANCH   9  10
ATOM     10  CD  LYS A 135      30.074  34.421   8.862  1.00 32.00     0.041 C 
BRANCH  10  11
ATOM     11  CE  LYS A 135      28.669  34.776   8.413  1.00 34.25     0.338 C 
ATOM     12  NZ  LYS A 135      27.649  34.034   9.204  1.00 35.99     0.618 N 
ENDBRANCH  10  11
ENDBRANCH   9  10
ENDBRANCH   8   9
ENDBRANCH   7   8
END_RES LYS A 135
