REMARK VINA RESULT:    -6.081      7.657     14.053
REMARK INTER + INTRA:         -15.365
REMARK INTER:                  -8.940
REMARK INTRA:                  -6.425
REMARK UNBOUND:                -3.774
REMARK SMILES CC(=O)N[C@@H]1[C@@H](O)C[C@](O)(C(=O)O)O[C@H]1C(O)[C@H](O)CNC(=O)OCc1cn(COCc2ccccc2)nn1
REMARK SMILES IDX 21 1 22 2 23 3 20 5 18 6 16 7 15 8 9 9 8 10 14 11 6 12 5 13
REMARK SMILES IDX 10 14 11 16 12 17 13 18 7 20 4 22 2 23 1 25 3 26 17 27 19 29
REMARK SMILES IDX 24 31 25 32 26 33 27 34 39 35 28 36 38 37 29 38 30 39 31 40
REMARK SMILES IDX 32 41 33 42 37 43 34 44 36 45 35 46
REMARK H PARENT 21 4 10 15 13 19 7 21 4 24 17 28 19 30
REMARK Flexibility Score: inf
ROOT
ATOM      1  N   UNL     1      25.762  27.076  22.684  1.00  0.00    -0.319 N 
ATOM      2  C   UNL     1      25.174  28.329  22.341  1.00  0.00     0.407 C 
ATOM      3  O   UNL     1      25.467  29.388  22.976  1.00  0.00    -0.225 OA
ATOM      4  H   UNL     1      25.501  26.236  22.145  1.00  0.00     0.167 HD
ENDROOT
BRANCH   1   5
ATOM      5  C   UNL     1      26.705  27.067  23.785  1.00  0.00     0.154 C 
BRANCH   5   6
ATOM      6  C   UNL     1      28.133  27.062  23.309  1.00  0.00     0.165 C 
BRANCH   6   7
ATOM      7  C   UNL     1      28.812  28.357  23.701  1.00  0.00     0.176 C 
BRANCH   7   8
ATOM      8  C   UNL     1      29.954  28.705  22.804  1.00  0.00     0.178 C 
ATOM      9  C   UNL     1      30.392  29.735  20.760  1.00  0.00     0.269 C 
ATOM     10  C   UNL     1      31.693  28.945  20.790  1.00  0.00     0.112 C 
ATOM     11  O   UNL     1      29.430  29.225  21.625  1.00  0.00    -0.332 OA
ATOM     12  C   UNL     1      31.324  27.511  21.102  1.00  0.00     0.145 C 
ATOM     13  C   UNL     1      30.848  27.513  22.545  1.00  0.00     0.142 C 
BRANCH   9  14
ATOM     14  O   UNL     1      29.882  29.566  19.475  1.00  0.00    -0.357 OA
ATOM     15  H   UNL     1      30.271  28.777  19.020  1.00  0.00     0.214 HD
ENDBRANCH   9  14
BRANCH   9  16
ATOM     16  C   UNL     1      30.650  31.163  20.982  1.00  0.00     0.364 C 
ATOM     17  O   UNL     1      31.835  31.576  21.035  1.00  0.00    -0.246 OA
BRANCH  16  18
ATOM     18  O   UNL     1      29.644  32.109  21.142  1.00  0.00    -0.477 OA
ATOM     19  H   UNL     1      29.168  32.147  22.038  1.00  0.00     0.296 HD
ENDBRANCH  16  18
ENDBRANCH   9  16
BRANCH  12  20
ATOM     20  O   UNL     1      30.320  27.044  20.258  1.00  0.00    -0.391 OA
ATOM     21  H   UNL     1      30.252  26.046  20.370  1.00  0.00     0.211 HD
ENDBRANCH  12  20
BRANCH  13  22
ATOM     22  N   UNL     1      32.028  27.617  23.377  1.00  0.00    -0.348 N 
ATOM     23  C   UNL     1      32.141  26.831  24.555  1.00  0.00     0.217 C 
ATOM     24  H   UNL     1      32.833  28.254  23.161  1.00  0.00     0.163 HD
ATOM     25  C   UNL     1      33.332  26.897  25.446  1.00  0.00     0.114 C 
ATOM     26  O   UNL     1      31.221  26.040  24.889  1.00  0.00    -0.275 OA
ENDBRANCH  13  22
ENDBRANCH   7   8
BRANCH   7  27
ATOM     27  O   UNL     1      29.112  28.336  25.041  1.00  0.00    -0.388 OA
ATOM     28  H   UNL     1      28.729  29.166  25.446  1.00  0.00     0.211 HD
ENDBRANCH   7  27
ENDBRANCH   6   7
BRANCH   6  29
ATOM     29  O   UNL     1      28.149  26.873  21.933  1.00  0.00    -0.388 OA
ATOM     30  H   UNL     1      28.724  26.094  21.706  1.00  0.00     0.211 HD
ENDBRANCH   6  29
ENDBRANCH   5   6
ENDBRANCH   1   5
BRANCH   2  31
ATOM     31  O   UNL     1      24.259  28.458  21.305  1.00  0.00    -0.443 OA
BRANCH  31  32
ATOM     32  C   UNL     1      24.286  27.676  20.129  1.00  0.00     0.294 C 
BRANCH  32  33
ATOM     33  C   UNL     1      25.489  27.923  19.304  1.00  0.00     0.120 A 
ATOM     34  C   UNL     1      25.650  28.639  18.136  1.00  0.00     0.141 A 
ATOM     35  N   UNL     1      26.713  27.445  19.589  1.00  0.00    -0.132 NA
ATOM     36  N   UNL     1      26.948  28.578  17.749  1.00  0.00    -0.226 N 
ATOM     37  N   UNL     1      27.556  27.843  18.661  1.00  0.00    -0.065 NA
BRANCH  36  38
ATOM     38  C   UNL     1      27.556  29.199  16.562  1.00  0.00     0.307 C 
BRANCH  38  39
ATOM     39  O   UNL     1      28.464  30.172  16.968  1.00  0.00    -0.355 OA
BRANCH  39  40
ATOM     40  C   UNL     1      29.217  30.661  15.926  1.00  0.00     0.198 C 
BRANCH  40  41
ATOM     41  C   UNL     1      30.101  31.788  16.284  1.00  0.00    -0.022 A 
ATOM     42  C   UNL     1      30.973  32.300  15.344  1.00  0.00     0.006 A 
ATOM     43  C   UNL     1      30.072  32.346  17.537  1.00  0.00     0.006 A 
ATOM     44  C   UNL     1      31.814  33.371  15.659  1.00  0.00     0.000 A 
ATOM     45  C   UNL     1      30.909  33.407  17.844  1.00  0.00     0.000 A 
ATOM     46  C   UNL     1      31.771  33.918  16.926  1.00  0.00     0.000 A 
ENDBRANCH  40  41
ENDBRANCH  39  40
ENDBRANCH  38  39
ENDBRANCH  36  38
ENDBRANCH  32  33
ENDBRANCH  31  32
ENDBRANCH   2  31
TORSDOF 18
BEGIN_RES LYS A 131
REMARK  4 active torsions:
REMARK  status: ('A' for Active; 'I' for Inactive)
REMARK    1  A    between atoms: CA   and  CB  
REMARK    2  A    between atoms: CB   and  CG  
REMARK    3  A    between atoms: CG   and  CD  
REMARK    4  A    between atoms: CD   and  CE  
ROOT
ATOM      1  CA  LYS A 131      29.867  25.555  16.977  1.00 20.52     0.186 C 
ENDROOT
BRANCH   1   2
ATOM      2  CB  LYS A 131      28.345  25.722  17.026  1.00 20.94     0.034 C 
BRANCH   2   3
ATOM      3  CG  LYS A 131      27.601  24.404  16.872  1.00 22.96     0.005 C 
BRANCH   3   4
ATOM      4  CD  LYS A 131      26.177  24.499  17.347  1.00 24.33     0.041 C 
BRANCH   4   5
ATOM      5  CE  LYS A 131      25.951  23.502  18.479  1.00 26.91     0.338 C 
ATOM      6  NZ  LYS A 131      25.518  24.204  19.710  1.00 27.40     0.618 N 
ENDBRANCH   4   5
ENDBRANCH   3   4
ENDBRANCH   2   3
ENDBRANCH   1   2
END_RES LYS A 131
BEGIN_RES LYS A 135
REMARK  4 active torsions:
REMARK  status: ('A' for Active; 'I' for Inactive)
REMARK    5  A    between atoms: CA   and  CB  
REMARK    6  A    between atoms: CB   and  CG  
REMARK    7  A    between atoms: CG   and  CD  
REMARK    8  A    between atoms: CD   and  CE  
ROOT
ATOM      7  CA  LYS A 135      33.193  34.663   9.290  1.00 25.02     0.186 C 
ENDROOT
BRANCH   7   8
ATOM      8  CB  LYS A 135      32.060  35.360  10.034  1.00 26.63     0.034 C 
BRANCH   8   9
ATOM      9  CG  LYS A 135      30.696  34.812   9.703  1.00 29.45     0.005 C 
BRANCH   9  10
ATOM     10  CD  LYS A 135      30.180  35.405   8.401  1.00 32.00     0.041 C 
BRANCH  10  11
ATOM     11  CE  LYS A 135      28.866  34.761   8.006  1.00 34.25     0.338 C 
ATOM     12  NZ  LYS A 135      28.279  35.428   6.810  1.00 35.99     0.618 N 
ENDBRANCH  10  11
ENDBRANCH   9  10
ENDBRANCH   8   9
ENDBRANCH   7   8
END_RES LYS A 135
