REMARK VINA RESULT:    -3.869      3.220      6.897
REMARK INTER + INTRA:         -14.713
REMARK INTER:                  -7.998
REMARK INTRA:                  -6.716
REMARK UNBOUND:                -7.565
REMARK SMILES CC(=O)N[C@@H]1[C@@H](O)C[C@](O)(C(=O)O)O[C@H]1C(O)[C@H](O)CNC(=O)OCc1cn(CC(=O)Nc2ncccn2)nn1
REMARK SMILES IDX 21 1 22 2 23 3 20 5 18 6 16 7 15 8 9 9 8 10 14 11 6 12 5 13
REMARK SMILES IDX 10 14 11 16 12 17 13 18 7 20 4 22 2 23 1 25 3 26 17 27 19 29
REMARK SMILES IDX 24 31 25 32 26 33 27 34 40 35 28 36 39 37 29 38 30 39 31 40
REMARK SMILES IDX 32 41 33 43 34 44 38 45 35 46 37 47 36 48
REMARK H PARENT 21 4 10 15 13 19 7 21 4 24 17 28 19 30 32 42
REMARK Flexibility Score: inf
ROOT
ATOM      1  N   UNL     1      26.243  35.545  12.293  1.00  0.00    -0.319 N 
ATOM      2  C   UNL     1      24.992  35.539  11.585  1.00  0.00     0.407 C 
ATOM      3  O   UNL     1      24.122  34.663  11.817  1.00  0.00    -0.225 OA
ATOM      4  H   UNL     1      26.945  36.275  12.089  1.00  0.00     0.167 HD
ENDROOT
BRANCH   1   5
ATOM      5  C   UNL     1      26.462  34.516  13.271  1.00  0.00     0.154 C 
BRANCH   5   6
ATOM      6  C   UNL     1      27.685  34.749  14.123  1.00  0.00     0.165 C 
BRANCH   6   7
ATOM      7  C   UNL     1      28.878  34.779  13.199  1.00  0.00     0.176 C 
BRANCH   7   8
ATOM      8  C   UNL     1      29.563  36.147  13.224  1.00  0.00     0.178 C 
ATOM      9  C   UNL     1      29.865  38.041  12.033  1.00  0.00     0.269 C 
ATOM     10  C   UNL     1      31.164  38.254  12.721  1.00  0.00     0.112 C 
ATOM     11  O   UNL     1      29.532  36.719  11.975  1.00  0.00    -0.332 OA
ATOM     12  C   UNL     1      31.910  37.001  13.115  1.00  0.00     0.145 C 
ATOM     13  C   UNL     1      31.002  35.936  13.664  1.00  0.00     0.142 C 
BRANCH   9  14
ATOM     14  O   UNL     1      30.006  38.437  10.660  1.00  0.00    -0.357 OA
ATOM     15  H   UNL     1      29.297  39.107  10.455  1.00  0.00     0.214 HD
ENDBRANCH   9  14
BRANCH   9  16
ATOM     16  C   UNL     1      28.791  38.928  12.566  1.00  0.00     0.364 C 
ATOM     17  O   UNL     1      28.975  39.613  13.573  1.00  0.00    -0.246 OA
BRANCH  16  18
ATOM     18  O   UNL     1      27.541  39.016  11.947  1.00  0.00    -0.477 OA
ATOM     19  H   UNL     1      27.055  38.206  11.606  1.00  0.00     0.296 HD
ENDBRANCH  16  18
ENDBRANCH   9  16
BRANCH  12  20
ATOM     20  O   UNL     1      32.584  36.558  11.975  1.00  0.00    -0.391 OA
ATOM     21  H   UNL     1      33.563  36.746  12.029  1.00  0.00     0.211 HD
ENDBRANCH  12  20
BRANCH  13  22
ATOM     22  N   UNL     1      31.036  35.785  15.077  1.00  0.00    -0.348 N 
ATOM     23  C   UNL     1      31.705  34.744  15.768  1.00  0.00     0.217 C 
ATOM     24  H   UNL     1      30.534  36.482  15.681  1.00  0.00     0.163 HD
ATOM     25  C   UNL     1      31.694  34.644  17.260  1.00  0.00     0.114 C 
ATOM     26  O   UNL     1      32.313  33.898  15.088  1.00  0.00    -0.275 OA
ENDBRANCH  13  22
ENDBRANCH   7   8
BRANCH   7  27
ATOM     27  O   UNL     1      29.781  33.774  13.486  1.00  0.00    -0.388 OA
ATOM     28  H   UNL     1      29.331  33.119  14.103  1.00  0.00     0.211 HD
ENDBRANCH   7  27
ENDBRANCH   6   7
BRANCH   6  29
ATOM     29  O   UNL     1      27.769  33.702  15.038  1.00  0.00    -0.388 OA
ATOM     30  H   UNL     1      28.562  33.157  14.784  1.00  0.00     0.211 HD
ENDBRANCH   6  29
ENDBRANCH   5   6
ENDBRANCH   1   5
BRANCH   2  31
ATOM     31  O   UNL     1      24.705  36.490  10.634  1.00  0.00    -0.443 OA
BRANCH  31  32
ATOM     32  C   UNL     1      24.810  36.332   9.249  1.00  0.00     0.294 C 
BRANCH  32  33
ATOM     33  C   UNL     1      26.082  36.907   8.764  1.00  0.00     0.120 A 
ATOM     34  C   UNL     1      26.543  37.015   7.468  1.00  0.00     0.138 A 
ATOM     35  N   UNL     1      27.025  37.445   9.554  1.00  0.00    -0.132 NA
ATOM     36  N   UNL     1      27.734  37.609   7.521  1.00  0.00    -0.243 N 
ATOM     37  N   UNL     1      27.996  37.854   8.792  1.00  0.00    -0.067 NA
BRANCH  36  38
ATOM     38  C   UNL     1      28.559  37.921   6.350  1.00  0.00     0.246 C 
BRANCH  38  39
ATOM     39  C   UNL     1      29.575  38.955   6.709  1.00  0.00     0.248 C 
ATOM     40  O   UNL     1      29.503  40.150   6.378  1.00  0.00    -0.272 OA
ATOM     41  N   UNL     1      30.703  38.540   7.487  1.00  0.00    -0.293 N 
ATOM     42  H   UNL     1      30.790  37.540   7.779  1.00  0.00     0.173 HD
BRANCH  41  43
ATOM     43  C   UNL     1      31.714  39.446   7.882  1.00  0.00     0.229 A 
ATOM     44  N   UNL     1      31.665  40.162   9.022  1.00  0.00    -0.221 NA
ATOM     45  N   UNL     1      32.798  39.630   7.103  1.00  0.00    -0.221 NA
ATOM     46  C   UNL     1      32.644  41.019   9.374  1.00  0.00     0.117 A 
ATOM     47  C   UNL     1      33.797  40.458   7.394  1.00  0.00     0.117 A 
ATOM     48  C   UNL     1      33.747  41.192   8.562  1.00  0.00     0.040 A 
ENDBRANCH  41  43
ENDBRANCH  38  39
ENDBRANCH  36  38
ENDBRANCH  32  33
ENDBRANCH  31  32
ENDBRANCH   2  31
TORSDOF 17
BEGIN_RES LYS A 131
REMARK  4 active torsions:
REMARK  status: ('A' for Active; 'I' for Inactive)
REMARK    1  A    between atoms: CA   and  CB  
REMARK    2  A    between atoms: CB   and  CG  
REMARK    3  A    between atoms: CG   and  CD  
REMARK    4  A    between atoms: CD   and  CE  
ROOT
ATOM      1  CA  LYS A 131      29.867  25.555  16.977  1.00 20.52     0.186 C 
ENDROOT
BRANCH   1   2
ATOM      2  CB  LYS A 131      28.345  25.722  17.026  1.00 20.94     0.034 C 
BRANCH   2   3
ATOM      3  CG  LYS A 131      27.617  24.419  17.316  1.00 22.96     0.005 C 
BRANCH   3   4
ATOM      4  CD  LYS A 131      26.620  24.563  18.433  1.00 24.33     0.041 C 
BRANCH   4   5
ATOM      5  CE  LYS A 131      25.480  23.571  18.229  1.00 26.91     0.338 C 
ATOM      6  NZ  LYS A 131      25.909  22.462  17.344  1.00 27.40     0.618 N 
ENDBRANCH   4   5
ENDBRANCH   3   4
ENDBRANCH   2   3
ENDBRANCH   1   2
END_RES LYS A 131
BEGIN_RES LYS A 135
REMARK  4 active torsions:
REMARK  status: ('A' for Active; 'I' for Inactive)
REMARK    5  A    between atoms: CA   and  CB  
REMARK    6  A    between atoms: CB   and  CG  
REMARK    7  A    between atoms: CG   and  CD  
REMARK    8  A    between atoms: CD   and  CE  
ROOT
ATOM      7  CA  LYS A 135      33.193  34.663   9.290  1.00 25.02     0.186 C 
ENDROOT
BRANCH   7   8
ATOM      8  CB  LYS A 135      32.060  35.360  10.034  1.00 26.63     0.034 C 
BRANCH   8   9
ATOM      9  CG  LYS A 135      30.791  35.475   9.229  1.00 29.45     0.005 C 
BRANCH   9  10
ATOM     10  CD  LYS A 135      30.150  34.108   9.040  1.00 32.00     0.041 C 
BRANCH  10  11
ATOM     11  CE  LYS A 135      28.697  34.254   8.632  1.00 34.25     0.338 C 
ATOM     12  NZ  LYS A 135      27.787  33.747   9.696  1.00 35.99     0.618 N 
ENDBRANCH  10  11
ENDBRANCH   9  10
ENDBRANCH   8   9
ENDBRANCH   7   8
END_RES LYS A 135
