REMARK VINA RESULT:    -5.158      5.339     11.014
REMARK INTER + INTRA:         -16.645
REMARK INTER:                  -6.664
REMARK INTRA:                  -9.981
REMARK UNBOUND:                -5.759
REMARK SMILES CC(=O)N[C@@H]1[C@@H](O)C[C@](O)(C(=O)O)O[C@H]1C(O)[C@H](O)CNC(=O)OCc1cn(CC(=O)NCC(O)Cn2ccnc2[N+](=O)[O-])nn1
REMARK SMILES IDX 25 1 24 2 22 3 21 4 23 6 20 7 18 8 16 9 15 10 9 11 8 12
REMARK SMILES IDX 14 13 6 14 5 15 10 16 11 18 12 19 13 20 7 22 4 24 2 25 1 27
REMARK SMILES IDX 3 28 17 29 19 31 26 33 27 34 46 35 28 36 45 37 29 38 30 39
REMARK SMILES IDX 31 40 32 41 33 43 34 44 35 45 36 47 37 48 38 49 41 50 39 51
REMARK SMILES IDX 40 52 42 53 43 54 44 55
REMARK H PARENT 21 5 10 17 13 21 7 23 4 26 17 30 19 32 32 42 35 46
REMARK Flexibility Score: inf
ROOT
ATOM      1  C   UNL     1      33.547  34.488  20.992  1.00  0.00     0.294 C 
ENDROOT
BRANCH   1   2
ATOM      2  O   UNL     1      32.358  33.910  21.491  1.00  0.00    -0.443 OA
BRANCH   2   3
ATOM      3  C   UNL     1      31.898  32.686  21.038  1.00  0.00     0.407 C 
ATOM      4  N   UNL     1      31.012  32.595  19.910  1.00  0.00    -0.319 N 
ATOM      5  H   UNL     1      30.738  33.496  19.469  1.00  0.00     0.167 HD
ATOM      6  O   UNL     1      32.267  31.658  21.630  1.00  0.00    -0.225 OA
BRANCH   4   7
ATOM      7  C   UNL     1      30.519  31.361  19.400  1.00  0.00     0.154 C 
BRANCH   7   8
ATOM      8  C   UNL     1      30.452  31.285  17.914  1.00  0.00     0.165 C 
BRANCH   8   9
ATOM      9  C   UNL     1      30.611  32.684  17.341  1.00  0.00     0.176 C 
BRANCH   9  10
ATOM     10  C   UNL     1      30.725  32.691  15.850  1.00  0.00     0.178 C 
ATOM     11  C   UNL     1      31.987  34.519  15.149  1.00  0.00     0.269 C 
ATOM     12  C   UNL     1      31.114  34.854  13.948  1.00  0.00     0.112 C 
ATOM     13  O   UNL     1      31.941  33.188  15.459  1.00  0.00    -0.332 OA
ATOM     14  C   UNL     1      30.064  33.767  13.761  1.00  0.00     0.145 C 
ATOM     15  C   UNL     1      29.595  33.393  15.173  1.00  0.00     0.142 C 
BRANCH  11  16
ATOM     16  O   UNL     1      31.488  35.262  16.203  1.00  0.00    -0.357 OA
ATOM     17  H   UNL     1      30.995  36.055  15.873  1.00  0.00     0.214 HD
ENDBRANCH  11  16
BRANCH  11  18
ATOM     18  C   UNL     1      33.397  34.930  14.924  1.00  0.00     0.364 C 
ATOM     19  O   UNL     1      34.037  34.577  13.893  1.00  0.00    -0.246 OA
BRANCH  18  20
ATOM     20  O   UNL     1      34.065  35.723  15.842  1.00  0.00    -0.477 OA
ATOM     21  H   UNL     1      34.214  36.713  15.761  1.00  0.00     0.296 HD
ENDBRANCH  18  20
ENDBRANCH  11  18
BRANCH  14  22
ATOM     22  O   UNL     1      29.030  34.306  13.017  1.00  0.00    -0.391 OA
ATOM     23  H   UNL     1      29.189  34.274  12.047  1.00  0.00     0.211 HD
ENDBRANCH  14  22
BRANCH  15  24
ATOM     24  N   UNL     1      28.412  32.548  15.082  1.00  0.00    -0.348 N 
ATOM     25  C   UNL     1      27.211  32.970  15.685  1.00  0.00     0.217 C 
ATOM     26  H   UNL     1      28.465  31.655  14.586  1.00  0.00     0.163 HD
ATOM     27  C   UNL     1      25.961  32.126  15.614  1.00  0.00     0.114 C 
ATOM     28  O   UNL     1      27.093  34.050  16.310  1.00  0.00    -0.275 OA
ENDBRANCH  15  24
ENDBRANCH   9  10
BRANCH   9  29
ATOM     29  O   UNL     1      29.566  33.508  17.728  1.00  0.00    -0.388 OA
ATOM     30  H   UNL     1      29.825  34.184  18.379  1.00  0.00     0.211 HD
ENDBRANCH   9  29
ENDBRANCH   8   9
BRANCH   8  31
ATOM     31  O   UNL     1      29.290  30.722  17.414  1.00  0.00    -0.388 OA
ATOM     32  H   UNL     1      29.026  29.895  17.900  1.00  0.00     0.211 HD
ENDBRANCH   8  31
ENDBRANCH   7   8
ENDBRANCH   4   7
ENDBRANCH   2   3
ENDBRANCH   1   2
BRANCH   1  33
ATOM     33  C   UNL     1      33.114  35.507  20.004  1.00  0.00     0.120 A 
ATOM     34  C   UNL     1      32.287  36.568  20.301  1.00  0.00     0.138 A 
ATOM     35  N   UNL     1      33.382  35.645  18.698  1.00  0.00    -0.132 NA
ATOM     36  N   UNL     1      32.071  37.321  19.178  1.00  0.00    -0.243 N 
ATOM     37  N   UNL     1      32.750  36.734  18.223  1.00  0.00    -0.067 NA
BRANCH  36  38
ATOM     38  C   UNL     1      31.230  38.497  19.195  1.00  0.00     0.245 C 
BRANCH  38  39
ATOM     39  C   UNL     1      29.891  38.067  18.627  1.00  0.00     0.241 C 
ATOM     40  O   UNL     1      28.866  38.113  19.340  1.00  0.00    -0.273 OA
ATOM     41  N   UNL     1      29.751  37.611  17.314  1.00  0.00    -0.352 N 
ATOM     42  H   UNL     1      30.690  37.625  16.762  1.00  0.00     0.163 HD
BRANCH  41  43
ATOM     43  C   UNL     1      28.605  37.145  16.623  1.00  0.00     0.151 C 
BRANCH  43  44
ATOM     44  C   UNL     1      28.559  37.162  15.164  1.00  0.00     0.168 C 
BRANCH  44  45
ATOM     45  O   UNL     1      27.577  36.285  14.629  1.00  0.00    -0.388 OA
ATOM     46  H   UNL     1      26.873  36.817  14.185  1.00  0.00     0.211 HD
ENDBRANCH  44  45
BRANCH  44  47
ATOM     47  C   UNL     1      28.745  38.401  14.392  1.00  0.00     0.239 C 
BRANCH  47  48
ATOM     48  N   UNL     1      29.666  38.260  13.279  1.00  0.00    -0.227 N 
ATOM     49  C   UNL     1      31.000  38.507  13.321  1.00  0.00     0.204 A 
ATOM     50  C   UNL     1      29.342  37.883  12.029  1.00  0.00     0.434 A 
ATOM     51  C   UNL     1      31.484  38.268  12.049  1.00  0.00     0.245 A 
ATOM     52  N   UNL     1      30.475  37.889  11.263  1.00  0.00    -0.074 NA
BRANCH  50  53
ATOM     53  N   UNL     1      28.077  37.521  11.503  1.00  0.00    -0.047 N 
ATOM     54  O   UNL     1      27.710  36.315  11.635  1.00  0.00    -0.390 OA
ATOM     55  O   UNL     1      27.209  38.340  10.864  1.00  0.00    -0.390 OA
ENDBRANCH  50  53
ENDBRANCH  47  48
ENDBRANCH  44  47
ENDBRANCH  43  44
ENDBRANCH  41  43
ENDBRANCH  38  39
ENDBRANCH  36  38
ENDBRANCH   1  33
TORSDOF 22
BEGIN_RES LYS A 131
REMARK  4 active torsions:
REMARK  status: ('A' for Active; 'I' for Inactive)
REMARK    1  A    between atoms: CA   and  CB  
REMARK    2  A    between atoms: CB   and  CG  
REMARK    3  A    between atoms: CG   and  CD  
REMARK    4  A    between atoms: CD   and  CE  
ROOT
ATOM      1  CA  LYS A 131      29.867  25.555  16.977  1.00 20.52     0.186 C 
ENDROOT
BRANCH   1   2
ATOM      2  CB  LYS A 131      28.345  25.722  17.026  1.00 20.94     0.034 C 
BRANCH   2   3
ATOM      3  CG  LYS A 131      27.602  24.399  16.920  1.00 22.96     0.005 C 
BRANCH   3   4
ATOM      4  CD  LYS A 131      26.154  24.531  17.303  1.00 24.33     0.041 C 
BRANCH   4   5
ATOM      5  CE  LYS A 131      26.044  24.761  18.807  1.00 26.91     0.338 C 
ATOM      6  NZ  LYS A 131      25.376  23.611  19.460  1.00 27.40     0.618 N 
ENDBRANCH   4   5
ENDBRANCH   3   4
ENDBRANCH   2   3
ENDBRANCH   1   2
END_RES LYS A 131
BEGIN_RES LYS A 135
REMARK  4 active torsions:
REMARK  status: ('A' for Active; 'I' for Inactive)
REMARK    5  A    between atoms: CA   and  CB  
REMARK    6  A    between atoms: CB   and  CG  
REMARK    7  A    between atoms: CG   and  CD  
REMARK    8  A    between atoms: CD   and  CE  
ROOT
ATOM      7  CA  LYS A 135      33.193  34.663   9.290  1.00 25.02     0.186 C 
ENDROOT
BRANCH   7   8
ATOM      8  CB  LYS A 135      32.060  35.360  10.034  1.00 26.63     0.034 C 
BRANCH   8   9
ATOM      9  CG  LYS A 135      30.739  34.642   9.930  1.00 29.45     0.005 C 
BRANCH   9  10
ATOM     10  CD  LYS A 135      30.308  34.519   8.477  1.00 32.00     0.041 C 
BRANCH  10  11
ATOM     11  CE  LYS A 135      29.455  35.706   8.072  1.00 34.25     0.338 C 
ATOM     12  NZ  LYS A 135      28.352  35.289   7.163  1.00 35.99     0.618 N 
ENDBRANCH  10  11
ENDBRANCH   9  10
ENDBRANCH   8   9
ENDBRANCH   7   8
END_RES LYS A 135
