REMARK VINA RESULT:    -3.347      4.189      7.984
REMARK INTER + INTRA:         -13.658
REMARK INTER:                  -9.135
REMARK INTRA:                  -4.523
REMARK UNBOUND:                -7.572
REMARK SMILES CC(=O)N[C@@H]1[C@@H](O)C[C@](O)(C(=O)O)O[C@H]1C(O)[C@H](O)CNC(=O)OCc1cn(CCO)nn1
REMARK SMILES IDX 21 1 22 2 23 3 20 5 18 6 16 7 15 8 9 9 8 10 14 11 6 12 5 13
REMARK SMILES IDX 10 14 11 16 12 17 13 18 7 20 4 22 2 23 1 25 3 26 17 27 19 29
REMARK SMILES IDX 24 31 25 32 26 33 27 34 33 35 28 36 32 37 29 38 30 39 31 40
REMARK H PARENT 21 4 10 15 13 19 7 21 4 24 17 28 19 30 31 41
REMARK Flexibility Score: inf
ROOT
ATOM      1  N   UNL     1      24.726  37.930  11.342  1.00  0.00    -0.319 N 
ATOM      2  C   UNL     1      23.346  38.089  11.502  1.00  0.00     0.407 C 
ATOM      3  O   UNL     1      22.693  37.242  12.105  1.00  0.00    -0.225 OA
ATOM      4  H   UNL     1      25.206  38.724  10.798  1.00  0.00     0.167 HD
ENDROOT
BRANCH   1   5
ATOM      5  C   UNL     1      25.575  36.891  11.784  1.00  0.00     0.154 C 
BRANCH   5   6
ATOM      6  C   UNL     1      26.386  36.169  10.755  1.00  0.00     0.165 C 
BRANCH   6   7
ATOM      7  C   UNL     1      26.096  36.641   9.363  1.00  0.00     0.176 C 
BRANCH   7   8
ATOM      8  C   UNL     1      27.096  36.419   8.310  1.00  0.00     0.178 C 
ATOM      9  C   UNL     1      29.260  35.805   7.811  1.00  0.00     0.269 C 
ATOM     10  C   UNL     1      28.645  35.531   6.455  1.00  0.00     0.112 C 
ATOM     11  O   UNL     1      28.317  36.044   8.810  1.00  0.00    -0.332 OA
ATOM     12  C   UNL     1      27.804  36.719   6.007  1.00  0.00     0.145 C 
ATOM     13  C   UNL     1      27.272  37.455   7.253  1.00  0.00     0.142 C 
BRANCH   9  14
ATOM     14  O   UNL     1      30.076  36.932   7.759  1.00  0.00    -0.357 OA
ATOM     15  H   UNL     1      30.285  37.210   6.838  1.00  0.00     0.214 HD
ENDBRANCH   9  14
BRANCH   9  16
ATOM     16  C   UNL     1      30.067  34.653   8.273  1.00  0.00     0.364 C 
ATOM     17  O   UNL     1      29.604  33.748   9.013  1.00  0.00    -0.246 OA
BRANCH  16  18
ATOM     18  O   UNL     1      31.390  34.557   7.880  1.00  0.00    -0.477 OA
ATOM     19  H   UNL     1      31.616  34.372   6.892  1.00  0.00     0.296 HD
ENDBRANCH  16  18
ENDBRANCH   9  16
BRANCH  12  20
ATOM     20  O   UNL     1      28.588  37.566   5.236  1.00  0.00    -0.391 OA
ATOM     21  H   UNL     1      28.430  37.322   4.287  1.00  0.00     0.211 HD
ENDBRANCH  12  20
BRANCH  13  22
ATOM     22  N   UNL     1      26.056  38.153   6.887  1.00  0.00    -0.348 N 
ATOM     23  C   UNL     1      26.079  39.570   6.822  1.00  0.00     0.217 C 
ATOM     24  H   UNL     1      25.165  37.642   6.672  1.00  0.00     0.163 HD
ATOM     25  C   UNL     1      24.879  40.372   6.457  1.00  0.00     0.114 C 
ATOM     26  O   UNL     1      27.141  40.181   7.078  1.00  0.00    -0.275 OA
ENDBRANCH  13  22
ENDBRANCH   7   8
BRANCH   7  27
ATOM     27  O   UNL     1      24.874  35.947   9.028  1.00  0.00    -0.388 OA
ATOM     28  H   UNL     1      25.080  35.275   8.356  1.00  0.00     0.211 HD
ENDBRANCH   7  27
ENDBRANCH   6   7
BRANCH   6  29
ATOM     29  O   UNL     1      26.314  34.824  10.903  1.00  0.00    -0.388 OA
ATOM     30  H   UNL     1      25.417  34.437  10.913  1.00  0.00     0.211 HD
ENDBRANCH   6  29
ENDBRANCH   5   6
ENDBRANCH   1   5
BRANCH   2  31
ATOM     31  O   UNL     1      22.675  39.198  10.991  1.00  0.00    -0.443 OA
BRANCH  31  32
ATOM     32  C   UNL     1      22.763  39.559   9.629  1.00  0.00     0.294 C 
BRANCH  32  33
ATOM     33  C   UNL     1      22.281  38.437   8.787  1.00  0.00     0.120 A 
ATOM     34  C   UNL     1      21.019  37.897   8.759  1.00  0.00     0.138 A 
ATOM     35  N   UNL     1      23.004  37.759   7.907  1.00  0.00    -0.132 NA
ATOM     36  N   UNL     1      21.059  36.910   7.847  1.00  0.00    -0.250 N 
ATOM     37  N   UNL     1      22.269  36.818   7.322  1.00  0.00    -0.067 NA
BRANCH  36  38
ATOM     38  C   UNL     1      19.926  36.074   7.503  1.00  0.00     0.174 C 
BRANCH  38  39
ATOM     39  C   UNL     1      18.643  36.835   7.827  1.00  0.00     0.179 C 
BRANCH  39  40
ATOM     40  O   UNL     1      18.292  37.617   6.707  1.00  0.00    -0.394 OA
ATOM     41  H   UNL     1      18.414  38.591   6.923  1.00  0.00     0.210 HD
ENDBRANCH  39  40
ENDBRANCH  38  39
ENDBRANCH  36  38
ENDBRANCH  32  33
ENDBRANCH  31  32
ENDBRANCH   2  31
TORSDOF 17
BEGIN_RES LYS A 131
REMARK  4 active torsions:
REMARK  status: ('A' for Active; 'I' for Inactive)
REMARK    1  A    between atoms: CA   and  CB  
REMARK    2  A    between atoms: CB   and  CG  
REMARK    3  A    between atoms: CG   and  CD  
REMARK    4  A    between atoms: CD   and  CE  
ROOT
ATOM      1  CA  LYS A 131      29.867  25.555  16.977  1.00 20.52     0.186 C 
ENDROOT
BRANCH   1   2
ATOM      2  CB  LYS A 131      28.345  25.722  17.026  1.00 20.94     0.034 C 
BRANCH   2   3
ATOM      3  CG  LYS A 131      27.601  24.402  16.896  1.00 22.96     0.005 C 
BRANCH   3   4
ATOM      4  CD  LYS A 131      26.626  24.188  18.020  1.00 24.33     0.041 C 
BRANCH   4   5
ATOM      5  CE  LYS A 131      25.617  23.116  17.622  1.00 26.91     0.338 C 
ATOM      6  NZ  LYS A 131      24.251  23.505  18.047  1.00 27.40     0.618 N 
ENDBRANCH   4   5
ENDBRANCH   3   4
ENDBRANCH   2   3
ENDBRANCH   1   2
END_RES LYS A 131
BEGIN_RES LYS A 135
REMARK  4 active torsions:
REMARK  status: ('A' for Active; 'I' for Inactive)
REMARK    5  A    between atoms: CA   and  CB  
REMARK    6  A    between atoms: CB   and  CG  
REMARK    7  A    between atoms: CG   and  CD  
REMARK    8  A    between atoms: CD   and  CE  
ROOT
ATOM      7  CA  LYS A 135      33.193  34.663   9.290  1.00 25.02     0.186 C 
ENDROOT
BRANCH   7   8
ATOM      8  CB  LYS A 135      32.060  35.360  10.034  1.00 26.63     0.034 C 
BRANCH   8   9
ATOM      9  CG  LYS A 135      32.495  36.011  11.321  1.00 29.45     0.005 C 
BRANCH   9  10
ATOM     10  CD  LYS A 135      31.566  35.622  12.461  1.00 32.00     0.041 C 
BRANCH  10  11
ATOM     11  CE  LYS A 135      30.128  35.567  11.980  1.00 34.25     0.338 C 
ATOM     12  NZ  LYS A 135      29.339  34.576  12.763  1.00 35.99     0.618 N 
ENDBRANCH  10  11
ENDBRANCH   9  10
ENDBRANCH   8   9
ENDBRANCH   7   8
END_RES LYS A 135
