REMARK VINA RESULT:    -5.016      4.916      9.218
REMARK INTER + INTRA:         -15.084
REMARK INTER:                  -8.680
REMARK INTRA:                  -6.404
REMARK UNBOUND:                -5.964
REMARK SMILES CC(=O)N[C@@H]1[C@@H](O)C[C@](O)(C(=O)O)O[C@H]1C(O)[C@H](O)CNC(=O)OCc1cn(-c2ccc(S(N)(=O)=O)cc2)nn1
REMARK SMILES IDX 21 1 22 2 23 3 20 5 18 6 16 7 15 8 9 9 8 10 14 11 6 12 5 13
REMARK SMILES IDX 10 14 11 16 12 17 13 18 7 20 4 22 2 23 1 25 3 26 17 27 19 29
REMARK SMILES IDX 24 31 25 32 26 33 27 34 40 35 28 36 39 37 29 38 30 39 38 40
REMARK SMILES IDX 31 41 37 42 32 43 33 44 35 45 36 46 34 47
REMARK H PARENT 21 4 10 15 13 19 7 21 4 24 17 28 19 30 34 48 34 49
REMARK Flexibility Score: inf
ROOT
ATOM      1  N   UNL     1      24.440  30.078  18.559  1.00  0.00    -0.319 N 
ATOM      2  C   UNL     1      24.863  28.742  18.591  1.00  0.00     0.407 C 
ATOM      3  O   UNL     1      24.040  27.812  18.605  1.00  0.00    -0.225 OA
ATOM      4  H   UNL     1      25.190  30.822  18.546  1.00  0.00     0.167 HD
ENDROOT
BRANCH   1   5
ATOM      5  C   UNL     1      23.067  30.443  18.544  1.00  0.00     0.154 C 
BRANCH   5   6
ATOM      6  C   UNL     1      22.611  31.003  17.202  1.00  0.00     0.165 C 
BRANCH   6   7
ATOM      7  C   UNL     1      21.890  29.917  16.457  1.00  0.00     0.176 C 
BRANCH   7   8
ATOM      8  C   UNL     1      22.198  29.849  15.010  1.00  0.00     0.178 C 
ATOM      9  C   UNL     1      22.463  31.277  13.187  1.00  0.00     0.269 C 
ATOM     10  C   UNL     1      23.016  29.991  12.624  1.00  0.00     0.112 C 
ATOM     11  O   UNL     1      22.023  31.154  14.476  1.00  0.00    -0.332 OA
ATOM     12  C   UNL     1      22.110  28.817  12.831  1.00  0.00     0.145 C 
ATOM     13  C   UNL     1      21.387  28.955  14.148  1.00  0.00     0.142 C 
BRANCH   9  14
ATOM     14  O   UNL     1      21.468  31.817  12.337  1.00  0.00    -0.357 OA
ATOM     15  H   UNL     1      21.307  31.220  11.564  1.00  0.00     0.214 HD
ENDBRANCH   9  14
BRANCH   9  16
ATOM     16  C   UNL     1      23.572  32.268  13.174  1.00  0.00     0.364 C 
ATOM     17  O   UNL     1      23.445  33.289  12.452  1.00  0.00    -0.246 OA
BRANCH  16  18
ATOM     18  O   UNL     1      24.737  32.136  13.907  1.00  0.00    -0.477 OA
ATOM     19  H   UNL     1      25.600  32.580  13.601  1.00  0.00     0.296 HD
ENDBRANCH  16  18
ENDBRANCH   9  16
BRANCH  12  20
ATOM     20  O   UNL     1      21.246  28.735  11.746  1.00  0.00    -0.391 OA
ATOM     21  H   UNL     1      21.739  28.257  11.031  1.00  0.00     0.211 HD
ENDBRANCH  12  20
BRANCH  13  22
ATOM     22  N   UNL     1      20.939  27.728  14.687  1.00  0.00    -0.348 N 
ATOM     23  C   UNL     1      19.682  27.168  14.363  1.00  0.00     0.217 C 
ATOM     24  H   UNL     1      21.545  27.185  15.333  1.00  0.00     0.163 HD
ATOM     25  C   UNL     1      19.219  25.861  14.946  1.00  0.00     0.114 C 
ATOM     26  O   UNL     1      18.954  27.793  13.571  1.00  0.00    -0.275 OA
ENDBRANCH  13  22
ENDBRANCH   7   8
BRANCH   7  27
ATOM     27  O   UNL     1      21.730  28.734  17.127  1.00  0.00    -0.388 OA
ATOM     28  H   UNL     1      21.662  28.916  18.091  1.00  0.00     0.211 HD
ENDBRANCH   7  27
ENDBRANCH   6   7
BRANCH   6  29
ATOM     29  O   UNL     1      23.689  31.551  16.560  1.00  0.00    -0.388 OA
ATOM     30  H   UNL     1      23.664  32.545  16.629  1.00  0.00     0.211 HD
ENDBRANCH   6  29
ENDBRANCH   5   6
ENDBRANCH   1   5
BRANCH   2  31
ATOM     31  O   UNL     1      26.220  28.382  18.610  1.00  0.00    -0.443 OA
BRANCH  31  32
ATOM     32  C   UNL     1      26.917  28.142  17.428  1.00  0.00     0.294 C 
BRANCH  32  33
ATOM     33  C   UNL     1      27.281  29.394  16.729  1.00  0.00     0.121 A 
ATOM     34  C   UNL     1      28.490  30.042  16.645  1.00  0.00     0.144 A 
ATOM     35  N   UNL     1      26.414  30.151  16.010  1.00  0.00    -0.131 NA
ATOM     36  N   UNL     1      28.351  31.152  15.897  1.00  0.00    -0.220 N 
ATOM     37  N   UNL     1      27.085  31.184  15.532  1.00  0.00    -0.062 NA
BRANCH  36  38
ATOM     38  C   UNL     1      29.336  32.119  15.547  1.00  0.00     0.066 A 
ATOM     39  C   UNL     1      30.679  31.897  15.760  1.00  0.00     0.030 A 
ATOM     40  C   UNL     1      28.982  33.329  14.979  1.00  0.00     0.030 A 
ATOM     41  C   UNL     1      31.643  32.823  15.427  1.00  0.00     0.024 A 
ATOM     42  C   UNL     1      29.944  34.258  14.644  1.00  0.00     0.024 A 
ATOM     43  C   UNL     1      31.291  34.048  14.852  1.00  0.00     0.082 A 
BRANCH  43  44
ATOM     44  S   UNL     1      32.519  35.221  14.433  1.00  0.00     0.238 S 
ATOM     45  O   UNL     1      31.825  36.538  14.233  1.00  0.00    -0.207 OA
ATOM     46  O   UNL     1      33.442  35.393  15.617  1.00  0.00    -0.207 OA
BRANCH  44  47
ATOM     47  N   UNL     1      33.400  34.788  13.030  1.00  0.00    -0.225 NA
ATOM     48  H   UNL     1      34.038  35.509  12.675  1.00  0.00     0.137 HD
ATOM     49  H   UNL     1      33.863  33.856  13.124  1.00  0.00     0.137 HD
ENDBRANCH  44  47
ENDBRANCH  43  44
ENDBRANCH  36  38
ENDBRANCH  32  33
ENDBRANCH  31  32
ENDBRANCH   2  31
TORSDOF 17
BEGIN_RES LYS A 131
REMARK  4 active torsions:
REMARK  status: ('A' for Active; 'I' for Inactive)
REMARK    1  A    between atoms: CA   and  CB  
REMARK    2  A    between atoms: CB   and  CG  
REMARK    3  A    between atoms: CG   and  CD  
REMARK    4  A    between atoms: CD   and  CE  
ROOT
ATOM      1  CA  LYS A 131      29.867  25.555  16.977  1.00 20.52     0.186 C 
ENDROOT
BRANCH   1   2
ATOM      2  CB  LYS A 131      28.345  25.722  17.026  1.00 20.94     0.034 C 
BRANCH   2   3
ATOM      3  CG  LYS A 131      27.600  24.407  16.853  1.00 22.96     0.005 C 
BRANCH   3   4
ATOM      4  CD  LYS A 131      26.476  24.259  17.840  1.00 24.33     0.041 C 
BRANCH   4   5
ATOM      5  CE  LYS A 131      25.154  24.602  17.160  1.00 26.91     0.338 C 
ATOM      6  NZ  LYS A 131      24.136  23.565  17.453  1.00 27.40     0.618 N 
ENDBRANCH   4   5
ENDBRANCH   3   4
ENDBRANCH   2   3
ENDBRANCH   1   2
END_RES LYS A 131
BEGIN_RES LYS A 135
REMARK  4 active torsions:
REMARK  status: ('A' for Active; 'I' for Inactive)
REMARK    5  A    between atoms: CA   and  CB  
REMARK    6  A    between atoms: CB   and  CG  
REMARK    7  A    between atoms: CG   and  CD  
REMARK    8  A    between atoms: CD   and  CE  
ROOT
ATOM      7  CA  LYS A 135      33.193  34.663   9.290  1.00 25.02     0.186 C 
ENDROOT
BRANCH   7   8
ATOM      8  CB  LYS A 135      32.060  35.360  10.034  1.00 26.63     0.034 C 
BRANCH   8   9
ATOM      9  CG  LYS A 135      30.708  34.742   9.788  1.00 29.45     0.005 C 
BRANCH   9  10
ATOM     10  CD  LYS A 135      30.487  34.509   8.301  1.00 32.00     0.041 C 
BRANCH  10  11
ATOM     11  CE  LYS A 135      29.064  34.864   7.912  1.00 34.25     0.338 C 
ATOM     12  NZ  LYS A 135      28.183  34.938   9.110  1.00 35.99     0.618 N 
ENDBRANCH  10  11
ENDBRANCH   9  10
ENDBRANCH   8   9
ENDBRANCH   7   8
END_RES LYS A 135
