REMARK VINA RESULT:    -5.003      0.000      0.000
REMARK INTER + INTRA:         -14.944
REMARK INTER:                  -9.395
REMARK INTRA:                  -5.548
REMARK UNBOUND:                -6.285
REMARK SMILES CC(=O)N[C@@H]1[C@@H](O)C[C@](O)(C(=O)O)O[C@H]1C(O)[C@H](O)CNC(=O)OCc1cn(-c2ccccc2I)nn1
REMARK SMILES IDX 20 1 18 2 16 3 15 4 9 5 8 6 14 7 6 8 5 9 10 10 11 12 12 13
REMARK SMILES IDX 13 14 7 16 4 18 2 19 1 21 3 22 17 23 19 25 21 27 22 28 23 30
REMARK SMILES IDX 24 31 25 32 26 33 27 34 37 35 28 36 36 37 29 38 30 39 34 40
REMARK SMILES IDX 31 41 33 42 35 43 32 44
REMARK H PARENT 10 11 13 15 7 17 4 20 17 24 19 26 21 29
REMARK Flexibility Score: inf
ROOT
ATOM      1  C   UNL     1      30.580  32.926  14.657  1.00  0.00     0.154 C 
ENDROOT
BRANCH   1   2
ATOM      2  C   UNL     1      31.495  32.899  15.859  1.00  0.00     0.165 C 
BRANCH   2   3
ATOM      3  C   UNL     1      30.710  32.807  17.120  1.00  0.00     0.176 C 
BRANCH   3   4
ATOM      4  C   UNL     1      30.410  31.414  17.609  1.00  0.00     0.178 C 
ATOM      5  C   UNL     1      28.179  30.797  17.164  1.00  0.00     0.269 C 
ATOM      6  C   UNL     1      27.957  30.448  18.621  1.00  0.00     0.112 C 
ATOM      7  O   UNL     1      29.471  30.888  16.786  1.00  0.00    -0.332 OA
ATOM      8  C   UNL     1      28.768  31.422  19.435  1.00  0.00     0.145 C 
ATOM      9  C   UNL     1      30.218  31.246  19.063  1.00  0.00     0.142 C 
BRANCH   5  10
ATOM     10  O   UNL     1      27.573  32.040  16.977  1.00  0.00    -0.357 OA
ATOM     11  H   UNL     1      26.600  31.916  17.194  1.00  0.00     0.214 HD
ENDBRANCH   5  10
BRANCH   5  12
ATOM     12  C   UNL     1      27.404  29.802  16.358  1.00  0.00     0.364 C 
ATOM     13  O   UNL     1      27.460  28.569  16.557  1.00  0.00    -0.246 OA
BRANCH  12  14
ATOM     14  O   UNL     1      26.593  30.271  15.347  1.00  0.00    -0.477 OA
ATOM     15  H   UNL     1      26.150  31.192  15.371  1.00  0.00     0.296 HD
ENDBRANCH  12  14
ENDBRANCH   5  12
BRANCH   8  16
ATOM     16  O   UNL     1      28.282  32.697  19.136  1.00  0.00    -0.391 OA
ATOM     17  H   UNL     1      27.300  32.755  19.235  1.00  0.00     0.211 HD
ENDBRANCH   8  16
BRANCH   9  18
ATOM     18  N   UNL     1      30.587  29.877  19.466  1.00  0.00    -0.348 N 
ATOM     19  C   UNL     1      31.474  29.626  20.541  1.00  0.00     0.217 C 
ATOM     20  H   UNL     1      30.194  29.062  18.954  1.00  0.00     0.163 HD
ATOM     21  C   UNL     1      31.794  28.222  20.884  1.00  0.00     0.114 C 
ATOM     22  O   UNL     1      31.988  30.577  21.203  1.00  0.00    -0.275 OA
ENDBRANCH   9  18
ENDBRANCH   3   4
BRANCH   3  23
ATOM     23  O   UNL     1      31.172  33.665  18.108  1.00  0.00    -0.388 OA
ATOM     24  H   UNL     1      30.605  34.484  18.180  1.00  0.00     0.211 HD
ENDBRANCH   3  23
ENDBRANCH   2   3
BRANCH   2  25
ATOM     25  O   UNL     1      32.231  34.111  15.797  1.00  0.00    -0.388 OA
ATOM     26  H   UNL     1      33.204  33.901  15.823  1.00  0.00     0.211 HD
ENDBRANCH   2  25
ENDBRANCH   1   2
BRANCH   1  27
ATOM     27  N   UNL     1      29.313  33.578  14.902  1.00  0.00    -0.319 N 
ATOM     28  C   UNL     1      28.919  34.660  14.054  1.00  0.00     0.407 C 
ATOM     29  H   UNL     1      28.722  33.240  15.680  1.00  0.00     0.167 HD
ATOM     30  O   UNL     1      29.684  35.001  13.136  1.00  0.00    -0.225 OA
BRANCH  28  31
ATOM     31  O   UNL     1      27.701  35.267  14.310  1.00  0.00    -0.443 OA
BRANCH  31  32
ATOM     32  C   UNL     1      26.660  35.116  13.380  1.00  0.00     0.294 C 
BRANCH  32  33
ATOM     33  C   UNL     1      25.834  33.957  13.798  1.00  0.00     0.121 A 
ATOM     34  C   UNL     1      25.048  33.198  12.923  1.00  0.00     0.144 A 
ATOM     35  N   UNL     1      25.661  33.414  15.008  1.00  0.00    -0.131 NA
ATOM     36  N   UNL     1      24.470  32.263  13.684  1.00  0.00    -0.219 N 
ATOM     37  N   UNL     1      24.834  32.384  14.946  1.00  0.00    -0.062 NA
BRANCH  36  38
ATOM     38  C   UNL     1      23.583  31.267  13.208  1.00  0.00     0.080 A 
ATOM     39  C   UNL     1      24.064  29.974  13.011  1.00  0.00     0.029 A 
ATOM     40  C   UNL     1      22.279  31.594  12.953  1.00  0.00     0.039 A 
ATOM     41  C   UNL     1      23.207  28.998  12.548  1.00  0.00     0.002 A 
ATOM     42  C   UNL     1      21.436  30.602  12.488  1.00  0.00     0.017 A 
ATOM     43  I   UNL     1      21.507  33.533  13.233  1.00  0.00    -0.042 I 
ATOM     44  C   UNL     1      21.892  29.311  12.286  1.00  0.00     0.001 A 
ENDBRANCH  36  38
ENDBRANCH  32  33
ENDBRANCH  31  32
ENDBRANCH  28  31
ENDBRANCH   1  27
TORSDOF 15
BEGIN_RES LYS A 131
REMARK  4 active torsions:
REMARK  status: ('A' for Active; 'I' for Inactive)
REMARK    1  A    between atoms: CA   and  CB  
REMARK    2  A    between atoms: CB   and  CG  
REMARK    3  A    between atoms: CG   and  CD  
REMARK    4  A    between atoms: CD   and  CE  
ROOT
ATOM      1  CA  LYS A 131      29.867  25.555  16.977  1.00 20.52     0.186 C 
ENDROOT
BRANCH   1   2
ATOM      2  CB  LYS A 131      28.345  25.722  17.026  1.00 20.94     0.034 C 
BRANCH   2   3
ATOM      3  CG  LYS A 131      27.601  24.400  16.908  1.00 22.96     0.005 C 
BRANCH   3   4
ATOM      4  CD  LYS A 131      26.531  24.258  17.954  1.00 24.33     0.041 C 
BRANCH   4   5
ATOM      5  CE  LYS A 131      25.210  24.787  17.406  1.00 26.91     0.338 C 
ATOM      6  NZ  LYS A 131      24.828  26.043  18.094  1.00 27.40     0.618 N 
ENDBRANCH   4   5
ENDBRANCH   3   4
ENDBRANCH   2   3
ENDBRANCH   1   2
END_RES LYS A 131
BEGIN_RES LYS A 135
REMARK  4 active torsions:
REMARK  status: ('A' for Active; 'I' for Inactive)
REMARK    5  A    between atoms: CA   and  CB  
REMARK    6  A    between atoms: CB   and  CG  
REMARK    7  A    between atoms: CG   and  CD  
REMARK    8  A    between atoms: CD   and  CE  
ROOT
ATOM      7  CA  LYS A 135      33.193  34.663   9.290  1.00 25.02     0.186 C 
ENDROOT
BRANCH   7   8
ATOM      8  CB  LYS A 135      32.060  35.360  10.034  1.00 26.63     0.034 C 
BRANCH   8   9
ATOM      9  CG  LYS A 135      30.775  35.427   9.249  1.00 29.45     0.005 C 
BRANCH   9  10
ATOM     10  CD  LYS A 135      30.199  34.035   9.044  1.00 32.00     0.041 C 
BRANCH  10  11
ATOM     11  CE  LYS A 135      28.711  34.025   9.338  1.00 34.25     0.338 C 
ATOM     12  NZ  LYS A 135      28.271  35.325   9.918  1.00 35.99     0.618 N 
ENDBRANCH  10  11
ENDBRANCH   9  10
ENDBRANCH   8   9
ENDBRANCH   7   8
END_RES LYS A 135
