REMARK VINA RESULT:    -5.416      2.177      3.791
REMARK INTER + INTRA:         -14.535
REMARK INTER:                  -8.933
REMARK INTRA:                  -5.602
REMARK UNBOUND:                -5.161
REMARK SMILES CC(=O)N[C@@H]1[C@@H](O)C[C@](O)(C(=O)O)O[C@H]1C(O)[C@H](O)CNC(=O)OCc1cn(-c2ccc(Br)cc2)nn1
REMARK SMILES IDX 20 1 18 2 16 3 15 4 9 5 8 6 14 7 6 8 5 9 10 10 11 12 12 13
REMARK SMILES IDX 13 14 7 16 4 18 2 19 1 21 3 22 17 23 19 25 21 27 22 28 23 30
REMARK SMILES IDX 24 31 25 32 26 33 27 34 37 35 28 36 36 37 29 38 30 39 35 40
REMARK SMILES IDX 31 41 34 42 32 43 33 44
REMARK H PARENT 10 11 13 15 7 17 4 20 17 24 19 26 21 29
REMARK Flexibility Score: inf
ROOT
ATOM      1  C   UNL     1      26.568  27.978  21.771  1.00  0.00     0.154 C 
ENDROOT
BRANCH   1   2
ATOM      2  C   UNL     1      27.619  28.790  22.467  1.00  0.00     0.165 C 
BRANCH   2   3
ATOM      3  C   UNL     1      28.722  28.009  23.091  1.00  0.00     0.176 C 
BRANCH   3   4
ATOM      4  C   UNL     1      30.110  28.452  22.677  1.00  0.00     0.178 C 
ATOM      5  C   UNL     1      31.038  29.636  20.877  1.00  0.00     0.269 C 
ATOM      6  C   UNL     1      32.231  28.737  21.048  1.00  0.00     0.112 C 
ATOM      7  O   UNL     1      29.939  29.128  21.474  1.00  0.00    -0.332 OA
ATOM      8  C   UNL     1      31.729  27.318  21.175  1.00  0.00     0.145 C 
ATOM      9  C   UNL     1      30.964  27.228  22.503  1.00  0.00     0.142 C 
BRANCH   5  10
ATOM     10  O   UNL     1      30.739  29.738  19.489  1.00  0.00    -0.357 OA
ATOM     11  H   UNL     1      30.031  30.431  19.435  1.00  0.00     0.214 HD
ENDBRANCH   5  10
BRANCH   5  12
ATOM     12  C   UNL     1      31.305  31.006  21.397  1.00  0.00     0.364 C 
ATOM     13  O   UNL     1      30.411  31.841  21.618  1.00  0.00    -0.246 OA
BRANCH  12  14
ATOM     14  O   UNL     1      32.613  31.378  21.651  1.00  0.00    -0.477 OA
ATOM     15  H   UNL     1      33.365  31.267  20.969  1.00  0.00     0.296 HD
ENDBRANCH  12  14
ENDBRANCH   5  12
BRANCH   8  16
ATOM     16  O   UNL     1      30.785  27.117  20.170  1.00  0.00    -0.391 OA
ATOM     17  H   UNL     1      31.032  27.521  19.316  1.00  0.00     0.211 HD
ENDBRANCH   8  16
BRANCH   9  18
ATOM     18  N   UNL     1      31.977  27.207  23.521  1.00  0.00    -0.348 N 
ATOM     19  C   UNL     1      31.861  26.506  24.745  1.00  0.00     0.217 C 
ATOM     20  H   UNL     1      32.877  27.736  23.378  1.00  0.00     0.163 HD
ATOM     21  C   UNL     1      32.942  26.517  25.776  1.00  0.00     0.114 C 
ATOM     22  O   UNL     1      30.821  25.856  24.973  1.00  0.00    -0.275 OA
ENDBRANCH   9  18
ENDBRANCH   3   4
BRANCH   3  23
ATOM     23  O   UNL     1      28.535  26.645  22.755  1.00  0.00    -0.388 OA
ATOM     24  H   UNL     1      28.403  26.157  23.595  1.00  0.00     0.211 HD
ENDBRANCH   3  23
ENDBRANCH   2   3
BRANCH   2  25
ATOM     25  O   UNL     1      26.973  29.540  23.473  1.00  0.00    -0.388 OA
ATOM     26  H   UNL     1      27.252  29.235  24.372  1.00  0.00     0.211 HD
ENDBRANCH   2  25
ENDBRANCH   1   2
BRANCH   1  27
ATOM     27  N   UNL     1      26.357  28.289  20.395  1.00  0.00    -0.319 N 
ATOM     28  C   UNL     1      27.194  27.691  19.384  1.00  0.00     0.407 C 
ATOM     29  H   UNL     1      25.636  28.935  20.015  1.00  0.00     0.167 HD
ATOM     30  O   UNL     1      28.094  26.905  19.764  1.00  0.00    -0.225 OA
BRANCH  28  31
ATOM     31  O   UNL     1      27.012  27.974  18.039  1.00  0.00    -0.443 OA
BRANCH  31  32
ATOM     32  C   UNL     1      26.576  29.291  17.729  1.00  0.00     0.294 C 
BRANCH  32  33
ATOM     33  C   UNL     1      27.689  29.951  16.988  1.00  0.00     0.121 A 
ATOM     34  C   UNL     1      28.425  31.043  17.406  1.00  0.00     0.144 A 
ATOM     35  N   UNL     1      28.196  29.622  15.784  1.00  0.00    -0.131 NA
ATOM     36  N   UNL     1      29.337  31.340  16.465  1.00  0.00    -0.220 N 
ATOM     37  N   UNL     1      29.165  30.460  15.506  1.00  0.00    -0.062 NA
BRANCH  36  38
ATOM     38  C   UNL     1      30.316  32.375  16.442  1.00  0.00     0.066 A 
ATOM     39  C   UNL     1      31.054  32.668  15.312  1.00  0.00     0.029 A 
ATOM     40  C   UNL     1      30.567  33.136  17.565  1.00  0.00     0.029 A 
ATOM     41  C   UNL     1      32.000  33.676  15.304  1.00  0.00     0.018 A 
ATOM     42  C   UNL     1      31.517  34.150  17.563  1.00  0.00     0.018 A 
ATOM     43  C   UNL     1      32.248  34.436  16.434  1.00  0.00     0.018 A 
ATOM     44  Br  UNL     1      33.563  35.813  16.368  1.00  0.00    -0.051 Br
ENDBRANCH  36  38
ENDBRANCH  32  33
ENDBRANCH  31  32
ENDBRANCH  28  31
ENDBRANCH   1  27
TORSDOF 15
BEGIN_RES LYS A 131
REMARK  4 active torsions:
REMARK  status: ('A' for Active; 'I' for Inactive)
REMARK    1  A    between atoms: CA   and  CB  
REMARK    2  A    between atoms: CB   and  CG  
REMARK    3  A    between atoms: CG   and  CD  
REMARK    4  A    between atoms: CD   and  CE  
ROOT
ATOM      1  CA  LYS A 131      29.867  25.555  16.977  1.00 20.52     0.186 C 
ENDROOT
BRANCH   1   2
ATOM      2  CB  LYS A 131      28.345  25.722  17.026  1.00 20.94     0.034 C 
BRANCH   2   3
ATOM      3  CG  LYS A 131      27.601  24.403  16.887  1.00 22.96     0.005 C 
BRANCH   3   4
ATOM      4  CD  LYS A 131      26.621  24.185  18.007  1.00 24.33     0.041 C 
BRANCH   4   5
ATOM      5  CE  LYS A 131      25.200  24.235  17.456  1.00 26.91     0.338 C 
ATOM      6  NZ  LYS A 131      24.641  25.602  17.585  1.00 27.40     0.618 N 
ENDBRANCH   4   5
ENDBRANCH   3   4
ENDBRANCH   2   3
ENDBRANCH   1   2
END_RES LYS A 131
BEGIN_RES LYS A 135
REMARK  4 active torsions:
REMARK  status: ('A' for Active; 'I' for Inactive)
REMARK    5  A    between atoms: CA   and  CB  
REMARK    6  A    between atoms: CB   and  CG  
REMARK    7  A    between atoms: CG   and  CD  
REMARK    8  A    between atoms: CD   and  CE  
ROOT
ATOM      7  CA  LYS A 135      33.193  34.663   9.290  1.00 25.02     0.186 C 
ENDROOT
BRANCH   7   8
ATOM      8  CB  LYS A 135      32.060  35.360  10.034  1.00 26.63     0.034 C 
BRANCH   8   9
ATOM      9  CG  LYS A 135      30.905  35.747   9.147  1.00 29.45     0.005 C 
BRANCH   9  10
ATOM     10  CD  LYS A 135      30.413  34.546   8.353  1.00 32.00     0.041 C 
BRANCH  10  11
ATOM     11  CE  LYS A 135      29.182  34.911   7.545  1.00 34.25     0.338 C 
ATOM     12  NZ  LYS A 135      27.940  34.731   8.347  1.00 35.99     0.618 N 
ENDBRANCH  10  11
ENDBRANCH   9  10
ENDBRANCH   8   9
ENDBRANCH   7   8
END_RES LYS A 135
