REMARK VINA RESULT:    -5.316      4.490      9.053
REMARK INTER + INTRA:         -13.687
REMARK INTER:                  -7.587
REMARK INTRA:                  -6.099
REMARK UNBOUND:                -4.485
REMARK SMILES CC(=O)N[C@@H]1[C@@H](O)C[C@](O)(C(=O)O)O[C@H]1C(O)[C@H](O)CNC(=O)OCc1cn(-c2ccccc2)nn1
REMARK SMILES IDX 20 1 18 2 16 3 15 4 9 5 8 6 14 7 6 8 5 9 10 10 11 12 12 13
REMARK SMILES IDX 13 14 7 16 4 18 2 19 1 21 3 22 17 23 19 25 21 27 22 28 23 30
REMARK SMILES IDX 24 31 25 32 26 33 27 34 36 35 28 36 35 37 29 38 30 39 34 40
REMARK SMILES IDX 31 41 33 42 32 43
REMARK H PARENT 10 11 13 15 7 17 4 20 17 24 19 26 21 29
REMARK Flexibility Score: inf
ROOT
ATOM      1  C   UNL     1      24.081  41.309   6.847  1.00  0.00     0.154 C 
ENDROOT
BRANCH   1   2
ATOM      2  C   UNL     1      23.517  40.194   7.703  1.00  0.00     0.165 C 
BRANCH   2   3
ATOM      3  C   UNL     1      24.210  38.876   7.440  1.00  0.00     0.176 C 
BRANCH   3   4
ATOM      4  C   UNL     1      24.749  38.247   8.682  1.00  0.00     0.178 C 
ATOM      5  C   UNL     1      26.982  38.929   8.939  1.00  0.00     0.269 C 
ATOM      6  C   UNL     1      27.520  37.672   8.352  1.00  0.00     0.112 C 
ATOM      7  O   UNL     1      25.698  38.943   9.333  1.00  0.00    -0.332 OA
ATOM      8  C   UNL     1      26.485  36.748   7.781  1.00  0.00     0.145 C 
ATOM      9  C   UNL     1      25.173  36.820   8.495  1.00  0.00     0.142 C 
BRANCH   5  10
ATOM     10  O   UNL     1      27.149  39.930   7.957  1.00  0.00    -0.357 OA
ATOM     11  H   UNL     1      28.102  39.888   7.663  1.00  0.00     0.214 HD
ENDBRANCH   5  10
BRANCH   5  12
ATOM     12  C   UNL     1      27.830  39.356  10.084  1.00  0.00     0.364 C 
ATOM     13  O   UNL     1      28.758  38.650  10.536  1.00  0.00    -0.246 OA
BRANCH  12  14
ATOM     14  O   UNL     1      27.603  40.574  10.686  1.00  0.00    -0.477 OA
ATOM     15  H   UNL     1      28.162  41.403  10.530  1.00  0.00     0.296 HD
ENDBRANCH  12  14
ENDBRANCH   5  12
BRANCH   8  16
ATOM     16  O   UNL     1      26.300  37.014   6.413  1.00  0.00    -0.391 OA
ATOM     17  H   UNL     1      25.700  37.768   6.256  1.00  0.00     0.211 HD
ENDBRANCH   8  16
BRANCH   9  18
ATOM     18  N   UNL     1      25.369  36.249   9.830  1.00  0.00    -0.348 N 
ATOM     19  C   UNL     1      24.363  35.469  10.464  1.00  0.00     0.217 C 
ATOM     20  H   UNL     1      26.255  36.399  10.357  1.00  0.00     0.163 HD
ATOM     21  C   UNL     1      24.542  34.881  11.818  1.00  0.00     0.114 C 
ATOM     22  O   UNL     1      23.263  35.245   9.889  1.00  0.00    -0.275 OA
ENDBRANCH   9  18
ENDBRANCH   3   4
BRANCH   3  23
ATOM     23  O   UNL     1      23.234  38.059   6.844  1.00  0.00    -0.388 OA
ATOM     24  H   UNL     1      23.743  37.261   6.510  1.00  0.00     0.211 HD
ENDBRANCH   3  23
ENDBRANCH   2   3
BRANCH   2  25
ATOM     25  O   UNL     1      22.138  40.124   7.603  1.00  0.00    -0.388 OA
ATOM     26  H   UNL     1      21.727  39.572   8.298  1.00  0.00     0.211 HD
ENDBRANCH   2  25
ENDBRANCH   1   2
BRANCH   1  27
ATOM     27  N   UNL     1      24.882  40.848   5.757  1.00  0.00    -0.319 N 
ATOM     28  C   UNL     1      25.141  41.614   4.589  1.00  0.00     0.407 C 
ATOM     29  H   UNL     1      25.319  39.896   5.791  1.00  0.00     0.167 HD
ATOM     30  O   UNL     1      24.675  42.751   4.447  1.00  0.00    -0.225 OA
BRANCH  28  31
ATOM     31  O   UNL     1      25.928  41.115   3.557  1.00  0.00    -0.443 OA
BRANCH  31  32
ATOM     32  C   UNL     1      27.281  41.527   3.434  1.00  0.00     0.294 C 
BRANCH  32  33
ATOM     33  C   UNL     1      28.085  40.679   4.342  1.00  0.00     0.121 A 
ATOM     34  C   UNL     1      29.307  40.981   4.901  1.00  0.00     0.144 A 
ATOM     35  N   UNL     1      27.743  39.448   4.774  1.00  0.00    -0.131 NA
ATOM     36  N   UNL     1      29.649  39.919   5.648  1.00  0.00    -0.220 N 
ATOM     37  N   UNL     1      28.702  39.007   5.563  1.00  0.00    -0.062 NA
BRANCH  36  38
ATOM     38  C   UNL     1      30.849  39.811   6.405  1.00  0.00     0.066 A 
ATOM     39  C   UNL     1      30.776  39.459   7.741  1.00  0.00     0.028 A 
ATOM     40  C   UNL     1      32.077  40.055   5.819  1.00  0.00     0.028 A 
ATOM     41  C   UNL     1      31.962  39.363   8.448  1.00  0.00     0.002 A 
ATOM     42  C   UNL     1      33.243  39.956   6.535  1.00  0.00     0.002 A 
ATOM     43  C   UNL     1      33.178  39.605   7.866  1.00  0.00     0.000 A 
ENDBRANCH  36  38
ENDBRANCH  32  33
ENDBRANCH  31  32
ENDBRANCH  28  31
ENDBRANCH   1  27
TORSDOF 15
BEGIN_RES LYS A 131
REMARK  4 active torsions:
REMARK  status: ('A' for Active; 'I' for Inactive)
REMARK    1  A    between atoms: CA   and  CB  
REMARK    2  A    between atoms: CB   and  CG  
REMARK    3  A    between atoms: CG   and  CD  
REMARK    4  A    between atoms: CD   and  CE  
ROOT
ATOM      1  CA  LYS A 131      29.867  25.555  16.977  1.00 20.52     0.186 C 
ENDROOT
BRANCH   1   2
ATOM      2  CB  LYS A 131      28.345  25.722  17.026  1.00 20.94     0.034 C 
BRANCH   2   3
ATOM      3  CG  LYS A 131      27.601  24.401  16.900  1.00 22.96     0.005 C 
BRANCH   3   4
ATOM      4  CD  LYS A 131      26.199  24.487  17.436  1.00 24.33     0.041 C 
BRANCH   4   5
ATOM      5  CE  LYS A 131      26.213  25.200  18.785  1.00 26.91     0.338 C 
ATOM      6  NZ  LYS A 131      25.354  24.485  19.758  1.00 27.40     0.618 N 
ENDBRANCH   4   5
ENDBRANCH   3   4
ENDBRANCH   2   3
ENDBRANCH   1   2
END_RES LYS A 131
BEGIN_RES LYS A 135
REMARK  4 active torsions:
REMARK  status: ('A' for Active; 'I' for Inactive)
REMARK    5  A    between atoms: CA   and  CB  
REMARK    6  A    between atoms: CB   and  CG  
REMARK    7  A    between atoms: CG   and  CD  
REMARK    8  A    between atoms: CD   and  CE  
ROOT
ATOM      7  CA  LYS A 135      33.193  34.663   9.290  1.00 25.02     0.186 C 
ENDROOT
BRANCH   7   8
ATOM      8  CB  LYS A 135      32.060  35.360  10.034  1.00 26.63     0.034 C 
BRANCH   8   9
ATOM      9  CG  LYS A 135      30.890  35.717   9.153  1.00 29.45     0.005 C 
BRANCH   9  10
ATOM     10  CD  LYS A 135      30.072  34.479   8.820  1.00 32.00     0.041 C 
BRANCH  10  11
ATOM     11  CE  LYS A 135      29.119  34.149   9.953  1.00 34.25     0.338 C 
ATOM     12  NZ  LYS A 135      27.784  33.746   9.431  1.00 35.99     0.618 N 
ENDBRANCH  10  11
ENDBRANCH   9  10
ENDBRANCH   8   9
ENDBRANCH   7   8
END_RES LYS A 135
