REMARK VINA RESULT:    -4.644      3.327      7.747
REMARK INTER + INTRA:         -15.113
REMARK INTER:                  -8.485
REMARK INTRA:                  -6.628
REMARK UNBOUND:                -6.804
REMARK SMILES CC(=O)N[C@@H]1[C@@H](O)C[C@](O)(C(=O)O)O[C@H]1C(O)[C@H](O)CNC(=O)OCc1cn(-c2ccccc2C(C)=O)nn1
REMARK SMILES IDX 21 1 22 2 23 3 20 5 18 6 16 7 15 8 9 9 8 10 14 11 6 12 5 13
REMARK SMILES IDX 10 14 11 16 12 17 13 18 7 20 4 22 2 23 1 25 3 26 17 27 19 29
REMARK SMILES IDX 24 31 25 32 26 33 27 34 39 35 28 36 38 37 29 38 34 39 30 40
REMARK SMILES IDX 33 41 31 42 32 43 35 44 37 45 36 46
REMARK H PARENT 21 4 10 15 13 19 7 21 4 24 17 28 19 30
REMARK Flexibility Score: inf
ROOT
ATOM      1  N   UNL     1      27.094  32.159  17.340  1.00  0.00    -0.319 N 
ATOM      2  C   UNL     1      26.584  32.270  16.001  1.00  0.00     0.407 C 
ATOM      3  O   UNL     1      26.169  31.235  15.424  1.00  0.00    -0.225 OA
ATOM      4  H   UNL     1      27.421  33.039  17.786  1.00  0.00     0.167 HD
ENDROOT
BRANCH   1   5
ATOM      5  C   UNL     1      27.135  30.880  17.986  1.00  0.00     0.154 C 
BRANCH   5   6
ATOM      6  C   UNL     1      28.446  30.165  17.967  1.00  0.00     0.165 C 
BRANCH   6   7
ATOM      7  C   UNL     1      29.534  30.846  18.743  1.00  0.00     0.176 C 
BRANCH   7   8
ATOM      8  C   UNL     1      30.069  30.048  19.903  1.00  0.00     0.178 C 
ATOM      9  C   UNL     1      30.057  27.962  20.893  1.00  0.00     0.269 C 
ATOM     10  C   UNL     1      29.615  28.491  22.244  1.00  0.00     0.112 C 
ATOM     11  O   UNL     1      29.622  28.772  19.908  1.00  0.00    -0.332 OA
ATOM     12  C   UNL     1      29.030  29.860  22.146  1.00  0.00     0.145 C 
ATOM     13  C   UNL     1      29.748  30.752  21.204  1.00  0.00     0.142 C 
BRANCH   9  14
ATOM     14  O   UNL     1      29.387  26.695  20.793  1.00  0.00    -0.357 OA
ATOM     15  H   UNL     1      29.634  26.278  19.911  1.00  0.00     0.214 HD
ENDBRANCH   9  14
BRANCH   9  16
ATOM     16  C   UNL     1      31.485  27.632  20.941  1.00  0.00     0.364 C 
ATOM     17  O   UNL     1      32.201  27.803  21.954  1.00  0.00    -0.246 OA
BRANCH  16  18
ATOM     18  O   UNL     1      32.139  27.092  19.831  1.00  0.00    -0.477 OA
ATOM     19  H   UNL     1      32.862  27.619  19.354  1.00  0.00     0.296 HD
ENDBRANCH  16  18
ENDBRANCH   9  16
BRANCH  12  20
ATOM     20  O   UNL     1      27.697  29.735  21.716  1.00  0.00    -0.391 OA
ATOM     21  H   UNL     1      27.627  29.544  20.750  1.00  0.00     0.211 HD
ENDBRANCH  12  20
BRANCH  13  22
ATOM     22  N   UNL     1      30.872  31.383  21.819  1.00  0.00    -0.348 N 
ATOM     23  C   UNL     1      31.001  32.795  21.935  1.00  0.00     0.217 C 
ATOM     24  H   UNL     1      31.635  30.798  22.208  1.00  0.00     0.163 HD
ATOM     25  C   UNL     1      32.192  33.402  22.585  1.00  0.00     0.114 C 
ATOM     26  O   UNL     1      30.116  33.572  21.494  1.00  0.00    -0.275 OA
ENDBRANCH  13  22
ENDBRANCH   7   8
BRANCH   7  27
ATOM     27  O   UNL     1      29.304  32.174  18.997  1.00  0.00    -0.388 OA
ATOM     28  H   UNL     1      28.314  32.320  18.928  1.00  0.00     0.211 HD
ENDBRANCH   7  27
ENDBRANCH   6   7
BRANCH   6  29
ATOM     29  O   UNL     1      28.886  30.221  16.580  1.00  0.00    -0.388 OA
ATOM     30  H   UNL     1      28.444  31.044  16.241  1.00  0.00     0.211 HD
ENDBRANCH   6  29
ENDBRANCH   5   6
ENDBRANCH   1   5
BRANCH   2  31
ATOM     31  O   UNL     1      26.531  33.460  15.316  1.00  0.00    -0.443 OA
BRANCH  31  32
ATOM     32  C   UNL     1      27.613  33.908  14.502  1.00  0.00     0.294 C 
BRANCH  32  33
ATOM     33  C   UNL     1      28.915  33.754  15.198  1.00  0.00     0.121 A 
ATOM     34  C   UNL     1      29.638  34.706  15.866  1.00  0.00     0.144 A 
ATOM     35  N   UNL     1      29.644  32.608  15.298  1.00  0.00    -0.131 NA
ATOM     36  N   UNL     1      30.779  34.111  16.349  1.00  0.00    -0.220 N 
ATOM     37  N   UNL     1      30.735  32.846  15.980  1.00  0.00    -0.062 NA
BRANCH  36  38
ATOM     38  C   UNL     1      31.847  34.710  17.062  1.00  0.00     0.077 A 
ATOM     39  C   UNL     1      32.860  35.409  16.503  1.00  0.00     0.043 A 
ATOM     40  C   UNL     1      31.777  34.534  18.462  1.00  0.00     0.029 A 
ATOM     41  C   UNL     1      33.842  35.957  17.334  1.00  0.00     0.014 A 
ATOM     42  C   UNL     1      32.748  35.077  19.266  1.00  0.00     0.002 A 
ATOM     43  C   UNL     1      33.767  35.782  18.683  1.00  0.00     0.001 A 
BRANCH  39  44
ATOM     44  C   UNL     1      33.009  35.628  15.081  1.00  0.00     0.161 C 
ATOM     45  O   UNL     1      32.478  36.712  14.607  1.00  0.00    -0.294 OA
ATOM     46  C   UNL     1      33.687  34.774  14.105  1.00  0.00     0.093 C 
ENDBRANCH  39  44
ENDBRANCH  36  38
ENDBRANCH  32  33
ENDBRANCH  31  32
ENDBRANCH   2  31
TORSDOF 16
BEGIN_RES LYS A 131
REMARK  4 active torsions:
REMARK  status: ('A' for Active; 'I' for Inactive)
REMARK    1  A    between atoms: CA   and  CB  
REMARK    2  A    between atoms: CB   and  CG  
REMARK    3  A    between atoms: CG   and  CD  
REMARK    4  A    between atoms: CD   and  CE  
ROOT
ATOM      1  CA  LYS A 131      29.867  25.555  16.977  1.00 20.52     0.186 C 
ENDROOT
BRANCH   1   2
ATOM      2  CB  LYS A 131      28.345  25.722  17.026  1.00 20.94     0.034 C 
BRANCH   2   3
ATOM      3  CG  LYS A 131      27.601  24.402  16.893  1.00 22.96     0.005 C 
BRANCH   3   4
ATOM      4  CD  LYS A 131      26.679  24.152  18.053  1.00 24.33     0.041 C 
BRANCH   4   5
ATOM      5  CE  LYS A 131      26.278  25.483  18.681  1.00 26.91     0.338 C 
ATOM      6  NZ  LYS A 131      24.924  25.883  18.231  1.00 27.40     0.618 N 
ENDBRANCH   4   5
ENDBRANCH   3   4
ENDBRANCH   2   3
ENDBRANCH   1   2
END_RES LYS A 131
BEGIN_RES LYS A 135
REMARK  4 active torsions:
REMARK  status: ('A' for Active; 'I' for Inactive)
REMARK    5  A    between atoms: CA   and  CB  
REMARK    6  A    between atoms: CB   and  CG  
REMARK    7  A    between atoms: CG   and  CD  
REMARK    8  A    between atoms: CD   and  CE  
ROOT
ATOM      7  CA  LYS A 135      33.193  34.663   9.290  1.00 25.02     0.186 C 
ENDROOT
BRANCH   7   8
ATOM      8  CB  LYS A 135      32.060  35.360  10.034  1.00 26.63     0.034 C 
BRANCH   8   9
ATOM      9  CG  LYS A 135      30.785  34.558  10.079  1.00 29.45     0.005 C 
BRANCH   9  10
ATOM     10  CD  LYS A 135      30.326  34.200   8.674  1.00 32.00     0.041 C 
BRANCH  10  11
ATOM     11  CE  LYS A 135      28.854  34.517   8.498  1.00 34.25     0.338 C 
ATOM     12  NZ  LYS A 135      28.020  33.747   9.462  1.00 35.99     0.618 N 
ENDBRANCH  10  11
ENDBRANCH   9  10
ENDBRANCH   8   9
ENDBRANCH   7   8
END_RES LYS A 135
