REMARK VINA RESULT:    -4.836      2.706      5.946
REMARK INTER + INTRA:         -13.642
REMARK INTER:                  -8.628
REMARK INTRA:                  -5.015
REMARK UNBOUND:                -5.272
REMARK SMILES CC(=O)N[C@@H]1[C@@H](O)C[C@](O)(C(=O)O)O[C@H]1C(O)[C@H](O)CNC(=O)OCc1cn(-c2ccncc2)nn1
REMARK SMILES IDX 20 1 18 2 16 3 15 4 9 5 8 6 14 7 6 8 5 9 10 10 11 12 12 13
REMARK SMILES IDX 13 14 7 16 4 18 2 19 1 21 3 22 17 23 19 25 21 27 22 28 23 30
REMARK SMILES IDX 24 31 25 32 26 33 27 34 36 35 28 36 35 37 29 38 30 39 34 40
REMARK SMILES IDX 31 41 33 42 32 43
REMARK H PARENT 10 11 13 15 7 17 4 20 17 24 19 26 21 29
REMARK Flexibility Score: inf
ROOT
ATOM      1  C   UNL     1      30.305  33.251  18.400  1.00  0.00     0.154 C 
ENDROOT
BRANCH   1   2
ATOM      2  C   UNL     1      30.761  32.043  19.140  1.00  0.00     0.165 C 
BRANCH   2   3
ATOM      3  C   UNL     1      29.765  30.898  19.061  1.00  0.00     0.176 C 
BRANCH   3   4
ATOM      4  C   UNL     1      29.889  29.923  20.176  1.00  0.00     0.178 C 
ATOM      5  C   UNL     1      31.180  28.230  21.065  1.00  0.00     0.269 C 
ATOM      6  C   UNL     1      30.061  28.122  22.070  1.00  0.00     0.112 C 
ATOM      7  O   UNL     1      31.131  29.368  20.306  1.00  0.00    -0.332 OA
ATOM      8  C   UNL     1      28.700  28.219  21.437  1.00  0.00     0.145 C 
ATOM      9  C   UNL     1      28.885  28.790  20.044  1.00  0.00     0.142 C 
BRANCH   5  10
ATOM     10  O   UNL     1      31.277  27.087  20.270  1.00  0.00    -0.357 OA
ATOM     11  H   UNL     1      31.479  27.312  19.322  1.00  0.00     0.214 HD
ENDBRANCH   5  10
BRANCH   5  12
ATOM     12  C   UNL     1      32.456  28.288  21.862  1.00  0.00     0.364 C 
ATOM     13  O   UNL     1      32.680  27.566  22.844  1.00  0.00    -0.246 OA
BRANCH  12  14
ATOM     14  O   UNL     1      33.396  29.220  21.429  1.00  0.00    -0.477 OA
ATOM     15  H   UNL     1      34.335  29.221  21.819  1.00  0.00     0.296 HD
ENDBRANCH  12  14
ENDBRANCH   5  12
BRANCH   8  16
ATOM     16  O   UNL     1      28.064  26.980  21.372  1.00  0.00    -0.391 OA
ATOM     17  H   UNL     1      28.580  26.317  21.891  1.00  0.00     0.211 HD
ENDBRANCH   8  16
BRANCH   9  18
ATOM     18  N   UNL     1      27.634  29.235  19.477  1.00  0.00    -0.348 N 
ATOM     19  C   UNL     1      26.890  28.396  18.603  1.00  0.00     0.217 C 
ATOM     20  H   UNL     1      27.243  30.172  19.688  1.00  0.00     0.163 HD
ATOM     21  C   UNL     1      25.590  28.826  17.998  1.00  0.00     0.114 C 
ATOM     22  O   UNL     1      27.340  27.254  18.331  1.00  0.00    -0.275 OA
ENDBRANCH   9  18
ENDBRANCH   3   4
BRANCH   3  23
ATOM     23  O   UNL     1      29.713  30.371  17.797  1.00  0.00    -0.388 OA
ATOM     24  H   UNL     1      30.248  29.532  17.771  1.00  0.00     0.211 HD
ENDBRANCH   3  23
ENDBRANCH   2   3
BRANCH   2  25
ATOM     25  O   UNL     1      30.962  32.275  20.489  1.00  0.00    -0.388 OA
ATOM     26  H   UNL     1      31.617  31.669  20.904  1.00  0.00     0.211 HD
ENDBRANCH   2  25
ENDBRANCH   1   2
BRANCH   1  27
ATOM     27  N   UNL     1      31.224  33.600  17.355  1.00  0.00    -0.319 N 
ATOM     28  C   UNL     1      31.371  33.002  16.098  1.00  0.00     0.407 C 
ATOM     29  H   UNL     1      31.893  34.425  17.541  1.00  0.00     0.167 HD
ATOM     30  O   UNL     1      30.671  32.043  15.767  1.00  0.00    -0.225 OA
BRANCH  28  31
ATOM     31  O   UNL     1      32.311  33.449  15.150  1.00  0.00    -0.443 OA
BRANCH  31  32
ATOM     32  C   UNL     1      32.576  34.852  15.037  1.00  0.00     0.294 C 
BRANCH  32  33
ATOM     33  C   UNL     1      31.672  35.485  14.072  1.00  0.00     0.121 A 
ATOM     34  C   UNL     1      30.436  35.073  13.628  1.00  0.00     0.144 A 
ATOM     35  N   UNL     1      31.926  36.642  13.426  1.00  0.00    -0.131 NA
ATOM     36  N   UNL     1      30.004  35.997  12.740  1.00  0.00    -0.220 N 
ATOM     37  N   UNL     1      30.908  36.937  12.625  1.00  0.00    -0.062 NA
BRANCH  36  38
ATOM     38  C   UNL     1      28.767  35.981  12.026  1.00  0.00     0.069 A 
ATOM     39  C   UNL     1      28.386  37.108  11.338  1.00  0.00     0.048 A 
ATOM     40  C   UNL     1      27.967  34.844  12.032  1.00  0.00     0.048 A 
ATOM     41  C   UNL     1      27.190  37.075  10.655  1.00  0.00     0.113 A 
ATOM     42  C   UNL     1      26.791  34.861  11.339  1.00  0.00     0.113 A 
ATOM     43  N   UNL     1      26.428  35.973  10.667  1.00  0.00    -0.265 NA
ENDBRANCH  36  38
ENDBRANCH  32  33
ENDBRANCH  31  32
ENDBRANCH  28  31
ENDBRANCH   1  27
TORSDOF 15
BEGIN_RES LYS A 131
REMARK  4 active torsions:
REMARK  status: ('A' for Active; 'I' for Inactive)
REMARK    1  A    between atoms: CA   and  CB  
REMARK    2  A    between atoms: CB   and  CG  
REMARK    3  A    between atoms: CG   and  CD  
REMARK    4  A    between atoms: CD   and  CE  
ROOT
ATOM      1  CA  LYS A 131      29.867  25.555  16.977  1.00 20.52     0.186 C 
ENDROOT
BRANCH   1   2
ATOM      2  CB  LYS A 131      28.345  25.722  17.026  1.00 20.94     0.034 C 
BRANCH   2   3
ATOM      3  CG  LYS A 131      27.599  24.476  16.575  1.00 22.96     0.005 C 
BRANCH   3   4
ATOM      4  CD  LYS A 131      27.057  23.688  17.736  1.00 24.33     0.041 C 
BRANCH   4   5
ATOM      5  CE  LYS A 131      25.590  23.355  17.485  1.00 26.91     0.338 C 
ATOM      6  NZ  LYS A 131      24.883  24.525  16.914  1.00 27.40     0.618 N 
ENDBRANCH   4   5
ENDBRANCH   3   4
ENDBRANCH   2   3
ENDBRANCH   1   2
END_RES LYS A 131
BEGIN_RES LYS A 135
REMARK  4 active torsions:
REMARK  status: ('A' for Active; 'I' for Inactive)
REMARK    5  A    between atoms: CA   and  CB  
REMARK    6  A    between atoms: CB   and  CG  
REMARK    7  A    between atoms: CG   and  CD  
REMARK    8  A    between atoms: CD   and  CE  
ROOT
ATOM      7  CA  LYS A 135      33.193  34.663   9.290  1.00 25.02     0.186 C 
ENDROOT
BRANCH   7   8
ATOM      8  CB  LYS A 135      32.060  35.360  10.034  1.00 26.63     0.034 C 
BRANCH   8   9
ATOM      9  CG  LYS A 135      30.892  35.720   9.152  1.00 29.45     0.005 C 
BRANCH   9  10
ATOM     10  CD  LYS A 135      30.390  34.497   8.401  1.00 32.00     0.041 C 
BRANCH  10  11
ATOM     11  CE  LYS A 135      28.874  34.481   8.362  1.00 34.25     0.338 C 
ATOM     12  NZ  LYS A 135      28.357  35.299   7.229  1.00 35.99     0.618 N 
ENDBRANCH  10  11
ENDBRANCH   9  10
ENDBRANCH   8   9
ENDBRANCH   7   8
END_RES LYS A 135
