REMARK VINA RESULT:    -5.853      2.893      7.670
REMARK INTER + INTRA:         -16.202
REMARK INTER:                 -10.985
REMARK INTRA:                  -5.216
REMARK UNBOUND:                -5.216
REMARK SMILES CC(=O)N[C@@H]1[C@@H](O)C[C@](O)(C(=O)O)O[C@H]1C(O)[C@H](O)CNC(=O)OCc1cn(-c2cc(C(=O)O)nc(-c3ccccc3)c2)nn1
REMARK SMILES IDX 21 1 22 2 23 3 20 5 18 6 16 7 15 8 9 9 8 10 14 11 6 12 5 13
REMARK SMILES IDX 10 14 11 16 12 17 13 18 7 20 4 22 2 23 1 25 3 26 17 27 19 29
REMARK SMILES IDX 24 31 25 32 26 33 27 34 45 35 28 36 44 37 29 38 30 39 43 40
REMARK SMILES IDX 31 41 36 42 35 43 32 44 33 45 34 46 37 48 38 49 42 50 39 51
REMARK SMILES IDX 41 52 40 53
REMARK H PARENT 21 4 10 15 13 19 7 21 4 24 17 28 19 30 34 47
REMARK Flexibility Score: inf
ROOT
ATOM      1  N   UNL     1      25.683  39.358  10.720  1.00  0.00    -0.319 N 
ATOM      2  C   UNL     1      24.637  38.872   9.874  1.00  0.00     0.407 C 
ATOM      3  O   UNL     1      24.756  39.029   8.631  1.00  0.00    -0.225 OA
ATOM      4  H   UNL     1      25.521  39.195  11.756  1.00  0.00     0.167 HD
ENDROOT
BRANCH   1   5
ATOM      5  C   UNL     1      26.863  40.016  10.228  1.00  0.00     0.154 C 
BRANCH   5   6
ATOM      6  C   UNL     1      28.075  39.151  10.395  1.00  0.00     0.165 C 
BRANCH   6   7
ATOM      7  C   UNL     1      28.758  39.028   9.039  1.00  0.00     0.176 C 
BRANCH   7   8
ATOM      8  C   UNL     1      28.261  37.820   8.325  1.00  0.00     0.178 C 
ATOM      9  C   UNL     1      28.989  35.737   7.590  1.00  0.00     0.269 C 
ATOM     10  C   UNL     1      27.493  35.571   7.357  1.00  0.00     0.112 C 
ATOM     11  O   UNL     1      29.302  36.866   8.301  1.00  0.00    -0.332 OA
ATOM     12  C   UNL     1      27.030  36.730   6.547  1.00  0.00     0.145 C 
ATOM     13  C   UNL     1      27.840  37.995   6.906  1.00  0.00     0.142 C 
BRANCH   9  14
ATOM     14  O   UNL     1      29.549  35.766   6.291  1.00  0.00    -0.357 OA
ATOM     15  H   UNL     1      30.476  36.098   6.417  1.00  0.00     0.214 HD
ENDBRANCH   9  14
BRANCH   9  16
ATOM     16  C   UNL     1      29.551  34.576   8.306  1.00  0.00     0.364 C 
ATOM     17  O   UNL     1      30.755  34.286   8.181  1.00  0.00    -0.246 OA
BRANCH  16  18
ATOM     18  O   UNL     1      28.752  33.802   9.120  1.00  0.00    -0.477 OA
ATOM     19  H   UNL     1      28.516  32.837   8.908  1.00  0.00     0.296 HD
ENDBRANCH  16  18
ENDBRANCH   9  16
BRANCH  12  20
ATOM     20  O   UNL     1      27.042  36.509   5.187  1.00  0.00    -0.391 OA
ATOM     21  H   UNL     1      27.613  37.166   4.731  1.00  0.00     0.211 HD
ENDBRANCH  12  20
BRANCH  13  22
ATOM     22  N   UNL     1      27.027  39.147   6.624  1.00  0.00    -0.348 N 
ATOM     23  C   UNL     1      27.064  39.793   5.334  1.00  0.00     0.217 C 
ATOM     24  H   UNL     1      26.399  39.520   7.339  1.00  0.00     0.163 HD
ATOM     25  C   UNL     1      26.249  40.972   5.003  1.00  0.00     0.114 C 
ATOM     26  O   UNL     1      27.855  39.274   4.491  1.00  0.00    -0.275 OA
ENDBRANCH  13  22
ENDBRANCH   7   8
BRANCH   7  27
ATOM     27  O   UNL     1      30.122  39.120   9.097  1.00  0.00    -0.388 OA
ATOM     28  H   UNL     1      30.482  39.785   9.711  1.00  0.00     0.211 HD
ENDBRANCH   7  27
ENDBRANCH   6   7
BRANCH   6  29
ATOM     29  O   UNL     1      27.587  37.885  10.777  1.00  0.00    -0.388 OA
ATOM     30  H   UNL     1      27.423  37.948  11.741  1.00  0.00     0.211 HD
ENDBRANCH   6  29
ENDBRANCH   5   6
ENDBRANCH   1   5
BRANCH   2  31
ATOM     31  O   UNL     1      23.525  38.245  10.416  1.00  0.00    -0.443 OA
BRANCH  31  32
ATOM     32  C   UNL     1      23.304  36.889  10.087  1.00  0.00     0.294 C 
BRANCH  32  33
ATOM     33  C   UNL     1      24.485  36.126  10.570  1.00  0.00     0.121 A 
ATOM     34  C   UNL     1      24.730  35.693  11.879  1.00  0.00     0.144 A 
ATOM     35  N   UNL     1      25.564  35.682   9.884  1.00  0.00    -0.131 NA
ATOM     36  N   UNL     1      25.900  35.032  11.928  1.00  0.00    -0.220 N 
ATOM     37  N   UNL     1      26.383  35.040  10.708  1.00  0.00    -0.062 NA
BRANCH  36  38
ATOM     38  C   UNL     1      26.445  34.455  13.132  1.00  0.00     0.071 A 
ATOM     39  C   UNL     1      25.673  33.717  13.991  1.00  0.00     0.064 A 
ATOM     40  C   UNL     1      27.784  34.640  13.455  1.00  0.00     0.057 A 
ATOM     41  C   UNL     1      26.162  33.153  15.152  1.00  0.00     0.151 A 
ATOM     42  C   UNL     1      28.284  34.085  14.605  1.00  0.00     0.073 A 
ATOM     43  N   UNL     1      27.462  33.368  15.405  1.00  0.00    -0.241 NA
BRANCH  41  44
ATOM     44  C   UNL     1      25.324  32.373  16.047  1.00  0.00     0.354 C 
ATOM     45  O   UNL     1      25.846  31.817  17.033  1.00  0.00    -0.245 OA
BRANCH  44  46
ATOM     46  O   UNL     1      23.969  32.234  15.831  1.00  0.00    -0.477 OA
ATOM     47  H   UNL     1      23.426  32.895  15.265  1.00  0.00     0.297 HD
ENDBRANCH  44  46
ENDBRANCH  41  44
BRANCH  42  48
ATOM     48  C   UNL     1      29.700  34.266  14.974  1.00  0.00     0.000 A 
ATOM     49  C   UNL     1      30.539  33.176  14.881  1.00  0.00     0.010 A 
ATOM     50  C   UNL     1      30.157  35.482  15.393  1.00  0.00     0.010 A 
ATOM     51  C   UNL     1      31.860  33.340  15.224  1.00  0.00     0.001 A 
ATOM     52  C   UNL     1      31.492  35.604  15.727  1.00  0.00     0.001 A 
ATOM     53  C   UNL     1      32.371  34.546  15.652  1.00  0.00     0.000 A 
ENDBRANCH  42  48
ENDBRANCH  36  38
ENDBRANCH  32  33
ENDBRANCH  31  32
ENDBRANCH   2  31
TORSDOF 18
BEGIN_RES LYS A 131
REMARK  4 active torsions:
REMARK  status: ('A' for Active; 'I' for Inactive)
REMARK    1  A    between atoms: CA   and  CB  
REMARK    2  A    between atoms: CB   and  CG  
REMARK    3  A    between atoms: CG   and  CD  
REMARK    4  A    between atoms: CD   and  CE  
ROOT
ATOM      1  CA  LYS A 131      29.867  25.555  16.977  1.00 20.52     0.186 C 
ENDROOT
BRANCH   1   2
ATOM      2  CB  LYS A 131      28.345  25.722  17.026  1.00 20.94     0.034 C 
BRANCH   2   3
ATOM      3  CG  LYS A 131      27.600  24.409  16.837  1.00 22.96     0.005 C 
BRANCH   3   4
ATOM      4  CD  LYS A 131      26.194  24.475  17.365  1.00 24.33     0.041 C 
BRANCH   4   5
ATOM      5  CE  LYS A 131      26.186  25.210  18.702  1.00 26.91     0.338 C 
ATOM      6  NZ  LYS A 131      25.449  24.426  19.721  1.00 27.40     0.618 N 
ENDBRANCH   4   5
ENDBRANCH   3   4
ENDBRANCH   2   3
ENDBRANCH   1   2
END_RES LYS A 131
BEGIN_RES LYS A 135
REMARK  4 active torsions:
REMARK  status: ('A' for Active; 'I' for Inactive)
REMARK    5  A    between atoms: CA   and  CB  
REMARK    6  A    between atoms: CB   and  CG  
REMARK    7  A    between atoms: CG   and  CD  
REMARK    8  A    between atoms: CD   and  CE  
ROOT
ATOM      7  CA  LYS A 135      33.193  34.663   9.290  1.00 25.02     0.186 C 
ENDROOT
BRANCH   7   8
ATOM      8  CB  LYS A 135      32.060  35.360  10.034  1.00 26.63     0.034 C 
BRANCH   8   9
ATOM      9  CG  LYS A 135      32.049  35.080  11.515  1.00 29.45     0.005 C 
BRANCH   9  10
ATOM     10  CD  LYS A 135      32.540  36.290  12.294  1.00 32.00     0.041 C 
BRANCH  10  11
ATOM     11  CE  LYS A 135      31.788  37.537  11.869  1.00 34.25     0.338 C 
ATOM     12  NZ  LYS A 135      30.492  37.655  12.592  1.00 35.99     0.618 N 
ENDBRANCH  10  11
ENDBRANCH   9  10
ENDBRANCH   8   9
ENDBRANCH   7   8
END_RES LYS A 135
