REMARK VINA RESULT:    -4.182      3.102      5.959
REMARK INTER + INTRA:         -14.760
REMARK INTER:                  -8.213
REMARK INTRA:                  -6.548
REMARK UNBOUND:                -6.788
REMARK SMILES CC(=O)N[C@@H]1[C@@H](O)C[C@](O)(C(=O)O)O[C@H]1C(O)[C@H](O)CNC(=O)OCc1cn(CC(=O)NCc2cccs2)nn1
REMARK SMILES IDX 21 1 22 2 23 3 20 5 18 6 16 7 15 8 9 9 8 10 14 11 6 12 5 13
REMARK SMILES IDX 10 14 11 16 12 17 13 18 7 20 4 22 2 23 1 25 3 26 17 27 19 29
REMARK SMILES IDX 24 31 25 32 26 33 27 34 40 35 28 36 39 37 29 38 30 39 31 40
REMARK SMILES IDX 32 41 33 43 34 44 35 45 38 46 36 47 37 48
REMARK H PARENT 21 4 10 15 13 19 7 21 4 24 17 28 19 30 32 42
REMARK Flexibility Score: inf
ROOT
ATOM      1  N   UNL     1      23.236  37.508  10.095  1.00  0.00    -0.319 N 
ATOM      2  C   UNL     1      23.467  37.371  11.480  1.00  0.00     0.407 C 
ATOM      3  O   UNL     1      23.898  36.273  11.909  1.00  0.00    -0.225 OA
ATOM      4  H   UNL     1      22.877  38.429   9.761  1.00  0.00     0.167 HD
ENDROOT
BRANCH   1   5
ATOM      5  C   UNL     1      23.460  36.471   9.107  1.00  0.00     0.154 C 
BRANCH   5   6
ATOM      6  C   UNL     1      24.400  36.945   8.035  1.00  0.00     0.165 C 
BRANCH   6   7
ATOM      7  C   UNL     1      25.798  37.188   8.492  1.00  0.00     0.176 C 
BRANCH   7   8
ATOM      8  C   UNL     1      26.908  36.735   7.620  1.00  0.00     0.178 C 
ATOM      9  C   UNL     1      29.046  35.828   7.899  1.00  0.00     0.269 C 
ATOM     10  C   UNL     1      28.866  35.603   6.409  1.00  0.00     0.112 C 
ATOM     11  O   UNL     1      27.935  36.309   8.525  1.00  0.00    -0.332 OA
ATOM     12  C   UNL     1      28.487  36.903   5.790  1.00  0.00     0.145 C 
ATOM     13  C   UNL     1      27.569  37.708   6.732  1.00  0.00     0.142 C 
BRANCH   9  14
ATOM     14  O   UNL     1      30.147  36.699   8.011  1.00  0.00    -0.357 OA
ATOM     15  H   UNL     1      30.046  37.422   7.333  1.00  0.00     0.214 HD
ENDBRANCH   9  14
BRANCH   9  16
ATOM     16  C   UNL     1      29.422  34.557   8.572  1.00  0.00     0.364 C 
ATOM     17  O   UNL     1      28.521  33.839   9.054  1.00  0.00    -0.246 OA
BRANCH  16  18
ATOM     18  O   UNL     1      30.746  34.143   8.682  1.00  0.00    -0.477 OA
ATOM     19  H   UNL     1      30.924  33.383   9.340  1.00  0.00     0.296 HD
ENDBRANCH  16  18
ENDBRANCH   9  16
BRANCH  12  20
ATOM     20  O   UNL     1      29.560  37.664   5.382  1.00  0.00    -0.391 OA
ATOM     21  H   UNL     1      30.413  37.175   5.495  1.00  0.00     0.211 HD
ENDBRANCH  12  20
BRANCH  13  22
ATOM     22  N   UNL     1      26.776  38.519   5.885  1.00  0.00    -0.348 N 
ATOM     23  C   UNL     1      26.609  39.891   6.166  1.00  0.00     0.217 C 
ATOM     24  H   UNL     1      26.306  38.138   5.052  1.00  0.00     0.163 HD
ATOM     25  C   UNL     1      25.780  40.787   5.302  1.00  0.00     0.114 C 
ATOM     26  O   UNL     1      27.153  40.454   7.174  1.00  0.00    -0.275 OA
ENDBRANCH  13  22
ENDBRANCH   7   8
BRANCH   7  27
ATOM     27  O   UNL     1      26.000  38.379   9.174  1.00  0.00    -0.388 OA
ATOM     28  H   UNL     1      25.272  38.644   9.749  1.00  0.00     0.211 HD
ENDBRANCH   7  27
ENDBRANCH   6   7
BRANCH   6  29
ATOM     29  O   UNL     1      23.894  37.966   7.241  1.00  0.00    -0.388 OA
ATOM     30  H   UNL     1      22.921  38.084   7.333  1.00  0.00     0.211 HD
ENDBRANCH   6  29
ENDBRANCH   5   6
ENDBRANCH   1   5
BRANCH   2  31
ATOM     31  O   UNL     1      23.235  38.413  12.388  1.00  0.00    -0.443 OA
BRANCH  31  32
ATOM     32  C   UNL     1      22.742  39.662  11.942  1.00  0.00     0.294 C 
BRANCH  32  33
ATOM     33  C   UNL     1      23.852  40.378  11.254  1.00  0.00     0.120 A 
ATOM     34  C   UNL     1      24.943  41.004  11.820  1.00  0.00     0.138 A 
ATOM     35  N   UNL     1      24.008  40.555   9.932  1.00  0.00    -0.132 NA
ATOM     36  N   UNL     1      25.704  41.527  10.847  1.00  0.00    -0.243 N 
ATOM     37  N   UNL     1      25.113  41.239   9.708  1.00  0.00    -0.067 NA
BRANCH  36  38
ATOM     38  C   UNL     1      26.957  42.266  11.069  1.00  0.00     0.245 C 
BRANCH  38  39
ATOM     39  C   UNL     1      28.055  41.276  10.976  1.00  0.00     0.242 C 
ATOM     40  O   UNL     1      28.890  41.206  11.938  1.00  0.00    -0.273 OA
ATOM     41  N   UNL     1      28.262  40.388   9.895  1.00  0.00    -0.350 N 
ATOM     42  H   UNL     1      27.584  40.446   9.114  1.00  0.00     0.163 HD
BRANCH  41  43
ATOM     43  C   UNL     1      29.348  39.436   9.847  1.00  0.00     0.162 C 
BRANCH  43  44
ATOM     44  C   UNL     1      30.443  40.076   9.016  1.00  0.00     0.024 A 
ATOM     45  C   UNL     1      30.582  40.134   7.696  1.00  0.00     0.017 A 
ATOM     46  S   UNL     1      31.828  40.914   9.633  1.00  0.00    -0.147 S 
ATOM     47  C   UNL     1      31.645  40.757   7.144  1.00  0.00     0.012 A 
ATOM     48  C   UNL     1      32.558  41.319   8.048  1.00  0.00     0.065 A 
ENDBRANCH  43  44
ENDBRANCH  41  43
ENDBRANCH  38  39
ENDBRANCH  36  38
ENDBRANCH  32  33
ENDBRANCH  31  32
ENDBRANCH   2  31
TORSDOF 18
BEGIN_RES LYS A 131
REMARK  4 active torsions:
REMARK  status: ('A' for Active; 'I' for Inactive)
REMARK    1  A    between atoms: CA   and  CB  
REMARK    2  A    between atoms: CB   and  CG  
REMARK    3  A    between atoms: CG   and  CD  
REMARK    4  A    between atoms: CD   and  CE  
ROOT
ATOM      1  CA  LYS A 131      29.867  25.555  16.977  1.00 20.52     0.186 C 
ENDROOT
BRANCH   1   2
ATOM      2  CB  LYS A 131      28.345  25.722  17.026  1.00 20.94     0.034 C 
BRANCH   2   3
ATOM      3  CG  LYS A 131      27.602  24.397  16.945  1.00 22.96     0.005 C 
BRANCH   3   4
ATOM      4  CD  LYS A 131      26.640  24.216  18.086  1.00 24.33     0.041 C 
BRANCH   4   5
ATOM      5  CE  LYS A 131      26.394  25.561  18.762  1.00 26.91     0.338 C 
ATOM      6  NZ  LYS A 131      25.571  25.385  19.982  1.00 27.40     0.618 N 
ENDBRANCH   4   5
ENDBRANCH   3   4
ENDBRANCH   2   3
ENDBRANCH   1   2
END_RES LYS A 131
BEGIN_RES LYS A 135
REMARK  4 active torsions:
REMARK  status: ('A' for Active; 'I' for Inactive)
REMARK    5  A    between atoms: CA   and  CB  
REMARK    6  A    between atoms: CB   and  CG  
REMARK    7  A    between atoms: CG   and  CD  
REMARK    8  A    between atoms: CD   and  CE  
ROOT
ATOM      7  CA  LYS A 135      33.193  34.663   9.290  1.00 25.02     0.186 C 
ENDROOT
BRANCH   7   8
ATOM      8  CB  LYS A 135      32.060  35.360  10.034  1.00 26.63     0.034 C 
BRANCH   8   9
ATOM      9  CG  LYS A 135      32.496  36.014  11.320  1.00 29.45     0.005 C 
BRANCH   9  10
ATOM     10  CD  LYS A 135      31.489  35.744  12.427  1.00 32.00     0.041 C 
BRANCH  10  11
ATOM     11  CE  LYS A 135      30.076  35.995  11.935  1.00 34.25     0.338 C 
ATOM     12  NZ  LYS A 135      29.177  34.862  12.288  1.00 35.99     0.618 N 
ENDBRANCH  10  11
ENDBRANCH   9  10
ENDBRANCH   8   9
ENDBRANCH   7   8
END_RES LYS A 135
