REMARK VINA RESULT:    -5.849      3.356      8.206
REMARK INTER + INTRA:         -16.195
REMARK INTER:                  -9.426
REMARK INTRA:                  -6.769
REMARK UNBOUND:                -5.216
REMARK SMILES CC(=O)N[C@@H]1[C@@H](O)C[C@](O)(C(=O)O)O[C@H]1C(O)[C@H](O)CNC(=O)OCc1cn(-c2cc(C(=O)O)nc(-c3ccccc3)c2)nn1
REMARK SMILES IDX 21 1 22 2 23 3 20 5 18 6 16 7 15 8 9 9 8 10 14 11 6 12 5 13
REMARK SMILES IDX 10 14 11 16 12 17 13 18 7 20 4 22 2 23 1 25 3 26 17 27 19 29
REMARK SMILES IDX 24 31 25 32 26 33 27 34 45 35 28 36 44 37 29 38 30 39 43 40
REMARK SMILES IDX 31 41 36 42 35 43 32 44 33 45 34 46 37 48 38 49 42 50 39 51
REMARK SMILES IDX 41 52 40 53
REMARK H PARENT 21 4 10 15 13 19 7 21 4 24 17 28 19 30 34 47
REMARK Flexibility Score: inf
ROOT
ATOM      1  N   UNL     1      25.353  40.519   7.356  1.00  0.00    -0.319 N 
ATOM      2  C   UNL     1      23.943  40.552   7.116  1.00  0.00     0.407 C 
ATOM      3  O   UNL     1      23.394  41.671   6.946  1.00  0.00    -0.225 OA
ATOM      4  H   UNL     1      25.753  39.546   7.492  1.00  0.00     0.167 HD
ENDROOT
BRANCH   1   5
ATOM      5  C   UNL     1      26.176  41.696   7.412  1.00  0.00     0.154 C 
BRANCH   5   6
ATOM      6  C   UNL     1      26.804  41.854   8.763  1.00  0.00     0.165 C 
BRANCH   6   7
ATOM      7  C   UNL     1      27.655  40.620   9.036  1.00  0.00     0.176 C 
BRANCH   7   8
ATOM      8  C   UNL     1      28.487  40.299   7.844  1.00  0.00     0.178 C 
ATOM      9  C   UNL     1      28.726  38.670   6.202  1.00  0.00     0.269 C 
ATOM     10  C   UNL     1      29.644  39.740   5.623  1.00  0.00     0.112 C 
ATOM     11  O   UNL     1      27.983  39.115   7.264  1.00  0.00    -0.332 OA
ATOM     12  C   UNL     1      30.607  40.133   6.686  1.00  0.00     0.145 C 
ATOM     13  C   UNL     1      29.938  40.051   8.076  1.00  0.00     0.142 C 
BRANCH   9  14
ATOM     14  O   UNL     1      29.599  37.620   6.578  1.00  0.00    -0.357 OA
ATOM     15  H   UNL     1      29.789  37.130   5.736  1.00  0.00     0.214 HD
ENDBRANCH   9  14
BRANCH   9  16
ATOM     16  C   UNL     1      27.798  38.151   5.180  1.00  0.00     0.364 C 
ATOM     17  O   UNL     1      27.688  38.730   4.084  1.00  0.00    -0.246 OA
BRANCH  16  18
ATOM     18  O   UNL     1      27.046  37.023   5.426  1.00  0.00    -0.477 OA
ATOM     19  H   UNL     1      26.527  36.881   6.288  1.00  0.00     0.296 HD
ENDBRANCH  16  18
ENDBRANCH   9  16
BRANCH  12  20
ATOM     20  O   UNL     1      31.788  39.424   6.669  1.00  0.00    -0.391 OA
ATOM     21  H   UNL     1      31.957  39.047   5.777  1.00  0.00     0.211 HD
ENDBRANCH  12  20
BRANCH  13  22
ATOM     22  N   UNL     1      30.607  40.973   8.954  1.00  0.00    -0.348 N 
ATOM     23  C   UNL     1      31.619  40.527   9.881  1.00  0.00     0.217 C 
ATOM     24  H   UNL     1      30.376  41.969   8.924  1.00  0.00     0.163 HD
ATOM     25  C   UNL     1      32.327  41.436  10.795  1.00  0.00     0.114 C 
ATOM     26  O   UNL     1      31.862  39.284   9.858  1.00  0.00    -0.275 OA
ENDBRANCH  13  22
ENDBRANCH   7   8
BRANCH   7  27
ATOM     27  O   UNL     1      26.945  39.557   9.524  1.00  0.00    -0.388 OA
ATOM     28  H   UNL     1      27.359  39.063  10.254  1.00  0.00     0.211 HD
ENDBRANCH   7  27
ENDBRANCH   6   7
BRANCH   6  29
ATOM     29  O   UNL     1      25.731  41.880   9.678  1.00  0.00    -0.388 OA
ATOM     30  H   UNL     1      25.005  42.347   9.215  1.00  0.00     0.211 HD
ENDBRANCH   6  29
ENDBRANCH   5   6
ENDBRANCH   1   5
BRANCH   2  31
ATOM     31  O   UNL     1      23.207  39.376   7.075  1.00  0.00    -0.443 OA
BRANCH  31  32
ATOM     32  C   UNL     1      22.928  38.727   8.299  1.00  0.00     0.294 C 
BRANCH  32  33
ATOM     33  C   UNL     1      24.108  37.885   8.624  1.00  0.00     0.121 A 
ATOM     34  C   UNL     1      24.476  37.401   9.886  1.00  0.00     0.144 A 
ATOM     35  N   UNL     1      25.074  37.399   7.808  1.00  0.00    -0.131 NA
ATOM     36  N   UNL     1      25.602  36.673   9.785  1.00  0.00    -0.220 N 
ATOM     37  N   UNL     1      25.942  36.689   8.518  1.00  0.00    -0.062 NA
BRANCH  36  38
ATOM     38  C   UNL     1      26.245  36.032  10.905  1.00  0.00     0.071 A 
ATOM     39  C   UNL     1      25.572  35.160  11.721  1.00  0.00     0.064 A 
ATOM     40  C   UNL     1      27.582  36.290  11.188  1.00  0.00     0.057 A 
ATOM     41  C   UNL     1      26.157  34.531  12.800  1.00  0.00     0.151 A 
ATOM     42  C   UNL     1      28.176  35.672  12.258  1.00  0.00     0.073 A 
ATOM     43  N   UNL     1      27.448  34.822  13.019  1.00  0.00    -0.241 NA
BRANCH  41  44
ATOM     44  C   UNL     1      25.423  33.609  13.651  1.00  0.00     0.354 C 
ATOM     45  O   UNL     1      25.754  33.497  14.848  1.00  0.00    -0.245 OA
BRANCH  44  46
ATOM     46  O   UNL     1      24.372  32.860  13.167  1.00  0.00    -0.477 OA
ATOM     47  H   UNL     1      24.405  31.836  13.098  1.00  0.00     0.297 HD
ENDBRANCH  44  46
ENDBRANCH  41  44
BRANCH  42  48
ATOM     48  C   UNL     1      29.591  35.926  12.582  1.00  0.00     0.000 A 
ATOM     49  C   UNL     1      30.038  37.230  12.558  1.00  0.00     0.010 A 
ATOM     50  C   UNL     1      30.427  34.893  12.896  1.00  0.00     0.010 A 
ATOM     51  C   UNL     1      31.358  37.471  12.860  1.00  0.00     0.001 A 
ATOM     52  C   UNL     1      31.745  35.179  13.194  1.00  0.00     0.001 A 
ATOM     53  C   UNL     1      32.241  36.464  13.184  1.00  0.00     0.000 A 
ENDBRANCH  42  48
ENDBRANCH  36  38
ENDBRANCH  32  33
ENDBRANCH  31  32
ENDBRANCH   2  31
TORSDOF 18
BEGIN_RES LYS A 131
REMARK  4 active torsions:
REMARK  status: ('A' for Active; 'I' for Inactive)
REMARK    1  A    between atoms: CA   and  CB  
REMARK    2  A    between atoms: CB   and  CG  
REMARK    3  A    between atoms: CG   and  CD  
REMARK    4  A    between atoms: CD   and  CE  
ROOT
ATOM      1  CA  LYS A 131      29.867  25.555  16.977  1.00 20.52     0.186 C 
ENDROOT
BRANCH   1   2
ATOM      2  CB  LYS A 131      28.345  25.722  17.026  1.00 20.94     0.034 C 
BRANCH   2   3
ATOM      3  CG  LYS A 131      27.601  24.403  16.888  1.00 22.96     0.005 C 
BRANCH   3   4
ATOM      4  CD  LYS A 131      26.513  24.256  17.915  1.00 24.33     0.041 C 
BRANCH   4   5
ATOM      5  CE  LYS A 131      25.153  24.395  17.239  1.00 26.91     0.338 C 
ATOM      6  NZ  LYS A 131      24.452  23.090  17.209  1.00 27.40     0.618 N 
ENDBRANCH   4   5
ENDBRANCH   3   4
ENDBRANCH   2   3
ENDBRANCH   1   2
END_RES LYS A 131
BEGIN_RES LYS A 135
REMARK  4 active torsions:
REMARK  status: ('A' for Active; 'I' for Inactive)
REMARK    5  A    between atoms: CA   and  CB  
REMARK    6  A    between atoms: CB   and  CG  
REMARK    7  A    between atoms: CG   and  CD  
REMARK    8  A    between atoms: CD   and  CE  
ROOT
ATOM      7  CA  LYS A 135      33.193  34.663   9.290  1.00 25.02     0.186 C 
ENDROOT
BRANCH   7   8
ATOM      8  CB  LYS A 135      32.060  35.360  10.034  1.00 26.63     0.034 C 
BRANCH   8   9
ATOM      9  CG  LYS A 135      30.874  35.682   9.161  1.00 29.45     0.005 C 
BRANCH   9  10
ATOM     10  CD  LYS A 135      30.404  34.442   8.416  1.00 32.00     0.041 C 
BRANCH  10  11
ATOM     11  CE  LYS A 135      28.890  34.411   8.337  1.00 34.25     0.338 C 
ATOM     12  NZ  LYS A 135      28.314  33.562   9.416  1.00 35.99     0.618 N 
ENDBRANCH  10  11
ENDBRANCH   9  10
ENDBRANCH   8   9
ENDBRANCH   7   8
END_RES LYS A 135
