REMARK VINA RESULT:    -4.203      4.235      7.608
REMARK INTER + INTRA:         -13.960
REMARK INTER:                  -6.901
REMARK INTRA:                  -7.059
REMARK UNBOUND:                -5.949
REMARK SMILES CCOC(=O)Cn1cc(COC(=O)NC[C@@H](O)C(O)[C@@H]2O[C@@](O)(C(=O)O)C[C@H](O)[C@H]2NC(C)=O)nn1
REMARK SMILES IDX 14 1 12 2 13 3 15 5 16 6 18 7 20 8 22 9 27 10 21 11 28 12
REMARK SMILES IDX 30 13 23 14 24 16 25 17 26 18 29 20 31 22 32 23 33 25 34 26
REMARK SMILES IDX 19 27 17 29 11 31 10 32 9 33 8 34 35 35 7 36 36 37 6 38 4 39
REMARK SMILES IDX 5 40 3 41 2 42 1 43
REMARK H PARENT 14 4 23 15 26 19 29 21 31 24 19 28 17 30
REMARK Flexibility Score: inf
ROOT
ATOM      1  N   UNL     1      31.183  34.539  15.824  1.00  0.00    -0.319 N 
ATOM      2  C   UNL     1      31.219  33.127  15.862  1.00  0.00     0.407 C 
ATOM      3  O   UNL     1      31.797  32.453  15.003  1.00  0.00    -0.225 OA
ATOM      4  H   UNL     1      30.647  34.975  16.646  1.00  0.00     0.167 HD
ENDROOT
BRANCH   1   5
ATOM      5  C   UNL     1      31.771  35.377  14.831  1.00  0.00     0.154 C 
BRANCH   5   6
ATOM      6  C   UNL     1      31.076  35.465  13.516  1.00  0.00     0.165 C 
BRANCH   6   7
ATOM      7  C   UNL     1      29.650  35.045  13.544  1.00  0.00     0.176 C 
BRANCH   7   8
ATOM      8  C   UNL     1      28.671  36.061  14.067  1.00  0.00     0.178 C 
ATOM      9  C   UNL     1      27.561  35.275  15.968  1.00  0.00     0.269 C 
ATOM     10  C   UNL     1      26.351  36.169  15.798  1.00  0.00     0.112 C 
ATOM     11  O   UNL     1      28.652  35.900  15.450  1.00  0.00    -0.332 OA
ATOM     12  C   UNL     1      26.278  36.642  14.394  1.00  0.00     0.145 C 
ATOM     13  C   UNL     1      27.297  35.957  13.468  1.00  0.00     0.142 C 
BRANCH   9  14
ATOM     14  O   UNL     1      27.234  34.049  15.419  1.00  0.00    -0.357 OA
ATOM     15  H   UNL     1      28.073  33.594  15.177  1.00  0.00     0.214 HD
ENDBRANCH   9  14
BRANCH   9  16
ATOM     16  C   UNL     1      27.763  35.116  17.427  1.00  0.00     0.364 C 
ATOM     17  O   UNL     1      26.851  35.479  18.200  1.00  0.00    -0.246 OA
BRANCH  16  18
ATOM     18  O   UNL     1      28.917  34.583  17.942  1.00  0.00    -0.477 OA
ATOM     19  H   UNL     1      29.790  35.110  17.980  1.00  0.00     0.296 HD
ENDBRANCH  16  18
ENDBRANCH   9  16
BRANCH  12  20
ATOM     20  O   UNL     1      25.013  36.515  13.826  1.00  0.00    -0.391 OA
ATOM     21  H   UNL     1      24.636  35.615  13.894  1.00  0.00     0.211 HD
ENDBRANCH  12  20
BRANCH  13  22
ATOM     22  N   UNL     1      27.194  36.699  12.229  1.00  0.00    -0.348 N 
ATOM     23  C   UNL     1      26.514  36.268  11.077  1.00  0.00     0.217 C 
ATOM     24  H   UNL     1      27.665  37.629  12.195  1.00  0.00     0.163 HD
ATOM     25  C   UNL     1      26.421  37.045   9.817  1.00  0.00     0.114 C 
ATOM     26  O   UNL     1      25.945  35.134  11.133  1.00  0.00    -0.275 OA
ENDBRANCH  13  22
ENDBRANCH   7   8
BRANCH   7  27
ATOM     27  O   UNL     1      29.262  34.497  12.346  1.00  0.00    -0.388 OA
ATOM     28  H   UNL     1      29.531  35.020  11.549  1.00  0.00     0.211 HD
ENDBRANCH   7  27
ENDBRANCH   6   7
BRANCH   6  29
ATOM     29  O   UNL     1      31.724  34.584  12.625  1.00  0.00    -0.388 OA
ATOM     30  H   UNL     1      31.223  33.718  12.571  1.00  0.00     0.211 HD
ENDBRANCH   6  29
ENDBRANCH   5   6
ENDBRANCH   1   5
BRANCH   2  31
ATOM     31  O   UNL     1      30.582  32.418  16.906  1.00  0.00    -0.443 OA
BRANCH  31  32
ATOM     32  C   UNL     1      30.171  31.076  16.729  1.00  0.00     0.294 C 
BRANCH  32  33
ATOM     33  C   UNL     1      28.685  31.087  16.674  1.00  0.00     0.120 A 
ATOM     34  C   UNL     1      27.864  30.451  15.772  1.00  0.00     0.139 A 
ATOM     35  N   UNL     1      27.834  31.736  17.516  1.00  0.00    -0.132 NA
ATOM     36  N   UNL     1      26.577  30.744  16.109  1.00  0.00    -0.241 N 
ATOM     37  N   UNL     1      26.595  31.527  17.174  1.00  0.00    -0.066 NA
BRANCH  36  38
ATOM     38  C   UNL     1      25.370  30.302  15.452  1.00  0.00     0.268 C 
BRANCH  38  39
ATOM     39  C   UNL     1      25.005  31.208  14.352  1.00  0.00     0.327 C 
ATOM     40  O   UNL     1      24.958  32.439  14.565  1.00  0.00    -0.250 OA
BRANCH  39  41
ATOM     41  O   UNL     1      24.722  30.655  13.102  1.00  0.00    -0.465 OA
BRANCH  41  42
ATOM     42  C   UNL     1      23.781  29.577  13.101  1.00  0.00     0.229 C 
ATOM     43  C   UNL     1      22.452  30.127  12.649  1.00  0.00     0.049 C 
ENDBRANCH  41  42
ENDBRANCH  39  41
ENDBRANCH  38  39
ENDBRANCH  36  38
ENDBRANCH  32  33
ENDBRANCH  31  32
ENDBRANCH   2  31
TORSDOF 18
BEGIN_RES LYS A 131
REMARK  4 active torsions:
REMARK  status: ('A' for Active; 'I' for Inactive)
REMARK    1  A    between atoms: CA   and  CB  
REMARK    2  A    between atoms: CB   and  CG  
REMARK    3  A    between atoms: CG   and  CD  
REMARK    4  A    between atoms: CD   and  CE  
ROOT
ATOM      1  CA  LYS A 131      29.867  25.555  16.977  1.00 20.52     0.186 C 
ENDROOT
BRANCH   1   2
ATOM      2  CB  LYS A 131      28.345  25.722  17.026  1.00 20.94     0.034 C 
BRANCH   2   3
ATOM      3  CG  LYS A 131      27.601  24.402  16.896  1.00 22.96     0.005 C 
BRANCH   3   4
ATOM      4  CD  LYS A 131      26.147  24.533  17.256  1.00 24.33     0.041 C 
BRANCH   4   5
ATOM      5  CE  LYS A 131      25.936  24.072  18.695  1.00 26.91     0.338 C 
ATOM      6  NZ  LYS A 131      25.741  25.238  19.589  1.00 27.40     0.618 N 
ENDBRANCH   4   5
ENDBRANCH   3   4
ENDBRANCH   2   3
ENDBRANCH   1   2
END_RES LYS A 131
BEGIN_RES LYS A 135
REMARK  4 active torsions:
REMARK  status: ('A' for Active; 'I' for Inactive)
REMARK    5  A    between atoms: CA   and  CB  
REMARK    6  A    between atoms: CB   and  CG  
REMARK    7  A    between atoms: CG   and  CD  
REMARK    8  A    between atoms: CD   and  CE  
ROOT
ATOM      7  CA  LYS A 135      33.193  34.663   9.290  1.00 25.02     0.186 C 
ENDROOT
BRANCH   7   8
ATOM      8  CB  LYS A 135      32.060  35.360  10.034  1.00 26.63     0.034 C 
BRANCH   8   9
ATOM      9  CG  LYS A 135      30.796  35.487   9.224  1.00 29.45     0.005 C 
BRANCH   9  10
ATOM     10  CD  LYS A 135      30.216  34.115   8.916  1.00 32.00     0.041 C 
BRANCH  10  11
ATOM     11  CE  LYS A 135      28.700  34.170   8.893  1.00 34.25     0.338 C 
ATOM     12  NZ  LYS A 135      28.208  34.901   7.692  1.00 35.99     0.618 N 
ENDBRANCH  10  11
ENDBRANCH   9  10
ENDBRANCH   8   9
ENDBRANCH   7   8
END_RES LYS A 135
