REMARK VINA RESULT:    -5.142      6.200     11.532
REMARK INTER + INTRA:         -13.949
REMARK INTER:                 -10.967
REMARK INTRA:                  -2.982
REMARK UNBOUND:                -4.749
REMARK SMILES CC(=O)N[C@@H]1[C@@H](O)C[C@](O)(C(=O)O)O[C@H]1C(O)[C@H](O)CNC(=O)OCc1cn(-c2ccc([N+](=O)[O-])cc2)nn1
REMARK SMILES IDX 21 1 22 2 23 3 20 5 18 6 16 7 15 8 9 9 8 10 14 11 6 12 5 13
REMARK SMILES IDX 10 14 11 16 12 17 13 18 7 20 4 22 2 23 1 25 3 26 17 27 19 29
REMARK SMILES IDX 24 31 25 32 26 33 27 34 39 35 28 36 38 37 29 38 30 39 37 40
REMARK SMILES IDX 31 41 36 42 32 43 33 44 34 45 35 46
REMARK H PARENT 21 4 10 15 13 19 7 21 4 24 17 28 19 30
REMARK Flexibility Score: inf
ROOT
ATOM      1  N   UNL     1      24.732  34.434  12.157  1.00  0.00    -0.319 N 
ATOM      2  C   UNL     1      24.028  33.359  12.729  1.00  0.00     0.407 C 
ATOM      3  O   UNL     1      22.832  33.119  12.485  1.00  0.00    -0.225 OA
ATOM      4  H   UNL     1      25.772  34.516  12.428  1.00  0.00     0.167 HD
ENDROOT
BRANCH   1   5
ATOM      5  C   UNL     1      24.179  35.388  11.278  1.00  0.00     0.154 C 
BRANCH   5   6
ATOM      6  C   UNL     1      24.811  35.659   9.972  1.00  0.00     0.165 C 
BRANCH   6   7
ATOM      7  C   UNL     1      26.032  36.444   9.829  1.00  0.00     0.176 C 
BRANCH   7   8
ATOM      8  C   UNL     1      26.858  36.028   8.607  1.00  0.00     0.178 C 
ATOM      9  C   UNL     1      29.096  35.785   8.021  1.00  0.00     0.269 C 
ATOM     10  C   UNL     1      28.496  35.413   6.684  1.00  0.00     0.112 C 
ATOM     11  O   UNL     1      28.181  35.823   9.049  1.00  0.00    -0.332 OA
ATOM     12  C   UNL     1      27.394  36.335   6.265  1.00  0.00     0.145 C 
ATOM     13  C   UNL     1      26.912  37.057   7.537  1.00  0.00     0.142 C 
BRANCH   9  14
ATOM     14  O   UNL     1      29.774  36.980   7.850  1.00  0.00    -0.357 OA
ATOM     15  H   UNL     1      30.597  36.813   7.348  1.00  0.00     0.214 HD
ENDBRANCH   9  14
BRANCH   9  16
ATOM     16  C   UNL     1      30.087  34.727   8.349  1.00  0.00     0.364 C 
ATOM     17  O   UNL     1      29.763  33.742   9.061  1.00  0.00    -0.246 OA
BRANCH  16  18
ATOM     18  O   UNL     1      31.388  34.798   7.882  1.00  0.00    -0.477 OA
ATOM     19  H   UNL     1      31.836  34.015   7.400  1.00  0.00     0.296 HD
ENDBRANCH  16  18
ENDBRANCH   9  16
BRANCH  12  20
ATOM     20  O   UNL     1      27.742  37.233   5.283  1.00  0.00    -0.391 OA
ATOM     21  H   UNL     1      27.338  36.932   4.431  1.00  0.00     0.211 HD
ENDBRANCH  12  20
BRANCH  13  22
ATOM     22  N   UNL     1      25.637  37.642   7.180  1.00  0.00    -0.348 N 
ATOM     23  C   UNL     1      25.351  39.013   7.492  1.00  0.00     0.217 C 
ATOM     24  H   UNL     1      24.889  37.114   6.692  1.00  0.00     0.163 HD
ATOM     25  C   UNL     1      24.071  39.675   7.157  1.00  0.00     0.114 C 
ATOM     26  O   UNL     1      26.240  39.665   8.078  1.00  0.00    -0.275 OA
ENDBRANCH  13  22
ENDBRANCH   7   8
BRANCH   7  27
ATOM     27  O   UNL     1      26.791  36.428  10.971  1.00  0.00    -0.388 OA
ATOM     28  H   UNL     1      27.593  35.861  10.955  1.00  0.00     0.211 HD
ENDBRANCH   7  27
ENDBRANCH   6   7
BRANCH   6  29
ATOM     29  O   UNL     1      23.754  36.123   9.137  1.00  0.00    -0.388 OA
ATOM     30  H   UNL     1      23.637  35.503   8.371  1.00  0.00     0.211 HD
ENDBRANCH   6  29
ENDBRANCH   5   6
ENDBRANCH   1   5
BRANCH   2  31
ATOM     31  O   UNL     1      24.736  32.522  13.621  1.00  0.00    -0.443 OA
BRANCH  31  32
ATOM     32  C   UNL     1      24.999  33.059  14.902  1.00  0.00     0.294 C 
BRANCH  32  33
ATOM     33  C   UNL     1      26.448  32.867  15.253  1.00  0.00     0.121 A 
ATOM     34  C   UNL     1      27.465  33.791  15.150  1.00  0.00     0.144 A 
ATOM     35  N   UNL     1      27.046  31.752  15.737  1.00  0.00    -0.131 NA
ATOM     36  N   UNL     1      28.632  33.240  15.562  1.00  0.00    -0.220 N 
ATOM     37  N   UNL     1      28.321  32.008  15.905  1.00  0.00    -0.062 NA
BRANCH  36  38
ATOM     38  C   UNL     1      29.909  33.872  15.606  1.00  0.00     0.067 A 
ATOM     39  C   UNL     1      31.046  33.262  15.120  1.00  0.00     0.035 A 
ATOM     40  C   UNL     1      30.061  35.137  16.142  1.00  0.00     0.035 A 
ATOM     41  C   UNL     1      32.273  33.892  15.172  1.00  0.00     0.088 A 
ATOM     42  C   UNL     1      31.288  35.769  16.195  1.00  0.00     0.088 A 
ATOM     43  C   UNL     1      32.427  35.161  15.710  1.00  0.00     0.269 A 
BRANCH  43  44
ATOM     44  N   UNL     1      33.680  35.815  15.766  1.00  0.00     0.062 N 
ATOM     45  O   UNL     1      33.731  36.966  16.231  1.00  0.00    -0.258 OA
ATOM     46  O   UNL     1      34.850  35.253  15.338  1.00  0.00    -0.258 OA
ENDBRANCH  43  44
ENDBRANCH  36  38
ENDBRANCH  32  33
ENDBRANCH  31  32
ENDBRANCH   2  31
TORSDOF 16
BEGIN_RES LYS A 131
REMARK  4 active torsions:
REMARK  status: ('A' for Active; 'I' for Inactive)
REMARK    1  A    between atoms: CA   and  CB  
REMARK    2  A    between atoms: CB   and  CG  
REMARK    3  A    between atoms: CG   and  CD  
REMARK    4  A    between atoms: CD   and  CE  
ROOT
ATOM      1  CA  LYS A 131      29.867  25.555  16.977  1.00 20.52     0.186 C 
ENDROOT
BRANCH   1   2
ATOM      2  CB  LYS A 131      28.345  25.722  17.026  1.00 20.94     0.034 C 
BRANCH   2   3
ATOM      3  CG  LYS A 131      27.601  24.405  16.866  1.00 22.96     0.005 C 
BRANCH   3   4
ATOM      4  CD  LYS A 131      26.506  24.246  17.885  1.00 24.33     0.041 C 
BRANCH   4   5
ATOM      5  CE  LYS A 131      25.150  24.338  17.193  1.00 26.91     0.338 C 
ATOM      6  NZ  LYS A 131      24.186  23.400  17.816  1.00 27.40     0.618 N 
ENDBRANCH   4   5
ENDBRANCH   3   4
ENDBRANCH   2   3
ENDBRANCH   1   2
END_RES LYS A 131
BEGIN_RES LYS A 135
REMARK  4 active torsions:
REMARK  status: ('A' for Active; 'I' for Inactive)
REMARK    5  A    between atoms: CA   and  CB  
REMARK    6  A    between atoms: CB   and  CG  
REMARK    7  A    between atoms: CG   and  CD  
REMARK    8  A    between atoms: CD   and  CE  
ROOT
ATOM      7  CA  LYS A 135      33.193  34.663   9.290  1.00 25.02     0.186 C 
ENDROOT
BRANCH   7   8
ATOM      8  CB  LYS A 135      32.060  35.360  10.034  1.00 26.63     0.034 C 
BRANCH   8   9
ATOM      9  CG  LYS A 135      32.116  35.174  11.528  1.00 29.45     0.005 C 
BRANCH   9  10
ATOM     10  CD  LYS A 135      31.691  36.447  12.244  1.00 32.00     0.041 C 
BRANCH  10  11
ATOM     11  CE  LYS A 135      30.194  36.443  12.493  1.00 34.25     0.338 C 
ATOM     12  NZ  LYS A 135      29.624  35.079  12.313  1.00 35.99     0.618 N 
ENDBRANCH  10  11
ENDBRANCH   9  10
ENDBRANCH   8   9
ENDBRANCH   7   8
END_RES LYS A 135
