REMARK VINA RESULT:    -3.622      4.177      8.859
REMARK INTER + INTRA:         -15.667
REMARK INTER:                  -8.353
REMARK INTRA:                  -7.313
REMARK UNBOUND:                -8.446
REMARK SMILES CC(=O)N[C@@H]1[C@@H](O)C[C@](O)(C(=O)O)O[C@H]1C(O)[C@H](O)CNC(=O)OCc1cn(CC(O)Cn2ccnc2[N+](=O)[O-])nn1
REMARK SMILES IDX 24 1 22 2 21 3 23 5 20 6 18 7 16 8 15 9 9 10 8 11 14 12 6 13
REMARK SMILES IDX 5 14 10 15 11 17 12 18 13 19 7 21 4 23 2 24 1 26 3 27 17 28
REMARK SMILES IDX 19 30 25 32 26 33 27 34 42 35 28 36 41 37 29 38 30 39 31 40
REMARK SMILES IDX 32 42 33 43 34 44 37 45 35 46 36 47 38 48 39 49 40 50
REMARK H PARENT 21 4 10 16 13 20 7 22 4 25 17 29 19 31 31 41
REMARK Flexibility Score: inf
ROOT
ATOM      1  O   UNL     1      26.349  32.745  16.405  1.00  0.00    -0.443 OA
ENDROOT
BRANCH   1   2
ATOM      2  C   UNL     1      27.696  32.347  16.433  1.00  0.00     0.407 C 
ATOM      3  N   UNL     1      28.406  32.142  17.620  1.00  0.00    -0.319 N 
ATOM      4  H   UNL     1      27.884  32.304  18.534  1.00  0.00     0.167 HD
ATOM      5  O   UNL     1      28.238  32.180  15.332  1.00  0.00    -0.225 OA
BRANCH   3   6
ATOM      6  C   UNL     1      29.788  31.731  17.692  1.00  0.00     0.154 C 
BRANCH   6   7
ATOM      7  C   UNL     1      30.650  32.964  17.665  1.00  0.00     0.165 C 
BRANCH   7   8
ATOM      8  C   UNL     1      31.499  32.917  16.417  1.00  0.00     0.176 C 
BRANCH   8   9
ATOM      9  C   UNL     1      31.352  34.198  15.606  1.00  0.00     0.178 C 
ATOM     10  C   UNL     1      31.080  34.839  13.384  1.00  0.00     0.269 C 
ATOM     11  C   UNL     1      31.950  36.024  13.759  1.00  0.00     0.112 C 
ATOM     12  O   UNL     1      31.261  33.826  14.293  1.00  0.00    -0.332 OA
ATOM     13  C   UNL     1      33.124  35.544  14.583  1.00  0.00     0.145 C 
ATOM     14  C   UNL     1      32.548  35.080  15.916  1.00  0.00     0.142 C 
BRANCH  10  15
ATOM     15  O   UNL     1      31.464  34.332  12.127  1.00  0.00    -0.357 OA
ATOM     16  H   UNL     1      30.922  34.805  11.454  1.00  0.00     0.214 HD
ENDBRANCH  10  15
BRANCH  10  17
ATOM     17  C   UNL     1      29.655  35.189  13.324  1.00  0.00     0.364 C 
ATOM     18  O   UNL     1      28.853  34.472  12.704  1.00  0.00    -0.246 OA
BRANCH  17  19
ATOM     19  O   UNL     1      29.189  36.325  13.960  1.00  0.00    -0.477 OA
ATOM     20  H   UNL     1      28.297  36.718  13.723  1.00  0.00     0.296 HD
ENDBRANCH  17  19
ENDBRANCH  10  17
BRANCH  13  21
ATOM     21  O   UNL     1      33.768  34.449  14.031  1.00  0.00    -0.391 OA
ATOM     22  H   UNL     1      33.798  33.711  14.672  1.00  0.00     0.211 HD
ENDBRANCH  13  21
BRANCH  14  23
ATOM     23  N   UNL     1      32.184  36.231  16.692  1.00  0.00    -0.348 N 
ATOM     24  C   UNL     1      32.574  36.344  18.042  1.00  0.00     0.217 C 
ATOM     25  H   UNL     1      31.618  37.033  16.306  1.00  0.00     0.163 HD
ATOM     26  C   UNL     1      32.191  37.545  18.844  1.00  0.00     0.114 C 
ATOM     27  O   UNL     1      33.251  35.440  18.596  1.00  0.00    -0.275 OA
ENDBRANCH  14  23
ENDBRANCH   8   9
BRANCH   8  28
ATOM     28  O   UNL     1      31.041  31.888  15.618  1.00  0.00    -0.388 OA
ATOM     29  H   UNL     1      31.485  31.028  15.804  1.00  0.00     0.211 HD
ENDBRANCH   8  28
ENDBRANCH   7   8
BRANCH   7  30
ATOM     30  O   UNL     1      31.421  33.095  18.816  1.00  0.00    -0.388 OA
ATOM     31  H   UNL     1      31.729  34.035  18.846  1.00  0.00     0.211 HD
ENDBRANCH   7  30
ENDBRANCH   6   7
ENDBRANCH   3   6
ENDBRANCH   1   2
BRANCH   1  32
ATOM     32  C   UNL     1      26.027  34.144  16.451  1.00  0.00     0.294 C 
BRANCH  32  33
ATOM     33  C   UNL     1      25.942  34.719  15.112  1.00  0.00     0.120 A 
ATOM     34  C   UNL     1      25.534  34.065  13.976  1.00  0.00     0.138 A 
ATOM     35  N   UNL     1      26.250  35.982  14.780  1.00  0.00    -0.132 NA
ATOM     36  N   UNL     1      25.608  34.958  12.979  1.00  0.00    -0.249 N 
ATOM     37  N   UNL     1      26.036  36.092  13.479  1.00  0.00    -0.067 NA
BRANCH  36  38
ATOM     38  C   UNL     1      25.255  34.663  11.579  1.00  0.00     0.181 C 
BRANCH  38  39
ATOM     39  C   UNL     1      25.060  35.953  10.815  1.00  0.00     0.170 C 
BRANCH  39  40
ATOM     40  O   UNL     1      23.872  36.516  11.331  1.00  0.00    -0.388 OA
ATOM     41  H   UNL     1      23.660  37.377  10.924  1.00  0.00     0.211 HD
ENDBRANCH  39  40
BRANCH  39  42
ATOM     42  C   UNL     1      24.924  35.648   9.357  1.00  0.00     0.239 C 
BRANCH  42  43
ATOM     43  N   UNL     1      25.184  36.881   8.608  1.00  0.00    -0.227 N 
ATOM     44  C   UNL     1      26.399  37.378   8.283  1.00  0.00     0.204 A 
ATOM     45  C   UNL     1      24.242  37.676   8.131  1.00  0.00     0.434 A 
ATOM     46  C   UNL     1      26.196  38.522   7.581  1.00  0.00     0.245 A 
ATOM     47  N   UNL     1      24.878  38.696   7.492  1.00  0.00    -0.074 NA
BRANCH  45  48
ATOM     48  N   UNL     1      22.815  37.536   8.241  1.00  0.00    -0.047 N 
ATOM     49  O   UNL     1      22.163  37.971   9.204  1.00  0.00    -0.390 OA
ATOM     50  O   UNL     1      22.128  36.891   7.233  1.00  0.00    -0.390 OA
ENDBRANCH  45  48
ENDBRANCH  42  43
ENDBRANCH  39  42
ENDBRANCH  38  39
ENDBRANCH  36  38
ENDBRANCH  32  33
ENDBRANCH   1  32
TORSDOF 20
BEGIN_RES LYS A 131
REMARK  4 active torsions:
REMARK  status: ('A' for Active; 'I' for Inactive)
REMARK    1  A    between atoms: CA   and  CB  
REMARK    2  A    between atoms: CB   and  CG  
REMARK    3  A    between atoms: CG   and  CD  
REMARK    4  A    between atoms: CD   and  CE  
ROOT
ATOM      1  CA  LYS A 131      29.867  25.555  16.977  1.00 20.52     0.186 C 
ENDROOT
BRANCH   1   2
ATOM      2  CB  LYS A 131      28.345  25.722  17.026  1.00 20.94     0.034 C 
BRANCH   2   3
ATOM      3  CG  LYS A 131      27.601  24.402  16.894  1.00 22.96     0.005 C 
BRANCH   3   4
ATOM      4  CD  LYS A 131      26.151  24.529  17.270  1.00 24.33     0.041 C 
BRANCH   4   5
ATOM      5  CE  LYS A 131      26.037  24.827  18.762  1.00 26.91     0.338 C 
ATOM      6  NZ  LYS A 131      25.497  23.652  19.486  1.00 27.40     0.618 N 
ENDBRANCH   4   5
ENDBRANCH   3   4
ENDBRANCH   2   3
ENDBRANCH   1   2
END_RES LYS A 131
BEGIN_RES LYS A 135
REMARK  4 active torsions:
REMARK  status: ('A' for Active; 'I' for Inactive)
REMARK    5  A    between atoms: CA   and  CB  
REMARK    6  A    between atoms: CB   and  CG  
REMARK    7  A    between atoms: CG   and  CD  
REMARK    8  A    between atoms: CD   and  CE  
ROOT
ATOM      7  CA  LYS A 135      33.193  34.663   9.290  1.00 25.02     0.186 C 
ENDROOT
BRANCH   7   8
ATOM      8  CB  LYS A 135      32.060  35.360  10.034  1.00 26.63     0.034 C 
BRANCH   8   9
ATOM      9  CG  LYS A 135      30.859  35.646   9.171  1.00 29.45     0.005 C 
BRANCH   9  10
ATOM     10  CD  LYS A 135      30.285  34.356   8.604  1.00 32.00     0.041 C 
BRANCH  10  11
ATOM     11  CE  LYS A 135      28.785  34.477   8.418  1.00 34.25     0.338 C 
ATOM     12  NZ  LYS A 135      28.051  33.742   9.486  1.00 35.99     0.618 N 
ENDBRANCH  10  11
ENDBRANCH   9  10
ENDBRANCH   8   9
ENDBRANCH   7   8
END_RES LYS A 135
