REMARK VINA RESULT:    -4.814      4.450      7.535
REMARK INTER + INTRA:         -13.496
REMARK INTER:                  -7.060
REMARK INTRA:                  -6.435
REMARK UNBOUND:                -5.164
REMARK SMILES CC(=O)N[C@@H]1[C@@H](O)C[C@](O)(C(=O)O)O[C@H]1C(O)[C@H](O)CNC(=O)OCc1cn(-c2cccnc2)nn1
REMARK SMILES IDX 20 1 18 2 16 3 15 4 9 5 8 6 14 7 6 8 5 9 10 10 11 12 12 13
REMARK SMILES IDX 13 14 7 16 4 18 2 19 1 21 3 22 17 23 19 25 21 27 22 28 23 30
REMARK SMILES IDX 24 31 25 32 26 33 27 34 36 35 28 36 35 37 29 38 30 39 34 40
REMARK SMILES IDX 31 41 33 42 32 43
REMARK H PARENT 10 11 13 15 7 17 4 20 17 24 19 26 21 29
REMARK Flexibility Score: inf
ROOT
ATOM      1  C   UNL     1      23.590  30.052  18.920  1.00  0.00     0.154 C 
ENDROOT
BRANCH   1   2
ATOM      2  C   UNL     1      22.955  30.963  17.935  1.00  0.00     0.165 C 
BRANCH   2   3
ATOM      3  C   UNL     1      22.309  30.264  16.800  1.00  0.00     0.176 C 
BRANCH   3   4
ATOM      4  C   UNL     1      22.827  30.512  15.427  1.00  0.00     0.178 C 
ATOM      5  C   UNL     1      23.240  32.012  13.778  1.00  0.00     0.269 C 
ATOM      6  C   UNL     1      23.540  30.914  12.821  1.00  0.00     0.112 C 
ATOM      7  O   UNL     1      22.449  31.688  14.864  1.00  0.00    -0.332 OA
ATOM      8  C   UNL     1      23.641  29.538  13.381  1.00  0.00     0.145 C 
ATOM      9  C   UNL     1      22.567  29.363  14.493  1.00  0.00     0.142 C 
BRANCH   5  10
ATOM     10  O   UNL     1      22.472  32.961  13.030  1.00  0.00    -0.357 OA
ATOM     11  H   UNL     1      22.833  33.834  13.309  1.00  0.00     0.214 HD
ENDBRANCH   5  10
BRANCH   5  12
ATOM     12  C   UNL     1      24.450  32.745  14.216  1.00  0.00     0.364 C 
ATOM     13  O   UNL     1      24.480  33.998  14.137  1.00  0.00    -0.246 OA
BRANCH  12  14
ATOM     14  O   UNL     1      25.595  32.147  14.727  1.00  0.00    -0.477 OA
ATOM     15  H   UNL     1      25.926  31.316  14.224  1.00  0.00     0.296 HD
ENDBRANCH  12  14
ENDBRANCH   5  12
BRANCH   8  16
ATOM     16  O   UNL     1      23.317  28.582  12.417  1.00  0.00    -0.391 OA
ATOM     17  H   UNL     1      22.336  28.466  12.386  1.00  0.00     0.211 HD
ENDBRANCH   8  16
BRANCH   9  18
ATOM     18  N   UNL     1      22.915  28.137  15.159  1.00  0.00    -0.348 N 
ATOM     19  C   UNL     1      22.063  27.011  15.236  1.00  0.00     0.217 C 
ATOM     20  H   UNL     1      23.860  28.056  15.619  1.00  0.00     0.163 HD
ATOM     21  C   UNL     1      22.514  25.792  15.945  1.00  0.00     0.114 C 
ATOM     22  O   UNL     1      20.932  27.058  14.703  1.00  0.00    -0.275 OA
ENDBRANCH   9  18
ENDBRANCH   3   4
BRANCH   3  23
ATOM     23  O   UNL     1      20.935  30.156  16.898  1.00  0.00    -0.388 OA
ATOM     24  H   UNL     1      20.471  30.880  17.347  1.00  0.00     0.211 HD
ENDBRANCH   3  23
ENDBRANCH   2   3
BRANCH   2  25
ATOM     25  O   UNL     1      23.939  31.810  17.367  1.00  0.00    -0.388 OA
ATOM     26  H   UNL     1      23.470  32.442  16.786  1.00  0.00     0.211 HD
ENDBRANCH   2  25
ENDBRANCH   1   2
BRANCH   1  27
ATOM     27  N   UNL     1      24.969  29.728  18.707  1.00  0.00    -0.319 N 
ATOM     28  C   UNL     1      25.461  28.603  18.057  1.00  0.00     0.407 C 
ATOM     29  H   UNL     1      25.700  30.410  19.080  1.00  0.00     0.167 HD
ATOM     30  O   UNL     1      24.705  27.739  17.592  1.00  0.00    -0.225 OA
BRANCH  28  31
ATOM     31  O   UNL     1      26.834  28.362  17.880  1.00  0.00    -0.443 OA
BRANCH  31  32
ATOM     32  C   UNL     1      27.464  28.655  16.653  1.00  0.00     0.294 C 
BRANCH  32  33
ATOM     33  C   UNL     1      27.787  30.088  16.532  1.00  0.00     0.121 A 
ATOM     34  C   UNL     1      28.922  30.556  15.889  1.00  0.00     0.144 A 
ATOM     35  N   UNL     1      27.145  31.176  16.960  1.00  0.00    -0.131 NA
ATOM     36  N   UNL     1      28.928  31.899  15.950  1.00  0.00    -0.219 N 
ATOM     37  N   UNL     1      27.850  32.258  16.598  1.00  0.00    -0.062 NA
BRANCH  36  38
ATOM     38  C   UNL     1      29.916  32.784  15.412  1.00  0.00     0.085 A 
ATOM     39  C   UNL     1      31.201  32.826  15.924  1.00  0.00     0.031 A 
ATOM     40  C   UNL     1      29.594  33.620  14.362  1.00  0.00     0.139 A 
ATOM     41  C   UNL     1      32.131  33.707  15.367  1.00  0.00     0.022 A 
ATOM     42  N   UNL     1      30.520  34.469  13.838  1.00  0.00    -0.262 NA
ATOM     43  C   UNL     1      31.776  34.531  14.314  1.00  0.00     0.111 A 
ENDBRANCH  36  38
ENDBRANCH  32  33
ENDBRANCH  31  32
ENDBRANCH  28  31
ENDBRANCH   1  27
TORSDOF 15
BEGIN_RES LYS A 131
REMARK  4 active torsions:
REMARK  status: ('A' for Active; 'I' for Inactive)
REMARK    1  A    between atoms: CA   and  CB  
REMARK    2  A    between atoms: CB   and  CG  
REMARK    3  A    between atoms: CG   and  CD  
REMARK    4  A    between atoms: CD   and  CE  
ROOT
ATOM      1  CA  LYS A 131      29.867  25.555  16.977  1.00 20.52     0.186 C 
ENDROOT
BRANCH   1   2
ATOM      2  CB  LYS A 131      28.345  25.722  17.026  1.00 20.94     0.034 C 
BRANCH   2   3
ATOM      3  CG  LYS A 131      27.602  24.399  16.926  1.00 22.96     0.005 C 
BRANCH   3   4
ATOM      4  CD  LYS A 131      26.151  24.535  17.296  1.00 24.33     0.041 C 
BRANCH   4   5
ATOM      5  CE  LYS A 131      25.928  23.973  18.697  1.00 26.91     0.338 C 
ATOM      6  NZ  LYS A 131      25.527  25.052  19.631  1.00 27.40     0.618 N 
ENDBRANCH   4   5
ENDBRANCH   3   4
ENDBRANCH   2   3
ENDBRANCH   1   2
END_RES LYS A 131
BEGIN_RES LYS A 135
REMARK  4 active torsions:
REMARK  status: ('A' for Active; 'I' for Inactive)
REMARK    5  A    between atoms: CA   and  CB  
REMARK    6  A    between atoms: CB   and  CG  
REMARK    7  A    between atoms: CG   and  CD  
REMARK    8  A    between atoms: CD   and  CE  
ROOT
ATOM      7  CA  LYS A 135      33.193  34.663   9.290  1.00 25.02     0.186 C 
ENDROOT
BRANCH   7   8
ATOM      8  CB  LYS A 135      32.060  35.360  10.034  1.00 26.63     0.034 C 
BRANCH   8   9
ATOM      9  CG  LYS A 135      30.820  35.553   9.199  1.00 29.45     0.005 C 
BRANCH   9  10
ATOM     10  CD  LYS A 135      30.101  34.229   8.993  1.00 32.00     0.041 C 
BRANCH  10  11
ATOM     11  CE  LYS A 135      28.663  34.464   8.570  1.00 34.25     0.338 C 
ATOM     12  NZ  LYS A 135      27.718  33.708   9.439  1.00 35.99     0.618 N 
ENDBRANCH  10  11
ENDBRANCH   9  10
ENDBRANCH   8   9
ENDBRANCH   7   8
END_RES LYS A 135
