REMARK VINA RESULT:    -6.311      0.000      0.000
REMARK INTER + INTRA:         -15.838
REMARK INTER:                 -10.696
REMARK INTRA:                  -5.141
REMARK UNBOUND:                -3.993
REMARK SMILES CC(=O)N[C@@H]1[C@@H](O)C[C@](O)(C(=O)O)O[C@H]1C(O)[C@H](O)CNC(=O)OCc1cn(Cc2ccc(C(=O)O)cc2)nn1
REMARK SMILES IDX 21 1 22 2 23 3 20 5 18 6 16 7 15 8 9 9 8 10 14 11 6 12 5 13
REMARK SMILES IDX 10 14 11 16 12 17 13 18 7 20 4 22 2 23 1 25 3 26 17 27 19 29
REMARK SMILES IDX 24 31 25 32 26 33 27 34 40 35 28 36 39 37 29 38 30 39 31 40
REMARK SMILES IDX 38 41 32 42 37 43 33 44 34 45 35 46 36 47
REMARK H PARENT 21 4 10 15 13 19 7 21 4 24 17 28 19 30 36 48
REMARK Flexibility Score: inf
ROOT
ATOM      1  N   UNL     1      25.909  27.916  18.138  1.00  0.00    -0.319 N 
ATOM      2  C   UNL     1      25.394  29.074  17.534  1.00  0.00     0.407 C 
ATOM      3  O   UNL     1      24.933  29.988  18.238  1.00  0.00    -0.225 OA
ATOM      4  H   UNL     1      26.281  27.179  17.464  1.00  0.00     0.167 HD
ENDROOT
BRANCH   1   5
ATOM      5  C   UNL     1      25.952  27.702  19.560  1.00  0.00     0.154 C 
BRANCH   5   6
ATOM      6  C   UNL     1      27.383  27.559  20.005  1.00  0.00     0.165 C 
BRANCH   6   7
ATOM      7  C   UNL     1      28.106  28.858  20.164  1.00  0.00     0.176 C 
BRANCH   7   8
ATOM      8  C   UNL     1      29.359  28.668  21.038  1.00  0.00     0.178 C 
ATOM      9  C   UNL     1      31.443  27.676  20.908  1.00  0.00     0.269 C 
ATOM     10  C   UNL     1      31.100  26.567  21.891  1.00  0.00     0.112 C 
ATOM     11  O   UNL     1      30.278  28.002  20.256  1.00  0.00    -0.332 OA
ATOM     12  C   UNL     1      30.037  27.022  22.838  1.00  0.00     0.145 C 
ATOM     13  C   UNL     1      28.944  27.824  22.188  1.00  0.00     0.142 C 
BRANCH   9  14
ATOM     14  O   UNL     1      32.288  27.037  19.954  1.00  0.00    -0.357 OA
ATOM     15  H   UNL     1      33.091  26.684  20.451  1.00  0.00     0.214 HD
ENDBRANCH   9  14
BRANCH   9  16
ATOM     16  C   UNL     1      32.163  28.778  21.550  1.00  0.00     0.364 C 
ATOM     17  O   UNL     1      32.300  29.879  20.914  1.00  0.00    -0.246 OA
BRANCH  16  18
ATOM     18  O   UNL     1      32.733  28.767  22.807  1.00  0.00    -0.477 OA
ATOM     19  H   UNL     1      32.148  29.051  23.581  1.00  0.00     0.296 HD
ENDBRANCH  16  18
ENDBRANCH   9  16
BRANCH  12  20
ATOM     20  O   UNL     1      29.433  25.854  23.361  1.00  0.00    -0.391 OA
ATOM     21  H   UNL     1      29.150  25.324  22.575  1.00  0.00     0.211 HD
ENDBRANCH  12  20
BRANCH  13  22
ATOM     22  N   UNL     1      28.217  28.555  23.206  1.00  0.00    -0.348 N 
ATOM     23  C   UNL     1      26.999  28.078  23.750  1.00  0.00     0.217 C 
ATOM     24  H   UNL     1      28.574  29.464  23.572  1.00  0.00     0.163 HD
ATOM     25  C   UNL     1      26.260  28.855  24.809  1.00  0.00     0.114 C 
ATOM     26  O   UNL     1      26.544  26.994  23.337  1.00  0.00    -0.275 OA
ENDBRANCH  13  22
ENDBRANCH   7   8
BRANCH   7  27
ATOM     27  O   UNL     1      28.402  29.504  18.988  1.00  0.00    -0.388 OA
ATOM     28  H   UNL     1      28.904  30.338  19.177  1.00  0.00     0.211 HD
ENDBRANCH   7  27
ENDBRANCH   6   7
BRANCH   6  29
ATOM     29  O   UNL     1      28.116  26.707  19.168  1.00  0.00    -0.388 OA
ATOM     30  H   UNL     1      27.633  25.836  19.089  1.00  0.00     0.211 HD
ENDBRANCH   6  29
ENDBRANCH   5   6
ENDBRANCH   1   5
BRANCH   2  31
ATOM     31  O   UNL     1      25.365  29.270  16.159  1.00  0.00    -0.443 OA
BRANCH  31  32
ATOM     32  C   UNL     1      25.769  30.460  15.526  1.00  0.00     0.294 C 
BRANCH  32  33
ATOM     33  C   UNL     1      27.149  30.800  15.931  1.00  0.00     0.120 A 
ATOM     34  C   UNL     1      27.540  31.988  16.551  1.00  0.00     0.138 A 
ATOM     35  N   UNL     1      28.291  30.097  15.803  1.00  0.00    -0.132 NA
ATOM     36  N   UNL     1      28.861  31.951  16.764  1.00  0.00    -0.248 N 
ATOM     37  N   UNL     1      29.291  30.801  16.304  1.00  0.00    -0.067 NA
BRANCH  36  38
ATOM     38  C   UNL     1      29.676  33.006  17.384  1.00  0.00     0.181 C 
BRANCH  38  39
ATOM     39  C   UNL     1      30.397  33.667  16.250  1.00  0.00    -0.026 A 
ATOM     40  C   UNL     1      31.750  33.512  16.134  1.00  0.00     0.006 A 
ATOM     41  C   UNL     1      29.736  34.433  15.323  1.00  0.00     0.006 A 
ATOM     42  C   UNL     1      32.454  34.120  15.089  1.00  0.00     0.016 A 
ATOM     43  C   UNL     1      30.434  35.038  14.284  1.00  0.00     0.016 A 
ATOM     44  C   UNL     1      31.801  34.888  14.156  1.00  0.00     0.059 A 
BRANCH  44  45
ATOM     45  C   UNL     1      32.521  35.525  13.062  1.00  0.00     0.335 C 
ATOM     46  O   UNL     1      32.188  36.628  12.576  1.00  0.00    -0.246 OA
BRANCH  45  47
ATOM     47  O   UNL     1      33.635  34.890  12.523  1.00  0.00    -0.478 OA
ATOM     48  H   UNL     1      33.708  34.710  11.536  1.00  0.00     0.297 HD
ENDBRANCH  45  47
ENDBRANCH  44  45
ENDBRANCH  38  39
ENDBRANCH  36  38
ENDBRANCH  32  33
ENDBRANCH  31  32
ENDBRANCH   2  31
TORSDOF 18
BEGIN_RES LYS A 131
REMARK  4 active torsions:
REMARK  status: ('A' for Active; 'I' for Inactive)
REMARK    1  A    between atoms: CA   and  CB  
REMARK    2  A    between atoms: CB   and  CG  
REMARK    3  A    between atoms: CG   and  CD  
REMARK    4  A    between atoms: CD   and  CE  
ROOT
ATOM      1  CA  LYS A 131      29.867  25.555  16.977  1.00 20.52     0.186 C 
ENDROOT
BRANCH   1   2
ATOM      2  CB  LYS A 131      28.345  25.722  17.026  1.00 20.94     0.034 C 
BRANCH   2   3
ATOM      3  CG  LYS A 131      27.599  24.433  16.716  1.00 22.96     0.005 C 
BRANCH   3   4
ATOM      4  CD  LYS A 131      26.208  24.433  17.288  1.00 24.33     0.041 C 
BRANCH   4   5
ATOM      5  CE  LYS A 131      26.157  23.510  18.501  1.00 26.91     0.338 C 
ATOM      6  NZ  LYS A 131      25.481  24.182  19.636  1.00 27.40     0.618 N 
ENDBRANCH   4   5
ENDBRANCH   3   4
ENDBRANCH   2   3
ENDBRANCH   1   2
END_RES LYS A 131
BEGIN_RES LYS A 135
REMARK  4 active torsions:
REMARK  status: ('A' for Active; 'I' for Inactive)
REMARK    5  A    between atoms: CA   and  CB  
REMARK    6  A    between atoms: CB   and  CG  
REMARK    7  A    between atoms: CG   and  CD  
REMARK    8  A    between atoms: CD   and  CE  
ROOT
ATOM      7  CA  LYS A 135      33.193  34.663   9.290  1.00 25.02     0.186 C 
ENDROOT
BRANCH   7   8
ATOM      8  CB  LYS A 135      32.060  35.360  10.034  1.00 26.63     0.034 C 
BRANCH   8   9
ATOM      9  CG  LYS A 135      30.694  35.054   9.475  1.00 29.45     0.005 C 
BRANCH   9  10
ATOM     10  CD  LYS A 135      29.687  34.857  10.598  1.00 32.00     0.041 C 
BRANCH  10  11
ATOM     11  CE  LYS A 135      28.271  34.984  10.071  1.00 34.25     0.338 C 
ATOM     12  NZ  LYS A 135      27.772  33.680   9.552  1.00 35.99     0.618 N 
ENDBRANCH  10  11
ENDBRANCH   9  10
ENDBRANCH   8   9
ENDBRANCH   7   8
END_RES LYS A 135
