REMARK VINA RESULT:    -5.581      0.000      0.000
REMARK INTER + INTRA:         -14.672
REMARK INTER:                  -9.096
REMARK INTRA:                  -5.576
REMARK UNBOUND:                -5.012
REMARK SMILES CC(=O)N[C@@H]1[C@@H](O)C[C@](O)(C(=O)O)O[C@H]1C(O)[C@H](O)CNC(=O)OCc1cn(-c2ccc(C)cc2)nn1
REMARK SMILES IDX 20 1 18 2 16 3 15 4 9 5 8 6 14 7 6 8 5 9 10 10 11 12 12 13
REMARK SMILES IDX 13 14 7 16 4 18 2 19 1 21 3 22 17 23 19 25 21 27 22 28 23 30
REMARK SMILES IDX 24 31 25 32 26 33 27 34 37 35 28 36 36 37 29 38 30 39 35 40
REMARK SMILES IDX 31 41 34 42 32 43 33 44
REMARK H PARENT 10 11 13 15 7 17 4 20 17 24 19 26 21 29
REMARK Flexibility Score: inf
ROOT
ATOM      1  C   UNL     1      30.147  33.870  14.834  1.00  0.00     0.154 C 
ENDROOT
BRANCH   1   2
ATOM      2  C   UNL     1      30.183  32.403  14.948  1.00  0.00     0.165 C 
BRANCH   2   3
ATOM      3  C   UNL     1      29.138  31.700  15.754  1.00  0.00     0.176 C 
BRANCH   3   4
ATOM      4  C   UNL     1      29.399  31.556  17.220  1.00  0.00     0.178 C 
ATOM      5  C   UNL     1      27.329  30.775  17.992  1.00  0.00     0.269 C 
ATOM      6  C   UNL     1      27.154  31.931  18.961  1.00  0.00     0.112 C 
ATOM      7  O   UNL     1      28.625  30.489  17.699  1.00  0.00    -0.332 OA
ATOM      8  C   UNL     1      27.966  33.117  18.466  1.00  0.00     0.145 C 
ATOM      9  C   UNL     1      29.364  32.732  18.106  1.00  0.00     0.142 C 
BRANCH   5  10
ATOM     10  O   UNL     1      26.525  31.038  16.909  1.00  0.00    -0.357 OA
ATOM     11  H   UNL     1      25.948  31.838  17.009  1.00  0.00     0.214 HD
ENDBRANCH   5  10
BRANCH   5  12
ATOM     12  C   UNL     1      26.772  29.582  18.703  1.00  0.00     0.364 C 
ATOM     13  O   UNL     1      27.428  28.967  19.596  1.00  0.00    -0.246 OA
BRANCH  12  14
ATOM     14  O   UNL     1      25.509  29.121  18.393  1.00  0.00    -0.477 OA
ATOM     15  H   UNL     1      25.411  28.235  17.890  1.00  0.00     0.296 HD
ENDBRANCH  12  14
ENDBRANCH   5  12
BRANCH   8  16
ATOM     16  O   UNL     1      27.319  33.511  17.294  1.00  0.00    -0.391 OA
ATOM     17  H   UNL     1      26.991  34.445  17.353  1.00  0.00     0.211 HD
ENDBRANCH   8  16
BRANCH   9  18
ATOM     18  N   UNL     1      30.197  32.416  19.252  1.00  0.00    -0.348 N 
ATOM     19  C   UNL     1      31.210  33.263  19.730  1.00  0.00     0.217 C 
ATOM     20  H   UNL     1      29.995  31.504  19.711  1.00  0.00     0.163 HD
ATOM     21  C   UNL     1      32.072  32.970  20.891  1.00  0.00     0.114 C 
ATOM     22  O   UNL     1      31.370  34.331  19.109  1.00  0.00    -0.275 OA
ENDBRANCH   9  18
ENDBRANCH   3   4
BRANCH   3  23
ATOM     23  O   UNL     1      29.270  30.296  15.335  1.00  0.00    -0.388 OA
ATOM     24  H   UNL     1      29.217  29.753  16.166  1.00  0.00     0.211 HD
ENDBRANCH   3  23
ENDBRANCH   2   3
BRANCH   2  25
ATOM     25  O   UNL     1      31.467  31.920  15.152  1.00  0.00    -0.388 OA
ATOM     26  H   UNL     1      31.473  31.142  15.790  1.00  0.00     0.211 HD
ENDBRANCH   2  25
ENDBRANCH   1   2
BRANCH   1  27
ATOM     27  N   UNL     1      28.844  34.430  14.468  1.00  0.00    -0.319 N 
ATOM     28  C   UNL     1      28.525  34.766  13.133  1.00  0.00     0.407 C 
ATOM     29  H   UNL     1      28.093  34.614  15.183  1.00  0.00     0.167 HD
ATOM     30  O   UNL     1      29.360  34.590  12.239  1.00  0.00    -0.225 OA
BRANCH  28  31
ATOM     31  O   UNL     1      27.290  35.299  12.762  1.00  0.00    -0.443 OA
BRANCH  31  32
ATOM     32  C   UNL     1      26.226  35.285  13.686  1.00  0.00     0.294 C 
BRANCH  32  33
ATOM     33  C   UNL     1      25.679  33.944  13.915  1.00  0.00     0.121 A 
ATOM     34  C   UNL     1      24.645  33.403  13.179  1.00  0.00     0.144 A 
ATOM     35  N   UNL     1      26.006  32.988  14.807  1.00  0.00    -0.131 NA
ATOM     36  N   UNL     1      24.367  32.160  13.625  1.00  0.00    -0.220 N 
ATOM     37  N   UNL     1      25.211  31.942  14.611  1.00  0.00    -0.062 NA
BRANCH  36  38
ATOM     38  C   UNL     1      23.382  31.237  13.165  1.00  0.00     0.066 A 
ATOM     39  C   UNL     1      23.691  29.907  12.967  1.00  0.00     0.029 A 
ATOM     40  C   UNL     1      22.085  31.623  12.896  1.00  0.00     0.029 A 
ATOM     41  C   UNL     1      22.748  29.001  12.521  1.00  0.00     0.005 A 
ATOM     42  C   UNL     1      21.138  30.724  12.450  1.00  0.00     0.005 A 
ATOM     43  C   UNL     1      21.454  29.396  12.255  1.00  0.00    -0.051 A 
ATOM     44  C   UNL     1      20.405  28.460  11.774  1.00  0.00     0.044 C 
ENDBRANCH  36  38
ENDBRANCH  32  33
ENDBRANCH  31  32
ENDBRANCH  28  31
ENDBRANCH   1  27
TORSDOF 15
BEGIN_RES LYS A 131
REMARK  4 active torsions:
REMARK  status: ('A' for Active; 'I' for Inactive)
REMARK    1  A    between atoms: CA   and  CB  
REMARK    2  A    between atoms: CB   and  CG  
REMARK    3  A    between atoms: CG   and  CD  
REMARK    4  A    between atoms: CD   and  CE  
ROOT
ATOM      1  CA  LYS A 131      29.867  25.555  16.977  1.00 20.52     0.186 C 
ENDROOT
BRANCH   1   2
ATOM      2  CB  LYS A 131      28.345  25.722  17.026  1.00 20.94     0.034 C 
BRANCH   2   3
ATOM      3  CG  LYS A 131      27.612  24.404  17.225  1.00 22.96     0.005 C 
BRANCH   3   4
ATOM      4  CD  LYS A 131      26.189  24.608  17.666  1.00 24.33     0.041 C 
BRANCH   4   5
ATOM      5  CE  LYS A 131      25.360  23.384  17.292  1.00 26.91     0.338 C 
ATOM      6  NZ  LYS A 131      23.995  23.787  16.879  1.00 27.40     0.618 N 
ENDBRANCH   4   5
ENDBRANCH   3   4
ENDBRANCH   2   3
ENDBRANCH   1   2
END_RES LYS A 131
BEGIN_RES LYS A 135
REMARK  4 active torsions:
REMARK  status: ('A' for Active; 'I' for Inactive)
REMARK    5  A    between atoms: CA   and  CB  
REMARK    6  A    between atoms: CB   and  CG  
REMARK    7  A    between atoms: CG   and  CD  
REMARK    8  A    between atoms: CD   and  CE  
ROOT
ATOM      7  CA  LYS A 135      33.193  34.663   9.290  1.00 25.02     0.186 C 
ENDROOT
BRANCH   7   8
ATOM      8  CB  LYS A 135      32.060  35.360  10.034  1.00 26.63     0.034 C 
BRANCH   8   9
ATOM      9  CG  LYS A 135      30.844  35.612   9.180  1.00 29.45     0.005 C 
BRANCH   9  10
ATOM     10  CD  LYS A 135      30.215  34.299   8.741  1.00 32.00     0.041 C 
BRANCH  10  11
ATOM     11  CE  LYS A 135      28.744  34.492   8.425  1.00 34.25     0.338 C 
ATOM     12  NZ  LYS A 135      27.886  33.785   9.416  1.00 35.99     0.618 N 
ENDBRANCH  10  11
ENDBRANCH   9  10
ENDBRANCH   8   9
ENDBRANCH   7   8
END_RES LYS A 135
