REMARK VINA RESULT:    -3.593      5.741     10.933
REMARK INTER + INTRA:         -16.721
REMARK INTER:                 -10.824
REMARK INTRA:                  -5.897
REMARK UNBOUND:                -8.298
REMARK SMILES CC(=O)N[C@@H]1[C@@H](O)C[C@](O)(C(=O)O)O[C@H]1C(O)[C@H](O)CNC(=O)OCc1cn(CCCCCCCCCCC(=O)O)nn1
REMARK SMILES IDX 29 1 28 2 26 3 27 4 43 5 42 6 25 7 24 8 22 9 21 10 23 12
REMARK SMILES IDX 20 13 18 14 16 15 15 16 9 17 8 18 14 19 6 20 5 21 10 22
REMARK SMILES IDX 11 24 12 25 13 26 7 28 4 30 2 31 1 33 3 34 17 35 19 37 30 39
REMARK SMILES IDX 31 40 32 41 33 42 34 43 35 44 36 45 37 46 38 47 39 48 40 49
REMARK SMILES IDX 41 50
REMARK H PARENT 21 11 10 23 13 27 7 29 4 32 17 36 19 38 41 51
REMARK Flexibility Score: inf
ROOT
ATOM      1  C   UNL     1      31.153  39.542  11.773  1.00  0.00     0.146 C 
ENDROOT
BRANCH   1   2
ATOM      2  N   UNL     1      30.928  40.129  10.480  1.00  0.00    -0.252 N 
ATOM      3  C   UNL     1      30.632  40.513   8.340  1.00  0.00     0.120 A 
ATOM      4  C   UNL     1      30.866  39.525   9.259  1.00  0.00     0.138 A 
ATOM      5  N   UNL     1      30.558  41.682   9.013  1.00  0.00    -0.132 NA
ATOM      6  N   UNL     1      30.737  41.417  10.279  1.00  0.00    -0.067 NA
BRANCH   3   7
ATOM      7  C   UNL     1      30.493  40.304   6.884  1.00  0.00     0.294 C 
BRANCH   7   8
ATOM      8  O   UNL     1      29.644  41.280   6.319  1.00  0.00    -0.443 OA
BRANCH   8   9
ATOM      9  C   UNL     1      28.384  40.936   5.848  1.00  0.00     0.407 C 
ATOM     10  N   UNL     1      27.487  40.152   6.621  1.00  0.00    -0.319 N 
ATOM     11  H   UNL     1      27.763  39.815   7.568  1.00  0.00     0.167 HD
ATOM     12  O   UNL     1      28.043  41.348   4.686  1.00  0.00    -0.225 OA
BRANCH  10  13
ATOM     13  C   UNL     1      26.199  39.823   6.098  1.00  0.00     0.154 C 
BRANCH  13  14
ATOM     14  C   UNL     1      25.107  39.903   7.144  1.00  0.00     0.165 C 
BRANCH  14  15
ATOM     15  C   UNL     1      25.536  39.189   8.390  1.00  0.00     0.176 C 
BRANCH  15  16
ATOM     16  C   UNL     1      24.896  37.818   8.445  1.00  0.00     0.178 C 
ATOM     17  C   UNL     1      23.092  36.708   9.383  1.00  0.00     0.269 C 
ATOM     18  C   UNL     1      23.958  35.488   9.161  1.00  0.00     0.112 C 
ATOM     19  O   UNL     1      23.806  37.890   9.268  1.00  0.00    -0.332 OA
ATOM     20  C   UNL     1      25.310  35.754   9.763  1.00  0.00     0.145 C 
ATOM     21  C   UNL     1      25.956  36.844   8.894  1.00  0.00     0.142 C 
BRANCH  17  22
ATOM     22  O   UNL     1      22.631  36.636  10.695  1.00  0.00    -0.357 OA
ATOM     23  H   UNL     1      23.371  36.494  11.327  1.00  0.00     0.214 HD
ENDBRANCH  17  22
BRANCH  17  24
ATOM     24  C   UNL     1      21.953  36.622   8.470  1.00  0.00     0.364 C 
ATOM     25  O   UNL     1      21.353  35.528   8.335  1.00  0.00    -0.246 OA
BRANCH  24  26
ATOM     26  O   UNL     1      21.473  37.689   7.721  1.00  0.00    -0.477 OA
ATOM     27  H   UNL     1      22.002  38.575   7.736  1.00  0.00     0.296 HD
ENDBRANCH  24  26
ENDBRANCH  17  24
BRANCH  20  28
ATOM     28  O   UNL     1      25.203  36.141  11.081  1.00  0.00    -0.391 OA
ATOM     29  H   UNL     1      24.348  35.791  11.435  1.00  0.00     0.211 HD
ENDBRANCH  20  28
BRANCH  21  30
ATOM     30  N   UNL     1      26.540  36.147   7.768  1.00  0.00    -0.348 N 
ATOM     31  C   UNL     1      27.804  36.572   7.295  1.00  0.00     0.217 C 
ATOM     32  H   UNL     1      26.057  35.342   7.298  1.00  0.00     0.163 HD
ATOM     33  C   UNL     1      28.442  35.878   6.134  1.00  0.00     0.114 C 
ATOM     34  O   UNL     1      28.391  37.525   7.843  1.00  0.00    -0.275 OA
ENDBRANCH  21  30
ENDBRANCH  15  16
BRANCH  15  35
ATOM     35  O   UNL     1      25.176  39.981   9.485  1.00  0.00    -0.388 OA
ATOM     36  H   UNL     1      24.580  40.714   9.254  1.00  0.00     0.211 HD
ENDBRANCH  15  35
ENDBRANCH  14  15
BRANCH  14  37
ATOM     37  O   UNL     1      23.925  39.315   6.693  1.00  0.00    -0.388 OA
ATOM     38  H   UNL     1      23.899  38.362   6.899  1.00  0.00     0.211 HD
ENDBRANCH  14  37
ENDBRANCH  13  14
ENDBRANCH  10  13
ENDBRANCH   8   9
ENDBRANCH   7   8
ENDBRANCH   3   7
ENDBRANCH   1   2
BRANCH   1  39
ATOM     39  C   UNL     1      30.293  38.315  11.911  1.00  0.00     0.024 C 
BRANCH  39  40
ATOM     40  C   UNL     1      30.955  37.222  12.701  1.00  0.00     0.002 C 
BRANCH  40  41
ATOM     41  C   UNL     1      32.317  36.864  12.162  1.00  0.00     0.000 C 
BRANCH  41  42
ATOM     42  C   UNL     1      32.739  35.502  12.704  1.00  0.00     0.000 C 
BRANCH  42  43
ATOM     43  C   UNL     1      32.063  35.276  14.030  1.00  0.00     0.000 C 
BRANCH  43  44
ATOM     44  C   UNL     1      33.035  35.373  15.171  1.00  0.00     0.000 C 
BRANCH  44  45
ATOM     45  C   UNL     1      32.460  34.762  16.406  1.00  0.00     0.001 C 
BRANCH  45  46
ATOM     46  C   UNL     1      31.749  33.450  16.088  1.00  0.00     0.012 C 
BRANCH  46  47
ATOM     47  C   UNL     1      30.975  32.924  17.267  1.00  0.00     0.122 C 
BRANCH  47  48
ATOM     48  C   UNL     1      30.162  31.773  16.763  1.00  0.00     0.303 C 
ATOM     49  O   UNL     1      29.178  31.307  17.374  1.00  0.00    -0.252 OA
BRANCH  48  50
ATOM     50  O   UNL     1      30.509  31.180  15.548  1.00  0.00    -0.481 OA
ATOM     51  H   UNL     1      29.921  31.334  14.747  1.00  0.00     0.296 HD
ENDBRANCH  48  50
ENDBRANCH  47  48
ENDBRANCH  46  47
ENDBRANCH  45  46
ENDBRANCH  44  45
ENDBRANCH  43  44
ENDBRANCH  42  43
ENDBRANCH  41  42
ENDBRANCH  40  41
ENDBRANCH  39  40
ENDBRANCH   1  39
TORSDOF 26
BEGIN_RES LYS A 131
REMARK  4 active torsions:
REMARK  status: ('A' for Active; 'I' for Inactive)
REMARK    1  A    between atoms: CA   and  CB  
REMARK    2  A    between atoms: CB   and  CG  
REMARK    3  A    between atoms: CG   and  CD  
REMARK    4  A    between atoms: CD   and  CE  
ROOT
ATOM      1  CA  LYS A 131      29.867  25.555  16.977  1.00 20.52     0.186 C 
ENDROOT
BRANCH   1   2
ATOM      2  CB  LYS A 131      28.345  25.722  17.026  1.00 20.94     0.034 C 
BRANCH   2   3
ATOM      3  CG  LYS A 131      27.601  24.403  16.881  1.00 22.96     0.005 C 
BRANCH   3   4
ATOM      4  CD  LYS A 131      26.518  24.248  17.913  1.00 24.33     0.041 C 
BRANCH   4   5
ATOM      5  CE  LYS A 131      25.156  24.262  17.227  1.00 26.91     0.338 C 
ATOM      6  NZ  LYS A 131      24.573  22.900  17.201  1.00 27.40     0.618 N 
ENDBRANCH   4   5
ENDBRANCH   3   4
ENDBRANCH   2   3
ENDBRANCH   1   2
END_RES LYS A 131
BEGIN_RES LYS A 135
REMARK  4 active torsions:
REMARK  status: ('A' for Active; 'I' for Inactive)
REMARK    5  A    between atoms: CA   and  CB  
REMARK    6  A    between atoms: CB   and  CG  
REMARK    7  A    between atoms: CG   and  CD  
REMARK    8  A    between atoms: CD   and  CE  
ROOT
ATOM      7  CA  LYS A 135      33.193  34.663   9.290  1.00 25.02     0.186 C 
ENDROOT
BRANCH   7   8
ATOM      8  CB  LYS A 135      32.060  35.360  10.034  1.00 26.63     0.034 C 
BRANCH   8   9
ATOM      9  CG  LYS A 135      30.778  35.435   9.246  1.00 29.45     0.005 C 
BRANCH   9  10
ATOM     10  CD  LYS A 135      30.164  34.052   9.087  1.00 32.00     0.041 C 
BRANCH  10  11
ATOM     11  CE  LYS A 135      28.743  34.036   9.617  1.00 34.25     0.338 C 
ATOM     12  NZ  LYS A 135      28.651  34.739  10.926  1.00 35.99     0.618 N 
ENDBRANCH  10  11
ENDBRANCH   9  10
ENDBRANCH   8   9
ENDBRANCH   7   8
END_RES LYS A 135
