REMARK VINA RESULT:    -4.814      5.333      9.868
REMARK INTER + INTRA:         -14.331
REMARK INTER:                  -7.691
REMARK INTRA:                  -6.640
REMARK UNBOUND:                -5.578
REMARK SMILES CC(=O)N[C@@H]1[C@@H](O)C[C@](O)(C(=O)O)O[C@H]1C(O)[C@H](O)CNC(=O)OCc1cn(C(C)(C)C(=O)O)nn1
REMARK SMILES IDX 21 1 22 2 23 3 20 5 18 6 16 7 15 8 9 9 8 10 14 11 6 12 5 13
REMARK SMILES IDX 10 14 11 16 12 17 13 18 7 20 4 22 2 23 1 25 3 26 17 27 19 29
REMARK SMILES IDX 24 31 25 32 26 33 27 34 36 35 28 36 35 37 29 38 30 39 31 40
REMARK SMILES IDX 32 41 33 42 34 43
REMARK H PARENT 21 4 10 15 13 19 7 21 4 24 17 28 19 30 34 44
REMARK Flexibility Score: inf
ROOT
ATOM      1  N   UNL     1      32.197  40.401   8.858  1.00  0.00    -0.319 N 
ATOM      2  C   UNL     1      32.575  41.763   8.914  1.00  0.00     0.407 C 
ATOM      3  O   UNL     1      32.353  42.458   9.965  1.00  0.00    -0.225 OA
ATOM      4  H   UNL     1      32.383  39.845   8.002  1.00  0.00     0.167 HD
ENDROOT
BRANCH   1   5
ATOM      5  C   UNL     1      31.560  39.828  10.016  1.00  0.00     0.154 C 
BRANCH   5   6
ATOM      6  C   UNL     1      30.190  39.295   9.791  1.00  0.00     0.165 C 
BRANCH   6   7
ATOM      7  C   UNL     1      30.122  38.239   8.716  1.00  0.00     0.176 C 
BRANCH   7   8
ATOM      8  C   UNL     1      29.216  38.767   7.598  1.00  0.00     0.178 C 
ATOM      9  C   UNL     1      27.070  38.391   6.782  1.00  0.00     0.269 C 
ATOM     10  C   UNL     1      27.589  38.328   5.362  1.00  0.00     0.112 C 
ATOM     11  O   UNL     1      28.016  38.077   7.728  1.00  0.00    -0.332 OA
ATOM     12  C   UNL     1      28.960  37.718   5.343  1.00  0.00     0.145 C 
ATOM     13  C   UNL     1      29.869  38.517   6.256  1.00  0.00     0.142 C 
BRANCH   9  14
ATOM     14  O   UNL     1      26.075  37.405   6.876  1.00  0.00    -0.357 OA
ATOM     15  H   UNL     1      25.619  37.472   7.734  1.00  0.00     0.214 HD
ENDBRANCH   9  14
BRANCH   9  16
ATOM     16  C   UNL     1      26.437  39.702   7.048  1.00  0.00     0.364 C 
ATOM     17  O   UNL     1      25.966  40.370   6.106  1.00  0.00    -0.246 OA
BRANCH  16  18
ATOM     18  O   UNL     1      26.345  40.228   8.328  1.00  0.00    -0.477 OA
ATOM     19  H   UNL     1      26.867  39.852   9.106  1.00  0.00     0.296 HD
ENDBRANCH  16  18
ENDBRANCH   9  16
BRANCH  12  20
ATOM     20  O   UNL     1      28.964  36.376   5.640  1.00  0.00    -0.391 OA
ATOM     21  H   UNL     1      29.192  35.788   4.888  1.00  0.00     0.211 HD
ENDBRANCH  12  20
BRANCH  13  22
ATOM     22  N   UNL     1      30.145  39.777   5.568  1.00  0.00    -0.348 N 
ATOM     23  C   UNL     1      31.469  40.282   5.452  1.00  0.00     0.217 C 
ATOM     24  H   UNL     1      29.364  40.326   5.151  1.00  0.00     0.163 HD
ATOM     25  C   UNL     1      31.768  41.567   4.754  1.00  0.00     0.114 C 
ATOM     26  O   UNL     1      32.386  39.575   5.979  1.00  0.00    -0.275 OA
ENDBRANCH  13  22
ENDBRANCH   7   8
BRANCH   7  27
ATOM     27  O   UNL     1      31.329  37.825   8.230  1.00  0.00    -0.388 OA
ATOM     28  H   UNL     1      31.216  37.268   7.436  1.00  0.00     0.211 HD
ENDBRANCH   7  27
ENDBRANCH   6   7
BRANCH   6  29
ATOM     29  O   UNL     1      29.402  40.404   9.388  1.00  0.00    -0.388 OA
ATOM     30  H   UNL     1      28.651  40.506  10.040  1.00  0.00     0.211 HD
ENDBRANCH   6  29
ENDBRANCH   5   6
ENDBRANCH   1   5
BRANCH   2  31
ATOM     31  O   UNL     1      33.191  42.432   7.877  1.00  0.00    -0.443 OA
BRANCH  31  32
ATOM     32  C   UNL     1      34.624  42.531   7.794  1.00  0.00     0.294 C 
BRANCH  32  33
ATOM     33  C   UNL     1      35.119  41.306   7.113  1.00  0.00     0.120 A 
ATOM     34  C   UNL     1      35.462  41.214   5.774  1.00  0.00     0.139 A 
ATOM     35  N   UNL     1      35.335  40.073   7.609  1.00  0.00    -0.132 NA
ATOM     36  N   UNL     1      35.870  39.953   5.499  1.00  0.00    -0.235 N 
ATOM     37  N   UNL     1      35.779  39.290   6.636  1.00  0.00    -0.066 NA
BRANCH  36  38
ATOM     38  C   UNL     1      36.310  39.469   4.207  1.00  0.00     0.155 C 
ATOM     39  C   UNL     1      35.147  38.860   3.452  1.00  0.00     0.049 C 
ATOM     40  C   UNL     1      36.890  40.620   3.410  1.00  0.00     0.049 C 
BRANCH  38  41
ATOM     41  C   UNL     1      37.336  38.396   4.360  1.00  0.00     0.331 C 
ATOM     42  O   UNL     1      38.513  38.669   4.012  1.00  0.00    -0.250 OA
BRANCH  41  43
ATOM     43  O   UNL     1      37.030  37.147   4.863  1.00  0.00    -0.479 OA
ATOM     44  H   UNL     1      37.597  36.803   5.632  1.00  0.00     0.296 HD
ENDBRANCH  41  43
ENDBRANCH  38  41
ENDBRANCH  36  38
ENDBRANCH  32  33
ENDBRANCH  31  32
ENDBRANCH   2  31
TORSDOF 17
BEGIN_RES LYS A 131
REMARK  4 active torsions:
REMARK  status: ('A' for Active; 'I' for Inactive)
REMARK    1  A    between atoms: CA   and  CB  
REMARK    2  A    between atoms: CB   and  CG  
REMARK    3  A    between atoms: CG   and  CD  
REMARK    4  A    between atoms: CD   and  CE  
ROOT
ATOM      1  CA  LYS A 131      29.867  25.555  16.977  1.00 20.52     0.186 C 
ENDROOT
BRANCH   1   2
ATOM      2  CB  LYS A 131      28.345  25.722  17.026  1.00 20.94     0.034 C 
BRANCH   2   3
ATOM      3  CG  LYS A 131      27.601  24.401  16.902  1.00 22.96     0.005 C 
BRANCH   3   4
ATOM      4  CD  LYS A 131      26.558  24.235  17.972  1.00 24.33     0.041 C 
BRANCH   4   5
ATOM      5  CE  LYS A 131      25.210  24.718  17.448  1.00 26.91     0.338 C 
ATOM      6  NZ  LYS A 131      24.360  23.566  17.064  1.00 27.40     0.618 N 
ENDBRANCH   4   5
ENDBRANCH   3   4
ENDBRANCH   2   3
ENDBRANCH   1   2
END_RES LYS A 131
BEGIN_RES LYS A 135
REMARK  4 active torsions:
REMARK  status: ('A' for Active; 'I' for Inactive)
REMARK    5  A    between atoms: CA   and  CB  
REMARK    6  A    between atoms: CB   and  CG  
REMARK    7  A    between atoms: CG   and  CD  
REMARK    8  A    between atoms: CD   and  CE  
ROOT
ATOM      7  CA  LYS A 135      33.193  34.663   9.290  1.00 25.02     0.186 C 
ENDROOT
BRANCH   7   8
ATOM      8  CB  LYS A 135      32.060  35.360  10.034  1.00 26.63     0.034 C 
BRANCH   8   9
ATOM      9  CG  LYS A 135      30.751  34.616   9.972  1.00 29.45     0.005 C 
BRANCH   9  10
ATOM     10  CD  LYS A 135      30.303  34.437   8.529  1.00 32.00     0.041 C 
BRANCH  10  11
ATOM     11  CE  LYS A 135      28.791  34.500   8.429  1.00 34.25     0.338 C 
ATOM     12  NZ  LYS A 135      28.148  33.796   9.573  1.00 35.99     0.618 N 
ENDBRANCH  10  11
ENDBRANCH   9  10
ENDBRANCH   8   9
ENDBRANCH   7   8
END_RES LYS A 135
