REMARK VINA RESULT:    -6.092      7.554     12.544
REMARK INTER + INTRA:         -15.077
REMARK INTER:                 -10.332
REMARK INTRA:                  -4.745
REMARK UNBOUND:                -4.533
REMARK SMILES CC(=O)N[C@@H]1[C@@H](O)C[C@](O)(C(=O)O)O[C@H]1C(O)[C@H](O)CNC(=O)OCc1cn(-c2cnc3ccccc3c2)nn1
REMARK SMILES IDX 20 1 18 2 16 3 15 4 9 5 8 6 14 7 6 8 5 9 10 10 11 12 12 13
REMARK SMILES IDX 13 14 7 16 4 18 2 19 1 21 3 22 17 23 19 25 21 27 22 28 23 30
REMARK SMILES IDX 24 31 25 32 26 33 27 34 40 35 28 36 39 37 29 38 30 39 38 40
REMARK SMILES IDX 31 41 37 42 32 43 36 44 33 45 35 46 34 47
REMARK H PARENT 10 11 13 15 7 17 4 20 17 24 19 26 21 29
REMARK Flexibility Score: inf
ROOT
ATOM      1  C   UNL     1      23.919  37.758  10.251  1.00  0.00     0.154 C 
ENDROOT
BRANCH   1   2
ATOM      2  C   UNL     1      24.662  36.810   9.353  1.00  0.00     0.165 C 
BRANCH   2   3
ATOM      3  C   UNL     1      25.186  37.447   8.096  1.00  0.00     0.176 C 
BRANCH   3   4
ATOM      4  C   UNL     1      26.354  36.735   7.478  1.00  0.00     0.178 C 
ATOM      5  C   UNL     1      28.273  35.657   8.212  1.00  0.00     0.269 C 
ATOM      6  C   UNL     1      28.734  35.554   6.780  1.00  0.00     0.112 C 
ATOM      7  O   UNL     1      26.913  35.795   8.333  1.00  0.00    -0.332 OA
ATOM      8  C   UNL     1      28.264  36.730   5.991  1.00  0.00     0.145 C 
ATOM      9  C   UNL     1      27.343  37.642   6.831  1.00  0.00     0.142 C 
BRANCH   5  10
ATOM     10  O   UNL     1      29.003  36.672   8.824  1.00  0.00    -0.357 OA
ATOM     11  H   UNL     1      28.727  36.847   9.743  1.00  0.00     0.214 HD
ENDBRANCH   5  10
BRANCH   5  12
ATOM     12  C   UNL     1      28.655  34.381   8.888  1.00  0.00     0.364 C 
ATOM     13  O   UNL     1      29.808  33.926   8.678  1.00  0.00    -0.246 OA
BRANCH  12  14
ATOM     14  O   UNL     1      27.794  33.693   9.725  1.00  0.00    -0.477 OA
ATOM     15  H   UNL     1      27.195  32.956   9.342  1.00  0.00     0.296 HD
ENDBRANCH  12  14
ENDBRANCH   5  12
BRANCH   8  16
ATOM     16  O   UNL     1      29.354  37.484   5.520  1.00  0.00    -0.391 OA
ATOM     17  H   UNL     1      30.118  37.387   6.137  1.00  0.00     0.211 HD
ENDBRANCH   8  16
BRANCH   9  18
ATOM     18  N   UNL     1      26.616  38.516   5.905  1.00  0.00    -0.348 N 
ATOM     19  C   UNL     1      26.810  39.920   5.850  1.00  0.00     0.217 C 
ATOM     20  H   UNL     1      25.921  38.109   5.254  1.00  0.00     0.163 HD
ATOM     21  C   UNL     1      26.059  40.792   4.906  1.00  0.00     0.114 C 
ATOM     22  O   UNL     1      27.640  40.478   6.611  1.00  0.00    -0.275 OA
ENDBRANCH   9  18
ENDBRANCH   3   4
BRANCH   3  23
ATOM     23  O   UNL     1      24.104  37.521   7.195  1.00  0.00    -0.388 OA
ATOM     24  H   UNL     1      24.496  37.685   6.302  1.00  0.00     0.211 HD
ENDBRANCH   3  23
ENDBRANCH   2   3
BRANCH   2  25
ATOM     25  O   UNL     1      23.870  35.682   9.053  1.00  0.00    -0.388 OA
ATOM     26  H   UNL     1      24.187  34.981   9.705  1.00  0.00     0.211 HD
ENDBRANCH   2  25
ENDBRANCH   1   2
BRANCH   1  27
ATOM     27  N   UNL     1      24.779  38.167  11.336  1.00  0.00    -0.319 N 
ATOM     28  C   UNL     1      25.453  39.405  11.366  1.00  0.00     0.407 C 
ATOM     29  H   UNL     1      24.943  37.541  12.173  1.00  0.00     0.167 HD
ATOM     30  O   UNL     1      25.344  40.234  10.439  1.00  0.00    -0.225 OA
BRANCH  28  31
ATOM     31  O   UNL     1      26.282  39.784  12.430  1.00  0.00    -0.443 OA
BRANCH  31  32
ATOM     32  C   UNL     1      27.707  39.657  12.307  1.00  0.00     0.294 C 
BRANCH  32  33
ATOM     33  C   UNL     1      28.108  38.240  12.430  1.00  0.00     0.121 A 
ATOM     34  C   UNL     1      28.699  37.620  13.486  1.00  0.00     0.144 A 
ATOM     35  N   UNL     1      27.939  37.322  11.472  1.00  0.00    -0.131 NA
ATOM     36  N   UNL     1      28.869  36.318  13.117  1.00  0.00    -0.219 N 
ATOM     37  N   UNL     1      28.404  36.160  11.899  1.00  0.00    -0.062 NA
BRANCH  36  38
ATOM     38  C   UNL     1      29.449  35.297  13.906  1.00  0.00     0.085 A 
ATOM     39  C   UNL     1      30.774  35.413  14.287  1.00  0.00     0.140 A 
ATOM     40  C   UNL     1      28.685  34.214  14.276  1.00  0.00     0.040 A 
ATOM     41  N   UNL     1      31.324  34.443  15.035  1.00  0.00    -0.254 NA
ATOM     42  C   UNL     1      29.273  33.220  15.052  1.00  0.00     0.002 A 
ATOM     43  C   UNL     1      30.596  33.358  15.419  1.00  0.00     0.070 A 
ATOM     44  C   UNL     1      28.541  32.138  15.433  1.00  0.00     0.010 A 
ATOM     45  C   UNL     1      31.182  32.374  16.189  1.00  0.00     0.029 A 
ATOM     46  C   UNL     1      29.126  31.139  16.211  1.00  0.00     0.001 A 
ATOM     47  C   UNL     1      30.443  31.264  16.583  1.00  0.00     0.002 A 
ENDBRANCH  36  38
ENDBRANCH  32  33
ENDBRANCH  31  32
ENDBRANCH  28  31
ENDBRANCH   1  27
TORSDOF 15
BEGIN_RES LYS A 131
REMARK  4 active torsions:
REMARK  status: ('A' for Active; 'I' for Inactive)
REMARK    1  A    between atoms: CA   and  CB  
REMARK    2  A    between atoms: CB   and  CG  
REMARK    3  A    between atoms: CG   and  CD  
REMARK    4  A    between atoms: CD   and  CE  
ROOT
ATOM      1  CA  LYS A 131      29.867  25.555  16.977  1.00 20.52     0.186 C 
ENDROOT
BRANCH   1   2
ATOM      2  CB  LYS A 131      28.345  25.722  17.026  1.00 20.94     0.034 C 
BRANCH   2   3
ATOM      3  CG  LYS A 131      27.601  24.404  16.876  1.00 22.96     0.005 C 
BRANCH   3   4
ATOM      4  CD  LYS A 131      26.592  24.195  17.971  1.00 24.33     0.041 C 
BRANCH   4   5
ATOM      5  CE  LYS A 131      25.247  23.817  17.360  1.00 26.91     0.338 C 
ATOM      6  NZ  LYS A 131      24.976  22.374  17.554  1.00 27.40     0.618 N 
ENDBRANCH   4   5
ENDBRANCH   3   4
ENDBRANCH   2   3
ENDBRANCH   1   2
END_RES LYS A 131
BEGIN_RES LYS A 135
REMARK  4 active torsions:
REMARK  status: ('A' for Active; 'I' for Inactive)
REMARK    5  A    between atoms: CA   and  CB  
REMARK    6  A    between atoms: CB   and  CG  
REMARK    7  A    between atoms: CG   and  CD  
REMARK    8  A    between atoms: CD   and  CE  
ROOT
ATOM      7  CA  LYS A 135      33.193  34.663   9.290  1.00 25.02     0.186 C 
ENDROOT
BRANCH   7   8
ATOM      8  CB  LYS A 135      32.060  35.360  10.034  1.00 26.63     0.034 C 
BRANCH   8   9
ATOM      9  CG  LYS A 135      32.513  36.098  11.267  1.00 29.45     0.005 C 
BRANCH   9  10
ATOM     10  CD  LYS A 135      31.772  37.419  11.405  1.00 32.00     0.041 C 
BRANCH  10  11
ATOM     11  CE  LYS A 135      31.893  38.233  10.131  1.00 34.25     0.338 C 
ATOM     12  NZ  LYS A 135      30.859  39.303  10.078  1.00 35.99     0.618 N 
ENDBRANCH  10  11
ENDBRANCH   9  10
ENDBRANCH   8   9
ENDBRANCH   7   8
END_RES LYS A 135
