REMARK VINA RESULT:    -6.341      2.231      4.271
REMARK INTER + INTRA:         -16.494
REMARK INTER:                 -11.227
REMARK INTRA:                  -5.267
REMARK UNBOUND:                -4.777
REMARK SMILES CC(=O)N[C@@H]1[C@@H](O)C[C@](O)(C(=O)O)O[C@H]1C(O)[C@H](O)CNC(=O)OCc1cn(C(C)(C)C(=O)c2c[nH]c3ccccc23)nn1
REMARK SMILES IDX 21 1 22 2 23 3 20 5 18 6 16 7 15 8 9 9 8 10 14 11 6 12 5 13
REMARK SMILES IDX 10 14 11 16 12 17 13 18 7 20 4 22 2 23 1 25 3 26 17 27 19 29
REMARK SMILES IDX 24 31 25 32 26 33 27 34 44 35 28 36 43 37 29 38 30 39 31 40
REMARK SMILES IDX 32 41 33 42 34 43 35 44 42 45 36 46 37 47 41 48 38 50 40 51
REMARK SMILES IDX 39 52
REMARK H PARENT 21 4 10 15 13 19 7 21 4 24 17 28 19 30 36 49
REMARK Flexibility Score: inf
ROOT
ATOM      1  N   UNL     1      24.888  33.998  12.998  1.00  0.00    -0.319 N 
ATOM      2  C   UNL     1      25.223  34.431  14.303  1.00  0.00     0.407 C 
ATOM      3  O   UNL     1      24.431  34.303  15.240  1.00  0.00    -0.225 OA
ATOM      4  H   UNL     1      25.655  34.150  12.258  1.00  0.00     0.167 HD
ENDROOT
BRANCH   1   5
ATOM      5  C   UNL     1      23.647  33.393  12.599  1.00  0.00     0.154 C 
BRANCH   5   6
ATOM      6  C   UNL     1      22.726  34.255  11.818  1.00  0.00     0.165 C 
BRANCH   6   7
ATOM      7  C   UNL     1      23.407  35.459  11.186  1.00  0.00     0.176 C 
BRANCH   7   8
ATOM      8  C   UNL     1      23.254  35.461   9.686  1.00  0.00     0.178 C 
ATOM      9  C   UNL     1      24.190  37.270   8.582  1.00  0.00     0.269 C 
ATOM     10  C   UNL     1      23.047  37.416   7.601  1.00  0.00     0.112 C 
ATOM     11  O   UNL     1      24.335  35.960   9.019  1.00  0.00    -0.332 OA
ATOM     12  C   UNL     1      22.036  36.298   7.755  1.00  0.00     0.145 C 
ATOM     13  C   UNL     1      21.926  36.051   9.260  1.00  0.00     0.142 C 
BRANCH   9  14
ATOM     14  O   UNL     1      24.084  38.146   9.661  1.00  0.00    -0.357 OA
ATOM     15  H   UNL     1      24.080  37.644  10.526  1.00  0.00     0.214 HD
ENDBRANCH   9  14
BRANCH   9  16
ATOM     16  C   UNL     1      25.436  37.629   7.854  1.00  0.00     0.364 C 
ATOM     17  O   UNL     1      25.956  38.776   8.034  1.00  0.00    -0.246 OA
BRANCH  16  18
ATOM     18  O   UNL     1      26.075  36.781   6.980  1.00  0.00    -0.477 OA
ATOM     19  H   UNL     1      25.983  35.773   7.016  1.00  0.00     0.296 HD
ENDBRANCH  16  18
ENDBRANCH   9  16
BRANCH  12  20
ATOM     20  O   UNL     1      20.816  36.609   7.203  1.00  0.00    -0.391 OA
ATOM     21  H   UNL     1      20.426  37.377   7.730  1.00  0.00     0.211 HD
ENDBRANCH  12  20
BRANCH  13  22
ATOM     22  N   UNL     1      20.864  35.131   9.568  1.00  0.00    -0.348 N 
ATOM     23  C   UNL     1      19.566  35.582   9.999  1.00  0.00     0.217 C 
ATOM     24  H   UNL     1      20.964  34.089   9.499  1.00  0.00     0.163 HD
ATOM     25  C   UNL     1      18.460  34.680  10.322  1.00  0.00     0.114 C 
ATOM     26  O   UNL     1      19.417  36.842  10.091  1.00  0.00    -0.275 OA
ENDBRANCH  13  22
ENDBRANCH   7   8
BRANCH   7  27
ATOM     27  O   UNL     1      22.763  36.577  11.724  1.00  0.00    -0.388 OA
ATOM     28  H   UNL     1      21.799  36.571  11.571  1.00  0.00     0.211 HD
ENDBRANCH   7  27
ENDBRANCH   6   7
BRANCH   6  29
ATOM     29  O   UNL     1      21.717  34.753  12.620  1.00  0.00    -0.388 OA
ATOM     30  H   UNL     1      21.511  35.672  12.308  1.00  0.00     0.211 HD
ENDBRANCH   6  29
ENDBRANCH   5   6
ENDBRANCH   1   5
BRANCH   2  31
ATOM     31  O   UNL     1      26.456  35.018  14.593  1.00  0.00    -0.443 OA
BRANCH  31  32
ATOM     32  C   UNL     1      27.045  35.925  13.709  1.00  0.00     0.294 C 
BRANCH  32  33
ATOM     33  C   UNL     1      28.456  35.546  13.438  1.00  0.00     0.120 A 
ATOM     34  C   UNL     1      29.580  36.282  13.779  1.00  0.00     0.139 A 
ATOM     35  N   UNL     1      28.942  34.445  12.828  1.00  0.00    -0.132 NA
ATOM     36  N   UNL     1      30.684  35.622  13.375  1.00  0.00    -0.239 N 
ATOM     37  N   UNL     1      30.261  34.510  12.800  1.00  0.00    -0.066 NA
BRANCH  36  38
ATOM     38  C   UNL     1      32.078  36.073  13.551  1.00  0.00     0.122 C 
ATOM     39  C   UNL     1      32.700  36.272  12.212  1.00  0.00     0.046 C 
ATOM     40  C   UNL     1      31.930  37.417  14.289  1.00  0.00     0.046 C 
BRANCH  38  41
ATOM     41  C   UNL     1      32.734  35.123  14.446  1.00  0.00     0.192 C 
ATOM     42  O   UNL     1      33.805  34.516  14.091  1.00  0.00    -0.291 OA
BRANCH  41  43
ATOM     43  C   UNL     1      32.266  34.766  15.780  1.00  0.00     0.045 A 
ATOM     44  C   UNL     1      32.424  35.557  16.918  1.00  0.00     0.095 A 
ATOM     45  C   UNL     1      31.631  33.599  16.115  1.00  0.00     0.010 A 
ATOM     46  N   UNL     1      31.890  34.870  17.926  1.00  0.00    -0.360 N 
ATOM     47  C   UNL     1      31.402  33.689  17.491  1.00  0.00     0.046 A 
ATOM     48  C   UNL     1      31.212  32.471  15.414  1.00  0.00     0.011 A 
ATOM     49  H   UNL     1      31.847  35.182  18.907  1.00  0.00     0.166 HD
ATOM     50  C   UNL     1      30.759  32.638  18.115  1.00  0.00     0.027 A 
ATOM     51  C   UNL     1      30.580  31.452  16.063  1.00  0.00     0.001 A 
ATOM     52  C   UNL     1      30.354  31.533  17.405  1.00  0.00     0.002 A 
ENDBRANCH  41  43
ENDBRANCH  38  41
ENDBRANCH  36  38
ENDBRANCH  32  33
ENDBRANCH  31  32
ENDBRANCH   2  31
TORSDOF 17
BEGIN_RES LYS A 131
REMARK  4 active torsions:
REMARK  status: ('A' for Active; 'I' for Inactive)
REMARK    1  A    between atoms: CA   and  CB  
REMARK    2  A    between atoms: CB   and  CG  
REMARK    3  A    between atoms: CG   and  CD  
REMARK    4  A    between atoms: CD   and  CE  
ROOT
ATOM      1  CA  LYS A 131      29.867  25.555  16.977  1.00 20.52     0.186 C 
ENDROOT
BRANCH   1   2
ATOM      2  CB  LYS A 131      28.345  25.722  17.026  1.00 20.94     0.034 C 
BRANCH   2   3
ATOM      3  CG  LYS A 131      27.601  24.402  16.892  1.00 22.96     0.005 C 
BRANCH   3   4
ATOM      4  CD  LYS A 131      26.597  24.204  17.994  1.00 24.33     0.041 C 
BRANCH   4   5
ATOM      5  CE  LYS A 131      25.220  23.952  17.388  1.00 26.91     0.338 C 
ATOM      6  NZ  LYS A 131      24.826  22.534  17.565  1.00 27.40     0.618 N 
ENDBRANCH   4   5
ENDBRANCH   3   4
ENDBRANCH   2   3
ENDBRANCH   1   2
END_RES LYS A 131
BEGIN_RES LYS A 135
REMARK  4 active torsions:
REMARK  status: ('A' for Active; 'I' for Inactive)
REMARK    5  A    between atoms: CA   and  CB  
REMARK    6  A    between atoms: CB   and  CG  
REMARK    7  A    between atoms: CG   and  CD  
REMARK    8  A    between atoms: CD   and  CE  
ROOT
ATOM      7  CA  LYS A 135      33.193  34.663   9.290  1.00 25.02     0.186 C 
ENDROOT
BRANCH   7   8
ATOM      8  CB  LYS A 135      32.060  35.360  10.034  1.00 26.63     0.034 C 
BRANCH   8   9
ATOM      9  CG  LYS A 135      30.784  35.453   9.238  1.00 29.45     0.005 C 
BRANCH   9  10
ATOM     10  CD  LYS A 135      30.148  34.080   9.081  1.00 32.00     0.041 C 
BRANCH  10  11
ATOM     11  CE  LYS A 135      28.641  34.201   8.961  1.00 34.25     0.338 C 
ATOM     12  NZ  LYS A 135      28.165  35.512   9.484  1.00 35.99     0.618 N 
ENDBRANCH  10  11
ENDBRANCH   9  10
ENDBRANCH   8   9
ENDBRANCH   7   8
END_RES LYS A 135
