REMARK VINA RESULT:    -4.813      3.112      7.082
REMARK INTER + INTRA:         -14.906
REMARK INTER:                  -8.631
REMARK INTRA:                  -6.274
REMARK UNBOUND:                -6.295
REMARK SMILES CC(=O)N[C@@H]1[C@@H](O)C[C@](O)(C(=O)O)O[C@H]1C(O)[C@H](O)CNC(=O)OCc1cn(Cc2cccc(Br)c2)nn1
REMARK SMILES IDX 21 1 22 2 23 3 20 5 18 6 16 7 15 8 9 9 8 10 14 11 6 12 5 13
REMARK SMILES IDX 10 14 11 16 12 17 13 18 7 20 4 22 2 23 1 25 3 26 17 27 19 29
REMARK SMILES IDX 24 31 25 32 26 33 27 34 38 35 28 36 37 37 29 38 30 39 31 40
REMARK SMILES IDX 36 41 32 42 34 43 33 44 35 45
REMARK H PARENT 21 4 10 15 13 19 7 21 4 24 17 28 19 30
REMARK Flexibility Score: inf
ROOT
ATOM      1  N   UNL     1      30.931  31.846  15.414  1.00  0.00    -0.319 N 
ATOM      2  C   UNL     1      31.618  32.986  15.895  1.00  0.00     0.407 C 
ATOM      3  O   UNL     1      31.507  33.346  17.112  1.00  0.00    -0.225 OA
ATOM      4  H   UNL     1      31.051  31.588  14.412  1.00  0.00     0.167 HD
ENDROOT
BRANCH   1   5
ATOM      5  C   UNL     1      30.114  31.125  16.352  1.00  0.00     0.154 C 
BRANCH   5   6
ATOM      6  C   UNL     1      28.746  30.779  15.747  1.00  0.00     0.165 C 
BRANCH   6   7
ATOM      7  C   UNL     1      27.797  31.787  16.294  1.00  0.00     0.176 C 
BRANCH   7   8
ATOM      8  C   UNL     1      27.360  32.868  15.351  1.00  0.00     0.178 C 
ATOM      9  C   UNL     1      28.253  34.879  14.564  1.00  0.00     0.269 C 
ATOM     10  C   UNL     1      26.828  35.384  14.439  1.00  0.00     0.112 C 
ATOM     11  O   UNL     1      28.311  33.884  15.508  1.00  0.00    -0.332 OA
ATOM     12  C   UNL     1      25.967  34.863  15.578  1.00  0.00     0.145 C 
ATOM     13  C   UNL     1      25.959  33.326  15.474  1.00  0.00     0.142 C 
BRANCH   9  14
ATOM     14  O   UNL     1      28.982  35.957  15.111  1.00  0.00    -0.357 OA
ATOM     15  H   UNL     1      29.635  36.315  14.480  1.00  0.00     0.214 HD
ENDBRANCH   9  14
BRANCH   9  16
ATOM     16  C   UNL     1      28.853  34.554  13.268  1.00  0.00     0.364 C 
ATOM     17  O   UNL     1      28.158  34.587  12.225  1.00  0.00    -0.246 OA
BRANCH  16  18
ATOM     18  O   UNL     1      30.186  34.200  13.120  1.00  0.00    -0.477 OA
ATOM     19  H   UNL     1      30.550  33.429  13.645  1.00  0.00     0.296 HD
ENDBRANCH  16  18
ENDBRANCH   9  16
BRANCH  12  20
ATOM     20  O   UNL     1      26.420  35.298  16.796  1.00  0.00    -0.391 OA
ATOM     21  H   UNL     1      27.250  35.853  16.651  1.00  0.00     0.211 HD
ENDBRANCH  12  20
BRANCH  13  22
ATOM     22  N   UNL     1      25.193  33.062  14.249  1.00  0.00    -0.348 N 
ATOM     23  C   UNL     1      23.839  32.634  14.298  1.00  0.00     0.217 C 
ATOM     24  H   UNL     1      25.604  33.173  13.296  1.00  0.00     0.163 HD
ATOM     25  C   UNL     1      23.074  32.366  13.027  1.00  0.00     0.114 C 
ATOM     26  O   UNL     1      23.244  32.466  15.374  1.00  0.00    -0.275 OA
ENDBRANCH  13  22
ENDBRANCH   7   8
BRANCH   7  27
ATOM     27  O   UNL     1      28.508  32.467  17.319  1.00  0.00    -0.388 OA
ATOM     28  H   UNL     1      28.134  32.098  18.168  1.00  0.00     0.211 HD
ENDBRANCH   7  27
ENDBRANCH   6   7
BRANCH   6  29
ATOM     29  O   UNL     1      28.483  29.469  16.136  1.00  0.00    -0.388 OA
ATOM     30  H   UNL     1      27.849  29.076  15.498  1.00  0.00     0.211 HD
ENDBRANCH   6  29
ENDBRANCH   5   6
ENDBRANCH   1   5
BRANCH   2  31
ATOM     31  O   UNL     1      32.439  33.770  15.098  1.00  0.00    -0.443 OA
BRANCH  31  32
ATOM     32  C   UNL     1      32.701  35.139  15.351  1.00  0.00     0.294 C 
BRANCH  32  33
ATOM     33  C   UNL     1      32.414  35.976  14.155  1.00  0.00     0.120 A 
ATOM     34  C   UNL     1      31.789  37.228  14.155  1.00  0.00     0.138 A 
ATOM     35  N   UNL     1      32.682  35.725  12.861  1.00  0.00    -0.132 NA
ATOM     36  N   UNL     1      31.711  37.661  12.892  1.00  0.00    -0.248 N 
ATOM     37  N   UNL     1      32.259  36.735  12.129  1.00  0.00    -0.067 NA
BRANCH  36  38
ATOM     38  C   UNL     1      31.147  38.897  12.396  1.00  0.00     0.181 C 
BRANCH  38  39
ATOM     39  C   UNL     1      30.112  38.611  11.369  1.00  0.00    -0.025 A 
ATOM     40  C   UNL     1      28.960  37.927  11.691  1.00  0.00     0.006 A 
ATOM     41  C   UNL     1      30.290  39.029  10.080  1.00  0.00     0.021 A 
ATOM     42  C   UNL     1      27.984  37.657  10.727  1.00  0.00     0.002 A 
ATOM     43  C   UNL     1      29.324  38.765   9.110  1.00  0.00     0.018 A 
ATOM     44  C   UNL     1      28.168  38.076   9.438  1.00  0.00     0.016 A 
ATOM     45  Br  UNL     1      29.608  39.360   7.329  1.00  0.00    -0.051 Br
ENDBRANCH  38  39
ENDBRANCH  36  38
ENDBRANCH  32  33
ENDBRANCH  31  32
ENDBRANCH   2  31
TORSDOF 16
BEGIN_RES LYS A 131
REMARK  4 active torsions:
REMARK  status: ('A' for Active; 'I' for Inactive)
REMARK    1  A    between atoms: CA   and  CB  
REMARK    2  A    between atoms: CB   and  CG  
REMARK    3  A    between atoms: CG   and  CD  
REMARK    4  A    between atoms: CD   and  CE  
ROOT
ATOM      1  CA  LYS A 131      29.867  25.555  16.977  1.00 20.52     0.186 C 
ENDROOT
BRANCH   1   2
ATOM      2  CB  LYS A 131      28.345  25.722  17.026  1.00 20.94     0.034 C 
BRANCH   2   3
ATOM      3  CG  LYS A 131      27.602  24.400  16.910  1.00 22.96     0.005 C 
BRANCH   3   4
ATOM      4  CD  LYS A 131      26.622  24.201  18.033  1.00 24.33     0.041 C 
BRANCH   4   5
ATOM      5  CE  LYS A 131      26.409  25.523  18.763  1.00 26.91     0.338 C 
ATOM      6  NZ  LYS A 131      25.004  25.973  18.623  1.00 27.40     0.618 N 
ENDBRANCH   4   5
ENDBRANCH   3   4
ENDBRANCH   2   3
ENDBRANCH   1   2
END_RES LYS A 131
BEGIN_RES LYS A 135
REMARK  4 active torsions:
REMARK  status: ('A' for Active; 'I' for Inactive)
REMARK    5  A    between atoms: CA   and  CB  
REMARK    6  A    between atoms: CB   and  CG  
REMARK    7  A    between atoms: CG   and  CD  
REMARK    8  A    between atoms: CD   and  CE  
ROOT
ATOM      7  CA  LYS A 135      33.193  34.663   9.290  1.00 25.02     0.186 C 
ENDROOT
BRANCH   7   8
ATOM      8  CB  LYS A 135      32.060  35.360  10.034  1.00 26.63     0.034 C 
BRANCH   8   9
ATOM      9  CG  LYS A 135      30.786  35.459   9.236  1.00 29.45     0.005 C 
BRANCH   9  10
ATOM     10  CD  LYS A 135      30.174  34.082   9.030  1.00 32.00     0.041 C 
BRANCH  10  11
ATOM     11  CE  LYS A 135      28.666  34.183   8.900  1.00 34.25     0.338 C 
ATOM     12  NZ  LYS A 135      28.283  34.961   7.689  1.00 35.99     0.618 N 
ENDBRANCH  10  11
ENDBRANCH   9  10
ENDBRANCH   8   9
ENDBRANCH   7   8
END_RES LYS A 135
