REMARK VINA RESULT:    -4.722      5.805     10.131
REMARK INTER + INTRA:         -14.063
REMARK INTER:                  -7.435
REMARK INTRA:                  -6.628
REMARK UNBOUND:                -4.785
REMARK SMILES C=CCCCCn1cc(COC(=O)NC[C@@H](O)C(O)[C@@H]2O[C@@](O)(C(=O)O)C[C@H](O)[C@H]2NC(C)=O)nn1
REMARK SMILES IDX 11 1 12 2 14 3 13 5 15 6 16 7 18 8 20 9 22 10 27 11 21 12
REMARK SMILES IDX 28 13 30 14 23 15 24 17 25 18 26 19 29 21 31 23 32 24 33 26
REMARK SMILES IDX 34 27 19 28 17 30 10 32 9 33 8 34 35 35 7 36 36 37 6 38 5 39
REMARK SMILES IDX 4 40 3 41 2 42 1 43
REMARK H PARENT 14 4 23 16 26 20 29 22 31 25 19 29 17 31
REMARK Flexibility Score: inf
ROOT
ATOM      1  O   UNL     1      29.909  30.771  18.746  1.00  0.00    -0.443 OA
ENDROOT
BRANCH   1   2
ATOM      2  C   UNL     1      30.405  30.386  19.976  1.00  0.00     0.407 C 
ATOM      3  N   UNL     1      31.445  29.398  19.983  1.00  0.00    -0.319 N 
ATOM      4  H   UNL     1      31.775  29.022  19.073  1.00  0.00     0.167 HD
ATOM      5  O   UNL     1      29.965  30.881  21.064  1.00  0.00    -0.225 OA
BRANCH   3   6
ATOM      6  C   UNL     1      32.028  28.929  21.194  1.00  0.00     0.154 C 
BRANCH   6   7
ATOM      7  C   UNL     1      31.625  27.499  21.558  1.00  0.00     0.165 C 
BRANCH   7   8
ATOM      8  C   UNL     1      30.682  27.624  22.728  1.00  0.00     0.176 C 
BRANCH   8   9
ATOM      9  C   UNL     1      29.288  27.172  22.438  1.00  0.00     0.178 C 
ATOM     10  C   UNL     1      27.605  27.897  21.013  1.00  0.00     0.269 C 
ATOM     11  C   UNL     1      26.718  27.029  21.881  1.00  0.00     0.112 C 
ATOM     12  O   UNL     1      28.930  27.527  21.165  1.00  0.00    -0.332 OA
ATOM     13  C   UNL     1      26.949  27.442  23.317  1.00  0.00     0.145 C 
ATOM     14  C   UNL     1      28.395  27.846  23.488  1.00  0.00     0.142 C 
BRANCH  10  15
ATOM     15  O   UNL     1      27.398  29.248  21.276  1.00  0.00    -0.357 OA
ATOM     16  H   UNL     1      26.971  29.361  22.155  1.00  0.00     0.214 HD
ENDBRANCH  10  15
BRANCH  10  17
ATOM     17  C   UNL     1      27.195  27.659  19.606  1.00  0.00     0.364 C 
ATOM     18  O   UNL     1      25.989  27.651  19.250  1.00  0.00    -0.246 OA
BRANCH  17  19
ATOM     19  O   UNL     1      28.132  27.429  18.585  1.00  0.00    -0.477 OA
ATOM     20  H   UNL     1      28.610  26.531  18.584  1.00  0.00     0.296 HD
ENDBRANCH  17  19
ENDBRANCH  10  17
BRANCH  13  21
ATOM     21  O   UNL     1      26.167  28.547  23.598  1.00  0.00    -0.391 OA
ATOM     22  H   UNL     1      26.635  29.130  24.246  1.00  0.00     0.211 HD
ENDBRANCH  13  21
BRANCH  14  23
ATOM     23  N   UNL     1      28.904  27.480  24.798  1.00  0.00    -0.348 N 
ATOM     24  C   UNL     1      28.754  28.301  25.951  1.00  0.00     0.217 C 
ATOM     25  H   UNL     1      29.419  26.569  24.960  1.00  0.00     0.163 HD
ATOM     26  C   UNL     1      29.283  27.914  27.293  1.00  0.00     0.114 C 
ATOM     27  O   UNL     1      28.144  29.395  25.791  1.00  0.00    -0.275 OA
ENDBRANCH  14  23
ENDBRANCH   8   9
BRANCH   8  28
ATOM     28  O   UNL     1      30.741  28.968  23.132  1.00  0.00    -0.388 OA
ATOM     29  H   UNL     1      31.668  29.248  23.340  1.00  0.00     0.211 HD
ENDBRANCH   8  28
ENDBRANCH   7   8
BRANCH   7  30
ATOM     30  O   UNL     1      32.726  26.707  21.807  1.00  0.00    -0.388 OA
ATOM     31  H   UNL     1      32.554  25.752  21.861  1.00  0.00     0.211 HD
ENDBRANCH   7  30
ENDBRANCH   6   7
ENDBRANCH   3   6
ENDBRANCH   1   2
BRANCH   1  32
ATOM     32  C   UNL     1      28.687  31.454  18.656  1.00  0.00     0.294 C 
BRANCH  32  33
ATOM     33  C   UNL     1      27.835  30.688  17.688  1.00  0.00     0.120 A 
ATOM     34  C   UNL     1      26.457  30.817  17.602  1.00  0.00     0.138 A 
ATOM     35  N   UNL     1      28.173  29.785  16.768  1.00  0.00    -0.132 NA
ATOM     36  N   UNL     1      26.014  29.996  16.642  1.00  0.00    -0.252 N 
ATOM     37  N   UNL     1      27.075  29.382  16.154  1.00  0.00    -0.067 NA
BRANCH  36  38
ATOM     38  C   UNL     1      24.655  29.767  16.174  1.00  0.00     0.146 C 
BRANCH  38  39
ATOM     39  C   UNL     1      24.518  30.238  14.751  1.00  0.00     0.024 C 
BRANCH  39  40
ATOM     40  C   UNL     1      23.696  29.277  13.928  1.00  0.00     0.006 C 
BRANCH  40  41
ATOM     41  C   UNL     1      23.051  29.945  12.742  1.00  0.00     0.027 C 
BRANCH  41  42
ATOM     42  C   UNL     1      21.825  29.213  12.351  1.00  0.00    -0.035 C 
ATOM     43  C   UNL     1      20.675  29.812  12.134  1.00  0.00     0.004 C 
ENDBRANCH  41  42
ENDBRANCH  40  41
ENDBRANCH  39  40
ENDBRANCH  38  39
ENDBRANCH  36  38
ENDBRANCH  32  33
ENDBRANCH   1  32
TORSDOF 19
BEGIN_RES LYS A 131
REMARK  4 active torsions:
REMARK  status: ('A' for Active; 'I' for Inactive)
REMARK    1  A    between atoms: CA   and  CB  
REMARK    2  A    between atoms: CB   and  CG  
REMARK    3  A    between atoms: CG   and  CD  
REMARK    4  A    between atoms: CD   and  CE  
ROOT
ATOM      1  CA  LYS A 131      29.867  25.555  16.977  1.00 20.52     0.186 C 
ENDROOT
BRANCH   1   2
ATOM      2  CB  LYS A 131      28.345  25.722  17.026  1.00 20.94     0.034 C 
BRANCH   2   3
ATOM      3  CG  LYS A 131      27.601  24.404  16.876  1.00 22.96     0.005 C 
BRANCH   3   4
ATOM      4  CD  LYS A 131      26.290  24.406  17.613  1.00 24.33     0.041 C 
BRANCH   4   5
ATOM      5  CE  LYS A 131      25.672  23.013  17.557  1.00 26.91     0.338 C 
ATOM      6  NZ  LYS A 131      24.435  22.961  18.372  1.00 27.40     0.618 N 
ENDBRANCH   4   5
ENDBRANCH   3   4
ENDBRANCH   2   3
ENDBRANCH   1   2
END_RES LYS A 131
BEGIN_RES LYS A 135
REMARK  4 active torsions:
REMARK  status: ('A' for Active; 'I' for Inactive)
REMARK    5  A    between atoms: CA   and  CB  
REMARK    6  A    between atoms: CB   and  CG  
REMARK    7  A    between atoms: CG   and  CD  
REMARK    8  A    between atoms: CD   and  CE  
ROOT
ATOM      7  CA  LYS A 135      33.193  34.663   9.290  1.00 25.02     0.186 C 
ENDROOT
BRANCH   7   8
ATOM      8  CB  LYS A 135      32.060  35.360  10.034  1.00 26.63     0.034 C 
BRANCH   8   9
ATOM      9  CG  LYS A 135      30.801  35.503   9.218  1.00 29.45     0.005 C 
BRANCH   9  10
ATOM     10  CD  LYS A 135      30.246  34.137   8.844  1.00 32.00     0.041 C 
BRANCH  10  11
ATOM     11  CE  LYS A 135      28.769  34.054   9.176  1.00 34.25     0.338 C 
ATOM     12  NZ  LYS A 135      28.516  34.422  10.597  1.00 35.99     0.618 N 
ENDBRANCH  10  11
ENDBRANCH   9  10
ENDBRANCH   8   9
ENDBRANCH   7   8
END_RES LYS A 135
