REMARK VINA RESULT:    -5.962      0.000      0.000
REMARK INTER + INTRA:         -15.416
REMARK INTER:                 -10.174
REMARK INTRA:                  -5.242
REMARK UNBOUND:                -4.749
REMARK SMILES CC(=O)N[C@@H]1[C@@H](O)C[C@](O)(C(=O)O)O[C@H]1C(O)[C@H](O)CNC(=O)OCc1cn(-c2ccc([N+](=O)[O-])cc2)nn1
REMARK SMILES IDX 21 1 22 2 23 3 20 5 18 6 16 7 15 8 9 9 8 10 14 11 6 12 5 13
REMARK SMILES IDX 10 14 11 16 12 17 13 18 7 20 4 22 2 23 1 25 3 26 17 27 19 29
REMARK SMILES IDX 24 31 25 32 26 33 27 34 39 35 28 36 38 37 29 38 30 39 37 40
REMARK SMILES IDX 31 41 36 42 32 43 33 44 34 45 35 46
REMARK H PARENT 21 4 10 15 13 19 7 21 4 24 17 28 19 30
REMARK Flexibility Score: inf
ROOT
ATOM      1  N   UNL     1      29.514  26.952  20.276  1.00  0.00    -0.319 N 
ATOM      2  C   UNL     1      28.339  27.722  20.362  1.00  0.00     0.407 C 
ATOM      3  O   UNL     1      28.138  28.564  21.255  1.00  0.00    -0.225 OA
ATOM      4  H   UNL     1      29.577  26.277  19.438  1.00  0.00     0.167 HD
ENDROOT
BRANCH   1   5
ATOM      5  C   UNL     1      30.584  27.004  21.193  1.00  0.00     0.154 C 
BRANCH   5   6
ATOM      6  C   UNL     1      31.795  27.790  20.887  1.00  0.00     0.165 C 
BRANCH   6   7
ATOM      7  C   UNL     1      31.835  29.247  20.960  1.00  0.00     0.176 C 
BRANCH   7   8
ATOM      8  C   UNL     1      33.178  29.772  21.478  1.00  0.00     0.178 C 
ATOM      9  C   UNL     1      34.616  29.403  23.269  1.00  0.00     0.269 C 
ATOM     10  C   UNL     1      35.404  30.506  22.602  1.00  0.00     0.112 C 
ATOM     11  O   UNL     1      33.614  28.882  22.482  1.00  0.00    -0.332 OA
ATOM     12  C   UNL     1      34.544  31.650  22.163  1.00  0.00     0.145 C 
ATOM     13  C   UNL     1      33.100  31.120  22.097  1.00  0.00     0.142 C 
BRANCH   9  14
ATOM     14  O   UNL     1      34.158  29.895  24.480  1.00  0.00    -0.357 OA
ATOM     15  H   UNL     1      33.879  30.825  24.362  1.00  0.00     0.214 HD
ENDBRANCH   9  14
BRANCH   9  16
ATOM     16  C   UNL     1      35.577  28.303  23.545  1.00  0.00     0.364 C 
ATOM     17  O   UNL     1      36.508  28.456  24.377  1.00  0.00    -0.246 OA
BRANCH  16  18
ATOM     18  O   UNL     1      35.473  27.084  22.898  1.00  0.00    -0.477 OA
ATOM     19  H   UNL     1      35.770  26.956  21.927  1.00  0.00     0.296 HD
ENDBRANCH  16  18
ENDBRANCH   9  16
BRANCH  12  20
ATOM     20  O   UNL     1      34.629  32.769  22.960  1.00  0.00    -0.391 OA
ATOM     21  H   UNL     1      34.812  32.474  23.887  1.00  0.00     0.211 HD
ENDBRANCH  12  20
BRANCH  13  22
ATOM     22  N   UNL     1      32.369  32.108  21.331  1.00  0.00    -0.348 N 
ATOM     23  C   UNL     1      31.561  33.091  21.994  1.00  0.00     0.217 C 
ATOM     24  H   UNL     1      32.395  32.153  20.295  1.00  0.00     0.163 HD
ATOM     25  C   UNL     1      30.789  34.129  21.276  1.00  0.00     0.114 C 
ATOM     26  O   UNL     1      31.519  33.053  23.241  1.00  0.00    -0.275 OA
ENDBRANCH  13  22
ENDBRANCH   7   8
BRANCH   7  27
ATOM     27  O   UNL     1      30.789  29.754  21.687  1.00  0.00    -0.388 OA
ATOM     28  H   UNL     1      30.676  29.401  22.597  1.00  0.00     0.211 HD
ENDBRANCH   7  27
ENDBRANCH   6   7
BRANCH   6  29
ATOM     29  O   UNL     1      32.261  27.286  19.639  1.00  0.00    -0.388 OA
ATOM     30  H   UNL     1      32.738  28.002  19.145  1.00  0.00     0.211 HD
ENDBRANCH   6  29
ENDBRANCH   5   6
ENDBRANCH   1   5
BRANCH   2  31
ATOM     31  O   UNL     1      27.352  27.510  19.373  1.00  0.00    -0.443 OA
BRANCH  31  32
ATOM     32  C   UNL     1      26.688  28.664  18.898  1.00  0.00     0.294 C 
BRANCH  32  33
ATOM     33  C   UNL     1      27.539  29.362  17.875  1.00  0.00     0.121 A 
ATOM     34  C   UNL     1      28.423  30.398  18.086  1.00  0.00     0.144 A 
ATOM     35  N   UNL     1      27.610  29.118  16.544  1.00  0.00    -0.131 NA
ATOM     36  N   UNL     1      29.001  30.757  16.914  1.00  0.00    -0.220 N 
ATOM     37  N   UNL     1      28.473  29.952  16.017  1.00  0.00    -0.062 NA
BRANCH  36  38
ATOM     38  C   UNL     1      29.966  31.787  16.715  1.00  0.00     0.067 A 
ATOM     39  C   UNL     1      30.635  31.945  15.520  1.00  0.00     0.035 A 
ATOM     40  C   UNL     1      30.274  32.680  17.725  1.00  0.00     0.035 A 
ATOM     41  C   UNL     1      31.566  32.950  15.349  1.00  0.00     0.088 A 
ATOM     42  C   UNL     1      31.206  33.686  17.555  1.00  0.00     0.088 A 
ATOM     43  C   UNL     1      31.876  33.847  16.361  1.00  0.00     0.269 A 
BRANCH  43  44
ATOM     44  N   UNL     1      32.827  34.880  16.194  1.00  0.00     0.062 N 
ATOM     45  O   UNL     1      33.118  35.586  17.175  1.00  0.00    -0.258 OA
ATOM     46  O   UNL     1      33.454  35.151  15.011  1.00  0.00    -0.258 OA
ENDBRANCH  43  44
ENDBRANCH  36  38
ENDBRANCH  32  33
ENDBRANCH  31  32
ENDBRANCH   2  31
TORSDOF 16
BEGIN_RES LYS A 131
REMARK  4 active torsions:
REMARK  status: ('A' for Active; 'I' for Inactive)
REMARK    1  A    between atoms: CA   and  CB  
REMARK    2  A    between atoms: CB   and  CG  
REMARK    3  A    between atoms: CG   and  CD  
REMARK    4  A    between atoms: CD   and  CE  
ROOT
ATOM      1  CA  LYS A 131      29.867  25.555  16.977  1.00 20.52     0.186 C 
ENDROOT
BRANCH   1   2
ATOM      2  CB  LYS A 131      28.345  25.722  17.026  1.00 20.94     0.034 C 
BRANCH   2   3
ATOM      3  CG  LYS A 131      27.601  24.405  16.867  1.00 22.96     0.005 C 
BRANCH   3   4
ATOM      4  CD  LYS A 131      26.592  24.189  17.961  1.00 24.33     0.041 C 
BRANCH   4   5
ATOM      5  CE  LYS A 131      25.354  25.035  17.687  1.00 26.91     0.338 C 
ATOM      6  NZ  LYS A 131      24.629  25.319  18.948  1.00 27.40     0.618 N 
ENDBRANCH   4   5
ENDBRANCH   3   4
ENDBRANCH   2   3
ENDBRANCH   1   2
END_RES LYS A 131
BEGIN_RES LYS A 135
REMARK  4 active torsions:
REMARK  status: ('A' for Active; 'I' for Inactive)
REMARK    5  A    between atoms: CA   and  CB  
REMARK    6  A    between atoms: CB   and  CG  
REMARK    7  A    between atoms: CG   and  CD  
REMARK    8  A    between atoms: CD   and  CE  
ROOT
ATOM      7  CA  LYS A 135      33.193  34.663   9.290  1.00 25.02     0.186 C 
ENDROOT
BRANCH   7   8
ATOM      8  CB  LYS A 135      32.060  35.360  10.034  1.00 26.63     0.034 C 
BRANCH   8   9
ATOM      9  CG  LYS A 135      30.713  34.720   9.816  1.00 29.45     0.005 C 
BRANCH   9  10
ATOM     10  CD  LYS A 135      30.332  34.759   8.344  1.00 32.00     0.041 C 
BRANCH  10  11
ATOM     11  CE  LYS A 135      29.419  35.936   8.061  1.00 34.25     0.338 C 
ATOM     12  NZ  LYS A 135      27.998  35.594   8.349  1.00 35.99     0.618 N 
ENDBRANCH  10  11
ENDBRANCH   9  10
ENDBRANCH   8   9
ENDBRANCH   7   8
END_RES LYS A 135
