REMARK VINA RESULT:    -5.449      4.094      8.200
REMARK INTER + INTRA:         -15.514
REMARK INTER:                 -11.799
REMARK INTRA:                  -3.715
REMARK UNBOUND:                -6.084
REMARK SMILES CC(=O)N[C@@H]1[C@@H](O)C[C@](O)(C(=O)O)O[C@H]1C(O)[C@H](O)CNC(=O)OCc1cn(-c2c3ccccc3nc3ccccc23)nn1
REMARK SMILES IDX 20 1 18 2 16 3 15 4 9 5 8 6 14 7 6 8 5 9 10 10 11 12 12 13
REMARK SMILES IDX 13 14 7 16 4 18 2 19 1 21 3 22 17 23 19 25 21 27 22 28 23 30
REMARK SMILES IDX 24 31 25 32 26 33 27 34 44 35 28 36 43 37 29 38 30 39 42 40
REMARK SMILES IDX 31 41 35 42 37 43 41 44 32 45 34 46 36 47 38 48 40 49 33 50
REMARK SMILES IDX 39 51
REMARK H PARENT 10 11 13 15 7 17 4 20 17 24 19 26 21 29
REMARK Flexibility Score: inf
ROOT
ATOM      1  C   UNL     1      32.185  41.207   8.105  1.00  0.00     0.154 C 
ENDROOT
BRANCH   1   2
ATOM      2  C   UNL     1      33.562  41.681   7.722  1.00  0.00     0.165 C 
BRANCH   2   3
ATOM      3  C   UNL     1      34.480  40.505   7.848  1.00  0.00     0.176 C 
BRANCH   3   4
ATOM      4  C   UNL     1      35.461  40.362   6.694  1.00  0.00     0.178 C 
ATOM      5  C   UNL     1      36.367  38.735   5.404  1.00  0.00     0.269 C 
ATOM      6  C   UNL     1      37.804  39.133   5.618  1.00  0.00     0.112 C 
ATOM      7  O   UNL     1      35.576  39.019   6.469  1.00  0.00    -0.332 OA
ATOM      8  C   UNL     1      37.977  40.113   6.741  1.00  0.00     0.145 C 
ATOM      9  C   UNL     1      36.782  40.969   6.995  1.00  0.00     0.142 C 
BRANCH   5  10
ATOM     10  O   UNL     1      36.323  37.306   5.283  1.00  0.00    -0.357 OA
ATOM     11  H   UNL     1      35.391  36.998   5.393  1.00  0.00     0.214 HD
ENDBRANCH   5  10
BRANCH   5  12
ATOM     12  C   UNL     1      35.887  39.220   4.087  1.00  0.00     0.364 C 
ATOM     13  O   UNL     1      34.867  38.736   3.529  1.00  0.00    -0.246 OA
BRANCH  12  14
ATOM     14  O   UNL     1      36.535  40.245   3.379  1.00  0.00    -0.477 OA
ATOM     15  H   UNL     1      37.541  40.239   3.314  1.00  0.00     0.296 HD
ENDBRANCH  12  14
ENDBRANCH   5  12
BRANCH   8  16
ATOM     16  O   UNL     1      38.347  39.410   7.892  1.00  0.00    -0.391 OA
ATOM     17  H   UNL     1      38.672  38.502   7.670  1.00  0.00     0.211 HD
ENDBRANCH   8  16
BRANCH   9  18
ATOM     18  N   UNL     1      36.994  42.272   6.355  1.00  0.00    -0.348 N 
ATOM     19  C   UNL     1      36.975  43.495   7.081  1.00  0.00     0.217 C 
ATOM     20  H   UNL     1      37.171  42.356   5.329  1.00  0.00     0.163 HD
ATOM     21  C   UNL     1      37.196  44.814   6.411  1.00  0.00     0.114 C 
ATOM     22  O   UNL     1      36.767  43.485   8.322  1.00  0.00    -0.275 OA
ENDBRANCH   9  18
ENDBRANCH   3   4
BRANCH   3  23
ATOM     23  O   UNL     1      33.727  39.344   7.915  1.00  0.00    -0.388 OA
ATOM     24  H   UNL     1      32.776  39.605   7.991  1.00  0.00     0.211 HD
ENDBRANCH   3  23
ENDBRANCH   2   3
BRANCH   2  25
ATOM     25  O   UNL     1      33.933  42.752   8.500  1.00  0.00    -0.388 OA
ATOM     26  H   UNL     1      33.947  43.565   7.911  1.00  0.00     0.211 HD
ENDBRANCH   2  25
ENDBRANCH   1   2
BRANCH   1  27
ATOM     27  N   UNL     1      31.167  41.362   7.125  1.00  0.00    -0.319 N 
ATOM     28  C   UNL     1      31.039  40.573   5.963  1.00  0.00     0.407 C 
ATOM     29  H   UNL     1      30.406  42.125   7.222  1.00  0.00     0.167 HD
ATOM     30  O   UNL     1      31.845  39.658   5.699  1.00  0.00    -0.225 OA
BRANCH  28  31
ATOM     31  O   UNL     1      29.999  40.771   5.041  1.00  0.00    -0.443 OA
BRANCH  31  32
ATOM     32  C   UNL     1      28.640  40.788   5.478  1.00  0.00     0.294 C 
BRANCH  32  33
ATOM     33  C   UNL     1      28.215  39.382   5.675  1.00  0.00     0.121 A 
ATOM     34  C   UNL     1      27.923  38.771   6.877  1.00  0.00     0.144 A 
ATOM     35  N   UNL     1      28.024  38.409   4.751  1.00  0.00    -0.131 NA
ATOM     36  N   UNL     1      27.573  37.491   6.666  1.00  0.00    -0.219 N 
ATOM     37  N   UNL     1      27.641  37.290   5.369  1.00  0.00    -0.062 NA
BRANCH  36  38
ATOM     38  C   UNL     1      27.200  36.530   7.631  1.00  0.00     0.085 A 
ATOM     39  C   UNL     1      28.146  35.634   8.137  1.00  0.00     0.027 A 
ATOM     40  C   UNL     1      25.905  36.438   8.112  1.00  0.00     0.027 A 
ATOM     41  C   UNL     1      29.452  35.675   7.698  1.00  0.00     0.012 A 
ATOM     42  C   UNL     1      27.818  34.702   9.070  1.00  0.00     0.073 A 
ATOM     43  C   UNL     1      25.593  35.485   9.058  1.00  0.00     0.073 A 
ATOM     44  C   UNL     1      24.976  37.316   7.613  1.00  0.00     0.012 A 
ATOM     45  C   UNL     1      30.422  34.814   8.165  1.00  0.00     0.001 A 
ATOM     46  C   UNL     1      28.786  33.827   9.551  1.00  0.00     0.029 A 
ATOM     47  N   UNL     1      26.547  34.644   9.513  1.00  0.00    -0.248 NA
ATOM     48  C   UNL     1      24.295  35.430   9.505  1.00  0.00     0.029 A 
ATOM     49  C   UNL     1      23.666  37.234   8.087  1.00  0.00     0.001 A 
ATOM     50  C   UNL     1      30.095  33.851   9.126  1.00  0.00     0.002 A 
ATOM     51  C   UNL     1      23.311  36.296   9.032  1.00  0.00     0.002 A 
ENDBRANCH  36  38
ENDBRANCH  32  33
ENDBRANCH  31  32
ENDBRANCH  28  31
ENDBRANCH   1  27
TORSDOF 15
BEGIN_RES LYS A 131
REMARK  4 active torsions:
REMARK  status: ('A' for Active; 'I' for Inactive)
REMARK    1  A    between atoms: CA   and  CB  
REMARK    2  A    between atoms: CB   and  CG  
REMARK    3  A    between atoms: CG   and  CD  
REMARK    4  A    between atoms: CD   and  CE  
ROOT
ATOM      1  CA  LYS A 131      29.867  25.555  16.977  1.00 20.52     0.186 C 
ENDROOT
BRANCH   1   2
ATOM      2  CB  LYS A 131      28.345  25.722  17.026  1.00 20.94     0.034 C 
BRANCH   2   3
ATOM      3  CG  LYS A 131      27.601  24.403  16.887  1.00 22.96     0.005 C 
BRANCH   3   4
ATOM      4  CD  LYS A 131      26.502  24.262  17.903  1.00 24.33     0.041 C 
BRANCH   4   5
ATOM      5  CE  LYS A 131      25.150  24.443  17.220  1.00 26.91     0.338 C 
ATOM      6  NZ  LYS A 131      24.548  25.743  17.597  1.00 27.40     0.618 N 
ENDBRANCH   4   5
ENDBRANCH   3   4
ENDBRANCH   2   3
ENDBRANCH   1   2
END_RES LYS A 131
BEGIN_RES LYS A 135
REMARK  4 active torsions:
REMARK  status: ('A' for Active; 'I' for Inactive)
REMARK    5  A    between atoms: CA   and  CB  
REMARK    6  A    between atoms: CB   and  CG  
REMARK    7  A    between atoms: CG   and  CD  
REMARK    8  A    between atoms: CD   and  CE  
ROOT
ATOM      7  CA  LYS A 135      33.193  34.663   9.290  1.00 25.02     0.186 C 
ENDROOT
BRANCH   7   8
ATOM      8  CB  LYS A 135      32.060  35.360  10.034  1.00 26.63     0.034 C 
BRANCH   8   9
ATOM      9  CG  LYS A 135      32.534  36.265  11.142  1.00 29.45     0.005 C 
BRANCH   9  10
ATOM     10  CD  LYS A 135      31.502  37.344  11.432  1.00 32.00     0.041 C 
BRANCH  10  11
ATOM     11  CE  LYS A 135      30.854  37.112  12.783  1.00 34.25     0.338 C 
ATOM     12  NZ  LYS A 135      29.716  36.158  12.676  1.00 35.99     0.618 N 
ENDBRANCH  10  11
ENDBRANCH   9  10
ENDBRANCH   8   9
ENDBRANCH   7   8
END_RES LYS A 135
