REMARK VINA RESULT:    -5.638      7.238     12.030
REMARK INTER + INTRA:         -16.187
REMARK INTER:                  -8.616
REMARK INTRA:                  -7.571
REMARK UNBOUND:                -5.110
REMARK SMILES CC(=O)N[C@@H]1[C@@H](O)C[C@](O)(C(=O)O)O[C@H]1C(O)[C@H](O)CNC(=O)OCc1cn([C@@H](C)C(=O)OCc2ccccc2)nn1
REMARK SMILES IDX 24 1 22 2 21 3 23 5 20 6 18 7 16 8 15 9 9 10 8 11 14 12 6 13
REMARK SMILES IDX 5 14 10 15 11 17 12 18 13 19 7 21 4 23 2 24 1 26 3 27 17 28
REMARK SMILES IDX 19 30 25 32 26 33 27 34 42 35 28 36 41 37 29 38 30 39 31 40
REMARK SMILES IDX 32 41 33 42 34 43 35 44 36 45 40 46 37 47 39 48 38 49
REMARK H PARENT 21 4 10 16 13 20 7 22 4 25 17 29 19 31
REMARK Flexibility Score: inf
ROOT
ATOM      1  O   UNL     1      29.911  36.515  13.827  1.00  0.00    -0.443 OA
ENDROOT
BRANCH   1   2
ATOM      2  C   UNL     1      29.522  35.406  14.614  1.00  0.00     0.407 C 
ATOM      3  N   UNL     1      29.834  34.093  14.201  1.00  0.00    -0.319 N 
ATOM      4  H   UNL     1      30.354  34.017  13.270  1.00  0.00     0.167 HD
ATOM      5  O   UNL     1      28.906  35.679  15.661  1.00  0.00    -0.225 OA
BRANCH   3   6
ATOM      6  C   UNL     1      29.490  32.928  14.951  1.00  0.00     0.154 C 
BRANCH   6   7
ATOM      7  C   UNL     1      30.684  32.281  15.570  1.00  0.00     0.165 C 
BRANCH   7   8
ATOM      8  C   UNL     1      30.863  32.776  17.003  1.00  0.00     0.176 C 
BRANCH   8   9
ATOM      9  C   UNL     1      29.613  32.695  17.823  1.00  0.00     0.178 C 
ATOM     10  C   UNL     1      30.585  32.891  19.946  1.00  0.00     0.269 C 
ATOM     11  C   UNL     1      30.435  31.414  20.121  1.00  0.00     0.112 C 
ATOM     12  O   UNL     1      29.742  33.437  19.010  1.00  0.00    -0.332 OA
ATOM     13  C   UNL     1      29.087  30.989  19.577  1.00  0.00     0.145 C 
ATOM     14  C   UNL     1      29.097  31.321  18.092  1.00  0.00     0.142 C 
BRANCH  10  15
ATOM     15  O   UNL     1      31.898  33.212  19.688  1.00  0.00    -0.357 OA
ATOM     16  H   UNL     1      32.018  34.156  19.391  1.00  0.00     0.214 HD
ENDBRANCH  10  15
BRANCH  10  17
ATOM     17  C   UNL     1      30.219  33.552  21.251  1.00  0.00     0.364 C 
ATOM     18  O   UNL     1      31.039  34.298  21.844  1.00  0.00    -0.246 OA
BRANCH  17  19
ATOM     19  O   UNL     1      28.979  33.369  21.846  1.00  0.00    -0.477 OA
ATOM     20  H   UNL     1      28.422  32.515  21.688  1.00  0.00     0.296 HD
ENDBRANCH  17  19
ENDBRANCH  10  17
BRANCH  13  21
ATOM     21  O   UNL     1      28.866  29.645  19.805  1.00  0.00    -0.391 OA
ATOM     22  H   UNL     1      28.013  29.320  19.421  1.00  0.00     0.211 HD
ENDBRANCH  13  21
BRANCH  14  23
ATOM     23  N   UNL     1      27.754  31.099  17.545  1.00  0.00    -0.348 N 
ATOM     24  C   UNL     1      27.509  30.236  16.436  1.00  0.00     0.217 C 
ATOM     25  H   UNL     1      26.915  31.582  17.960  1.00  0.00     0.163 HD
ATOM     26  C   UNL     1      26.117  30.051  15.922  1.00  0.00     0.114 C 
ATOM     27  O   UNL     1      28.467  29.633  15.898  1.00  0.00    -0.275 OA
ENDBRANCH  14  23
ENDBRANCH   8   9
BRANCH   8  28
ATOM     28  O   UNL     1      31.279  34.113  16.965  1.00  0.00    -0.388 OA
ATOM     29  H   UNL     1      30.476  34.700  16.930  1.00  0.00     0.211 HD
ENDBRANCH   8  28
ENDBRANCH   7   8
BRANCH   7  30
ATOM     30  O   UNL     1      31.823  32.587  14.827  1.00  0.00    -0.388 OA
ATOM     31  H   UNL     1      32.629  32.725  15.406  1.00  0.00     0.211 HD
ENDBRANCH   7  30
ENDBRANCH   6   7
ENDBRANCH   3   6
ENDBRANCH   1   2
BRANCH   1  32
ATOM     32  C   UNL     1      31.236  36.569  13.340  1.00  0.00     0.294 C 
BRANCH  32  33
ATOM     33  C   UNL     1      32.228  36.303  14.399  1.00  0.00     0.120 A 
ATOM     34  C   UNL     1      32.623  37.114  15.437  1.00  0.00     0.139 A 
ATOM     35  N   UNL     1      32.940  35.172  14.534  1.00  0.00    -0.132 NA
ATOM     36  N   UNL     1      33.558  36.466  16.171  1.00  0.00    -0.238 N 
ATOM     37  N   UNL     1      33.729  35.302  15.605  1.00  0.00    -0.066 NA
BRANCH  36  38
ATOM     38  C   UNL     1      34.216  36.985  17.340  1.00  0.00     0.215 C 
ATOM     39  C   UNL     1      33.781  38.411  17.594  1.00  0.00     0.046 C 
BRANCH  38  40
ATOM     40  C   UNL     1      33.956  36.097  18.482  1.00  0.00     0.331 C 
ATOM     41  O   UNL     1      32.764  35.768  18.757  1.00  0.00    -0.250 OA
BRANCH  40  42
ATOM     42  O   UNL     1      34.962  35.597  19.281  1.00  0.00    -0.459 OA
BRANCH  42  43
ATOM     43  C   UNL     1      36.280  36.044  19.337  1.00  0.00     0.268 C 
BRANCH  43  44
ATOM     44  C   UNL     1      37.186  34.950  18.891  1.00  0.00    -0.011 A 
ATOM     45  C   UNL     1      37.495  33.911  19.741  1.00  0.00     0.007 A 
ATOM     46  C   UNL     1      37.714  34.970  17.628  1.00  0.00     0.007 A 
ATOM     47  C   UNL     1      38.327  32.897  19.331  1.00  0.00     0.000 A 
ATOM     48  C   UNL     1      38.545  33.975  17.194  1.00  0.00     0.000 A 
ATOM     49  C   UNL     1      38.850  32.941  18.046  1.00  0.00     0.000 A 
ENDBRANCH  43  44
ENDBRANCH  42  43
ENDBRANCH  40  42
ENDBRANCH  38  40
ENDBRANCH  36  38
ENDBRANCH  32  33
ENDBRANCH   1  32
TORSDOF 19
BEGIN_RES LYS A 131
REMARK  4 active torsions:
REMARK  status: ('A' for Active; 'I' for Inactive)
REMARK    1  A    between atoms: CA   and  CB  
REMARK    2  A    between atoms: CB   and  CG  
REMARK    3  A    between atoms: CG   and  CD  
REMARK    4  A    between atoms: CD   and  CE  
ROOT
ATOM      1  CA  LYS A 131      29.867  25.555  16.977  1.00 20.52     0.186 C 
ENDROOT
BRANCH   1   2
ATOM      2  CB  LYS A 131      28.345  25.722  17.026  1.00 20.94     0.034 C 
BRANCH   2   3
ATOM      3  CG  LYS A 131      27.601  24.404  16.877  1.00 22.96     0.005 C 
BRANCH   3   4
ATOM      4  CD  LYS A 131      26.148  24.529  17.243  1.00 24.33     0.041 C 
BRANCH   4   5
ATOM      5  CE  LYS A 131      25.984  24.340  18.748  1.00 26.91     0.338 C 
ATOM      6  NZ  LYS A 131      25.316  25.519  19.349  1.00 27.40     0.618 N 
ENDBRANCH   4   5
ENDBRANCH   3   4
ENDBRANCH   2   3
ENDBRANCH   1   2
END_RES LYS A 131
BEGIN_RES LYS A 135
REMARK  4 active torsions:
REMARK  status: ('A' for Active; 'I' for Inactive)
REMARK    5  A    between atoms: CA   and  CB  
REMARK    6  A    between atoms: CB   and  CG  
REMARK    7  A    between atoms: CG   and  CD  
REMARK    8  A    between atoms: CD   and  CE  
ROOT
ATOM      7  CA  LYS A 135      33.193  34.663   9.290  1.00 25.02     0.186 C 
ENDROOT
BRANCH   7   8
ATOM      8  CB  LYS A 135      32.060  35.360  10.034  1.00 26.63     0.034 C 
BRANCH   8   9
ATOM      9  CG  LYS A 135      30.734  34.655   9.910  1.00 29.45     0.005 C 
BRANCH   9  10
ATOM     10  CD  LYS A 135      30.321  34.542   8.451  1.00 32.00     0.041 C 
BRANCH  10  11
ATOM     11  CE  LYS A 135      28.810  34.511   8.326  1.00 34.25     0.338 C 
ATOM     12  NZ  LYS A 135      28.190  33.801   9.479  1.00 35.99     0.618 N 
ENDBRANCH  10  11
ENDBRANCH   9  10
ENDBRANCH   8   9
ENDBRANCH   7   8
END_RES LYS A 135
