REMARK VINA RESULT:    -4.166      4.723      9.638
REMARK INTER + INTRA:         -15.263
REMARK INTER:                  -9.031
REMARK INTRA:                  -6.232
REMARK UNBOUND:                -7.565
REMARK SMILES CC(=O)N[C@@H]1[C@@H](O)C[C@](O)(C(=O)O)O[C@H]1C(O)[C@H](O)CNC(=O)OCc1cn(CC(=O)Nc2ncccn2)nn1
REMARK SMILES IDX 21 1 22 2 23 3 20 5 18 6 16 7 15 8 9 9 8 10 14 11 6 12 5 13
REMARK SMILES IDX 10 14 11 16 12 17 13 18 7 20 4 22 2 23 1 25 3 26 17 27 19 29
REMARK SMILES IDX 24 31 25 32 26 33 27 34 40 35 28 36 39 37 29 38 30 39 31 40
REMARK SMILES IDX 32 41 33 43 34 44 38 45 35 46 37 47 36 48
REMARK H PARENT 21 4 10 15 13 19 7 21 4 24 17 28 19 30 32 42
REMARK Flexibility Score: inf
ROOT
ATOM      1  N   UNL     1      29.620  40.802   8.652  1.00  0.00    -0.319 N 
ATOM      2  C   UNL     1      31.034  40.657   8.437  1.00  0.00     0.407 C 
ATOM      3  O   UNL     1      31.770  40.135   9.310  1.00  0.00    -0.225 OA
ATOM      4  H   UNL     1      29.030  41.233   7.921  1.00  0.00     0.167 HD
ENDROOT
BRANCH   1   5
ATOM      5  C   UNL     1      29.082  40.331   9.898  1.00  0.00     0.154 C 
BRANCH   5   6
ATOM      6  C   UNL     1      28.084  39.212   9.735  1.00  0.00     0.165 C 
BRANCH   6   7
ATOM      7  C   UNL     1      28.695  37.973  10.343  1.00  0.00     0.176 C 
BRANCH   7   8
ATOM      8  C   UNL     1      28.367  36.729   9.513  1.00  0.00     0.178 C 
ATOM      9  C   UNL     1      28.998  35.548   7.696  1.00  0.00     0.269 C 
ATOM     10  C   UNL     1      27.607  35.050   7.549  1.00  0.00     0.112 C 
ATOM     11  O   UNL     1      29.040  36.764   8.316  1.00  0.00    -0.332 OA
ATOM     12  C   UNL     1      26.521  36.000   7.994  1.00  0.00     0.145 C 
ATOM     13  C   UNL     1      26.867  36.721   9.267  1.00  0.00     0.142 C 
BRANCH   9  14
ATOM     14  O   UNL     1      29.536  35.794   6.388  1.00  0.00    -0.357 OA
ATOM     15  H   UNL     1      29.483  36.773   6.208  1.00  0.00     0.214 HD
ENDBRANCH   9  14
BRANCH   9  16
ATOM     16  C   UNL     1      29.907  34.522   8.283  1.00  0.00     0.364 C 
ATOM     17  O   UNL     1      29.490  33.693   9.093  1.00  0.00    -0.246 OA
BRANCH  16  18
ATOM     18  O   UNL     1      31.260  34.461   7.939  1.00  0.00    -0.477 OA
ATOM     19  H   UNL     1      31.893  33.809   8.369  1.00  0.00     0.296 HD
ENDBRANCH  16  18
ENDBRANCH   9  16
BRANCH  12  20
ATOM     20  O   UNL     1      26.314  36.896   6.942  1.00  0.00    -0.391 OA
ATOM     21  H   UNL     1      26.107  37.815   7.276  1.00  0.00     0.211 HD
ENDBRANCH  12  20
BRANCH  13  22
ATOM     22  N   UNL     1      26.211  36.237  10.431  1.00  0.00    -0.348 N 
ATOM     23  C   UNL     1      24.996  36.749  10.952  1.00  0.00     0.217 C 
ATOM     24  H   UNL     1      26.634  35.441  10.967  1.00  0.00     0.163 HD
ATOM     25  C   UNL     1      24.362  36.193  12.187  1.00  0.00     0.114 C 
ATOM     26  O   UNL     1      24.460  37.693  10.344  1.00  0.00    -0.275 OA
ENDBRANCH  13  22
ENDBRANCH   7   8
BRANCH   7  27
ATOM     27  O   UNL     1      30.060  38.100  10.514  1.00  0.00    -0.388 OA
ATOM     28  H   UNL     1      30.437  37.184  10.691  1.00  0.00     0.211 HD
ENDBRANCH   7  27
ENDBRANCH   6   7
BRANCH   6  29
ATOM     29  O   UNL     1      27.847  39.051   8.371  1.00  0.00    -0.388 OA
ATOM     30  H   UNL     1      26.979  38.573   8.281  1.00  0.00     0.211 HD
ENDBRANCH   6  29
ENDBRANCH   5   6
ENDBRANCH   1   5
BRANCH   2  31
ATOM     31  O   UNL     1      31.626  41.084   7.271  1.00  0.00    -0.443 OA
BRANCH  31  32
ATOM     32  C   UNL     1      31.660  40.389   6.059  1.00  0.00     0.294 C 
BRANCH  32  33
ATOM     33  C   UNL     1      30.298  39.961   5.677  1.00  0.00     0.120 A 
ATOM     34  C   UNL     1      29.342  40.655   4.966  1.00  0.00     0.138 A 
ATOM     35  N   UNL     1      29.764  38.765   5.973  1.00  0.00    -0.132 NA
ATOM     36  N   UNL     1      28.276  39.864   4.860  1.00  0.00    -0.243 N 
ATOM     37  N   UNL     1      28.563  38.732   5.478  1.00  0.00    -0.067 NA
BRANCH  36  38
ATOM     38  C   UNL     1      27.038  40.226   4.162  1.00  0.00     0.246 C 
BRANCH  38  39
ATOM     39  C   UNL     1      25.995  40.619   5.155  1.00  0.00     0.248 C 
ATOM     40  O   UNL     1      25.302  41.646   5.071  1.00  0.00    -0.272 OA
ATOM     41  N   UNL     1      25.783  39.754   6.277  1.00  0.00    -0.293 N 
ATOM     42  H   UNL     1      26.353  38.883   6.374  1.00  0.00     0.173 HD
BRANCH  41  43
ATOM     43  C   UNL     1      24.814  40.038   7.268  1.00  0.00     0.229 A 
ATOM     44  N   UNL     1      25.066  40.785   8.360  1.00  0.00    -0.221 NA
ATOM     45  N   UNL     1      23.563  39.554   7.146  1.00  0.00    -0.221 NA
ATOM     46  C   UNL     1      24.122  41.040   9.287  1.00  0.00     0.117 A 
ATOM     47  C   UNL     1      22.588  39.770   8.024  1.00  0.00     0.117 A 
ATOM     48  C   UNL     1      22.846  40.536   9.144  1.00  0.00     0.040 A 
ENDBRANCH  41  43
ENDBRANCH  38  39
ENDBRANCH  36  38
ENDBRANCH  32  33
ENDBRANCH  31  32
ENDBRANCH   2  31
TORSDOF 17
BEGIN_RES LYS A 131
REMARK  4 active torsions:
REMARK  status: ('A' for Active; 'I' for Inactive)
REMARK    1  A    between atoms: CA   and  CB  
REMARK    2  A    between atoms: CB   and  CG  
REMARK    3  A    between atoms: CG   and  CD  
REMARK    4  A    between atoms: CD   and  CE  
ROOT
ATOM      1  CA  LYS A 131      29.867  25.555  16.977  1.00 20.52     0.186 C 
ENDROOT
BRANCH   1   2
ATOM      2  CB  LYS A 131      28.345  25.722  17.026  1.00 20.94     0.034 C 
BRANCH   2   3
ATOM      3  CG  LYS A 131      27.601  24.405  16.866  1.00 22.96     0.005 C 
BRANCH   3   4
ATOM      4  CD  LYS A 131      26.492  24.256  17.871  1.00 24.33     0.041 C 
BRANCH   4   5
ATOM      5  CE  LYS A 131      25.151  24.509  17.191  1.00 26.91     0.338 C 
ATOM      6  NZ  LYS A 131      24.361  23.257  17.119  1.00 27.40     0.618 N 
ENDBRANCH   4   5
ENDBRANCH   3   4
ENDBRANCH   2   3
ENDBRANCH   1   2
END_RES LYS A 131
BEGIN_RES LYS A 135
REMARK  4 active torsions:
REMARK  status: ('A' for Active; 'I' for Inactive)
REMARK    5  A    between atoms: CA   and  CB  
REMARK    6  A    between atoms: CB   and  CG  
REMARK    7  A    between atoms: CG   and  CD  
REMARK    8  A    between atoms: CD   and  CE  
ROOT
ATOM      7  CA  LYS A 135      33.193  34.663   9.290  1.00 25.02     0.186 C 
ENDROOT
BRANCH   7   8
ATOM      8  CB  LYS A 135      32.060  35.360  10.034  1.00 26.63     0.034 C 
BRANCH   8   9
ATOM      9  CG  LYS A 135      32.205  35.313  11.533  1.00 29.45     0.005 C 
BRANCH   9  10
ATOM     10  CD  LYS A 135      30.867  35.019  12.193  1.00 32.00     0.041 C 
BRANCH  10  11
ATOM     11  CE  LYS A 135      30.937  35.287  13.684  1.00 34.25     0.338 C 
ATOM     12  NZ  LYS A 135      32.268  34.908  14.235  1.00 35.99     0.618 N 
ENDBRANCH  10  11
ENDBRANCH   9  10
ENDBRANCH   8   9
ENDBRANCH   7   8
END_RES LYS A 135
