REMARK VINA RESULT:    -5.025      2.991      5.305
REMARK INTER + INTRA:         -15.994
REMARK INTER:                 -11.706
REMARK INTRA:                  -4.288
REMARK UNBOUND:                -6.121
REMARK SMILES CC(=O)N[C@@H]1[C@@H](O)C[C@](O)(C(=O)O)O[C@H]1C(O)[C@H](O)CNC(=O)OCc1cn(C[C@@H](C)CN2CCN(c3ccc(Cl)cc3)CC2)nn1
REMARK SMILES IDX 24 1 22 2 21 3 23 5 20 6 18 7 16 8 15 9 9 10 8 11 14 12 6 13
REMARK SMILES IDX 5 14 10 15 11 17 12 18 13 19 7 21 4 23 2 24 1 26 3 27 17 28
REMARK SMILES IDX 19 30 25 32 26 33 27 34 47 35 28 36 46 37 29 38 30 39 31 40
REMARK SMILES IDX 32 41 33 42 34 43 45 44 35 45 44 46 36 47 37 48 38 49 43 50
REMARK SMILES IDX 39 51 42 52 40 53 41 54
REMARK H PARENT 21 4 10 16 13 20 7 22 4 25 17 29 19 31
REMARK Flexibility Score: inf
ROOT
ATOM      1  O   UNL     1      26.732  34.494  10.956  1.00  0.00    -0.443 OA
ENDROOT
BRANCH   1   2
ATOM      2  C   UNL     1      27.223  34.503   9.659  1.00  0.00     0.407 C 
ATOM      3  N   UNL     1      26.728  35.344   8.624  1.00  0.00    -0.319 N 
ATOM      4  H   UNL     1      25.944  35.976   8.876  1.00  0.00     0.167 HD
ATOM      5  O   UNL     1      28.170  33.705   9.422  1.00  0.00    -0.225 OA
BRANCH   3   6
ATOM      6  C   UNL     1      27.355  35.239   7.347  1.00  0.00     0.154 C 
BRANCH   6   7
ATOM      7  C   UNL     1      28.309  36.306   6.986  1.00  0.00     0.165 C 
BRANCH   7   8
ATOM      8  C   UNL     1      27.718  37.494   6.249  1.00  0.00     0.176 C 
BRANCH   8   9
ATOM      9  C   UNL     1      28.495  38.694   6.792  1.00  0.00     0.178 C 
ATOM     10  C   UNL     1      30.634  39.157   7.603  1.00  0.00     0.269 C 
ATOM     11  C   UNL     1      30.040  40.049   8.656  1.00  0.00     0.112 C 
ATOM     12  O   UNL     1      29.755  38.248   7.078  1.00  0.00    -0.332 OA
ATOM     13  C   UNL     1      28.644  40.484   8.392  1.00  0.00     0.145 C 
ATOM     14  C   UNL     1      27.834  39.223   8.022  1.00  0.00     0.142 C 
BRANCH  10  15
ATOM     15  O   UNL     1      31.625  38.405   8.285  1.00  0.00    -0.357 OA
ATOM     16  H   UNL     1      31.223  37.722   8.853  1.00  0.00     0.214 HD
ENDBRANCH  10  15
BRANCH  10  17
ATOM     17  C   UNL     1      31.358  39.915   6.541  1.00  0.00     0.364 C 
ATOM     18  O   UNL     1      31.034  41.100   6.276  1.00  0.00    -0.246 OA
BRANCH  17  19
ATOM     19  O   UNL     1      32.402  39.372   5.806  1.00  0.00    -0.477 OA
ATOM     20  H   UNL     1      33.338  39.758   5.767  1.00  0.00     0.296 HD
ENDBRANCH  17  19
ENDBRANCH  10  17
BRANCH  13  21
ATOM     21  O   UNL     1      28.108  41.012   9.567  1.00  0.00    -0.391 OA
ATOM     22  H   UNL     1      27.687  40.298  10.114  1.00  0.00     0.211 HD
ENDBRANCH  13  21
BRANCH  14  23
ATOM     23  N   UNL     1      26.451  39.567   7.821  1.00  0.00    -0.348 N 
ATOM     24  C   UNL     1      25.419  38.893   8.510  1.00  0.00     0.217 C 
ATOM     25  H   UNL     1      26.213  40.324   7.159  1.00  0.00     0.163 HD
ATOM     26  C   UNL     1      24.020  39.330   8.226  1.00  0.00     0.114 C 
ATOM     27  O   UNL     1      25.626  37.972   9.327  1.00  0.00    -0.275 OA
ENDBRANCH  14  23
ENDBRANCH   8   9
BRANCH   8  28
ATOM     28  O   UNL     1      27.952  37.330   4.874  1.00  0.00    -0.388 OA
ATOM     29  H   UNL     1      27.075  37.102   4.473  1.00  0.00     0.211 HD
ENDBRANCH   8  28
ENDBRANCH   7   8
BRANCH   7  30
ATOM     30  O   UNL     1      29.208  35.741   6.039  1.00  0.00    -0.388 OA
ATOM     31  H   UNL     1      28.875  36.081   5.160  1.00  0.00     0.211 HD
ENDBRANCH   7  30
ENDBRANCH   6   7
ENDBRANCH   3   6
ENDBRANCH   1   2
BRANCH   1  32
ATOM     32  C   UNL     1      26.612  35.698  11.696  1.00  0.00     0.294 C 
BRANCH  32  33
ATOM     33  C   UNL     1      27.556  35.699  12.837  1.00  0.00     0.120 A 
ATOM     34  C   UNL     1      28.635  34.820  12.956  1.00  0.00     0.138 A 
ATOM     35  N   UNL     1      27.634  36.464  13.934  1.00  0.00    -0.132 NA
ATOM     36  N   UNL     1      29.316  35.068  14.084  1.00  0.00    -0.252 N 
ATOM     37  N   UNL     1      28.666  36.097  14.672  1.00  0.00    -0.067 NA
BRANCH  36  38
ATOM     38  C   UNL     1      30.509  34.428  14.607  1.00  0.00     0.150 C 
BRANCH  38  39
ATOM     39  C   UNL     1      30.152  33.021  15.102  1.00  0.00     0.022 C 
ATOM     40  C   UNL     1      31.358  32.225  15.432  1.00  0.00     0.011 C 
BRANCH  39  41
ATOM     41  C   UNL     1      29.018  33.041  16.039  1.00  0.00     0.089 C 
BRANCH  41  42
ATOM     42  N   UNL     1      27.823  32.458  15.512  1.00  0.00    -0.299 NA
ATOM     43  C   UNL     1      27.587  31.134  16.150  1.00  0.00     0.106 C 
ATOM     44  C   UNL     1      26.666  33.243  15.929  1.00  0.00     0.106 C 
ATOM     45  C   UNL     1      26.271  30.564  15.753  1.00  0.00     0.132 C 
ATOM     46  C   UNL     1      25.563  32.844  14.937  1.00  0.00     0.132 C 
ATOM     47  N   UNL     1      25.411  31.419  14.995  1.00  0.00    -0.369 N 
BRANCH  47  48
ATOM     48  C   UNL     1      24.339  30.841  14.260  1.00  0.00     0.037 A 
ATOM     49  C   UNL     1      24.052  29.504  14.419  1.00  0.00     0.027 A 
ATOM     50  C   UNL     1      23.585  31.604  13.378  1.00  0.00     0.027 A 
ATOM     51  C   UNL     1      23.020  28.949  13.699  1.00  0.00     0.022 A 
ATOM     52  C   UNL     1      22.560  31.040  12.665  1.00  0.00     0.022 A 
ATOM     53  C   UNL     1      22.277  29.694  12.833  1.00  0.00     0.041 A 
ATOM     54  Cl  UNL     1      20.974  28.991  11.912  1.00  0.00    -0.084 Cl
ENDBRANCH  47  48
ENDBRANCH  41  42
ENDBRANCH  39  41
ENDBRANCH  38  39
ENDBRANCH  36  38
ENDBRANCH  32  33
ENDBRANCH   1  32
TORSDOF 19
BEGIN_RES LYS A 131
REMARK  4 active torsions:
REMARK  status: ('A' for Active; 'I' for Inactive)
REMARK    1  A    between atoms: CA   and  CB  
REMARK    2  A    between atoms: CB   and  CG  
REMARK    3  A    between atoms: CG   and  CD  
REMARK    4  A    between atoms: CD   and  CE  
ROOT
ATOM      1  CA  LYS A 131      29.867  25.555  16.977  1.00 20.52     0.186 C 
ENDROOT
BRANCH   1   2
ATOM      2  CB  LYS A 131      28.345  25.722  17.026  1.00 20.94     0.034 C 
BRANCH   2   3
ATOM      3  CG  LYS A 131      27.602  24.398  16.930  1.00 22.96     0.005 C 
BRANCH   3   4
ATOM      4  CD  LYS A 131      26.499  24.293  17.946  1.00 24.33     0.041 C 
BRANCH   4   5
ATOM      5  CE  LYS A 131      26.067  25.691  18.375  1.00 26.91     0.338 C 
ATOM      6  NZ  LYS A 131      25.868  25.745  19.843  1.00 27.40     0.618 N 
ENDBRANCH   4   5
ENDBRANCH   3   4
ENDBRANCH   2   3
ENDBRANCH   1   2
END_RES LYS A 131
BEGIN_RES LYS A 135
REMARK  4 active torsions:
REMARK  status: ('A' for Active; 'I' for Inactive)
REMARK    5  A    between atoms: CA   and  CB  
REMARK    6  A    between atoms: CB   and  CG  
REMARK    7  A    between atoms: CG   and  CD  
REMARK    8  A    between atoms: CD   and  CE  
ROOT
ATOM      7  CA  LYS A 135      33.193  34.663   9.290  1.00 25.02     0.186 C 
ENDROOT
BRANCH   7   8
ATOM      8  CB  LYS A 135      32.060  35.360  10.034  1.00 26.63     0.034 C 
BRANCH   8   9
ATOM      9  CG  LYS A 135      32.437  35.808  11.423  1.00 29.45     0.005 C 
BRANCH   9  10
ATOM     10  CD  LYS A 135      32.221  37.305  11.581  1.00 32.00     0.041 C 
BRANCH  10  11
ATOM     11  CE  LYS A 135      31.469  37.601  12.865  1.00 34.25     0.338 C 
ATOM     12  NZ  LYS A 135      30.771  38.914  12.786  1.00 35.99     0.618 N 
ENDBRANCH  10  11
ENDBRANCH   9  10
ENDBRANCH   8   9
ENDBRANCH   7   8
END_RES LYS A 135
