REMARK VINA RESULT:    -4.717      6.403     13.000
REMARK INTER + INTRA:         -14.313
REMARK INTER:                  -7.783
REMARK INTRA:                  -6.530
REMARK UNBOUND:                -5.735
REMARK SMILES CC(=O)N[C@@H]1[C@@H](O)C[C@](O)(C(=O)O)O[C@H]1C(O)[C@H](O)CNC(=O)OCc1cn(-c2ccc(CO)cn2)nn1
REMARK SMILES IDX 21 1 22 2 23 3 20 5 18 6 16 7 15 8 9 9 8 10 14 11 6 12 5 13
REMARK SMILES IDX 10 14 11 16 12 17 13 18 7 20 4 22 2 23 1 25 3 26 17 27 19 29
REMARK SMILES IDX 24 31 25 32 26 33 27 34 38 35 28 36 37 37 29 38 30 39 36 40
REMARK SMILES IDX 31 41 35 42 32 43 33 44 34 45
REMARK H PARENT 21 4 10 15 13 19 7 21 4 24 17 28 19 30 34 46
REMARK Flexibility Score: inf
ROOT
ATOM      1  N   UNL     1      22.513  39.183   7.514  1.00  0.00    -0.319 N 
ATOM      2  C   UNL     1      22.014  38.563   8.707  1.00  0.00     0.407 C 
ATOM      3  O   UNL     1      22.243  39.163   9.782  1.00  0.00    -0.225 OA
ATOM      4  H   UNL     1      22.289  38.657   6.642  1.00  0.00     0.167 HD
ENDROOT
BRANCH   1   5
ATOM      5  C   UNL     1      23.226  40.430   7.567  1.00  0.00     0.154 C 
BRANCH   5   6
ATOM      6  C   UNL     1      24.546  40.294   6.824  1.00  0.00     0.165 C 
BRANCH   6   7
ATOM      7  C   UNL     1      25.594  40.073   7.877  1.00  0.00     0.176 C 
BRANCH   7   8
ATOM      8  C   UNL     1      26.961  39.670   7.407  1.00  0.00     0.178 C 
ATOM      9  C   UNL     1      27.849  39.123   5.291  1.00  0.00     0.269 C 
ATOM     10  C   UNL     1      28.672  37.989   5.850  1.00  0.00     0.112 C 
ATOM     11  O   UNL     1      26.788  39.433   6.069  1.00  0.00    -0.332 OA
ATOM     12  C   UNL     1      27.835  37.420   6.979  1.00  0.00     0.145 C 
ATOM     13  C   UNL     1      27.605  38.516   8.048  1.00  0.00     0.142 C 
BRANCH   9  14
ATOM     14  O   UNL     1      27.376  38.650   4.026  1.00  0.00    -0.357 OA
ATOM     15  H   UNL     1      27.091  37.705   4.121  1.00  0.00     0.214 HD
ENDBRANCH   9  14
BRANCH   9  16
ATOM     16  C   UNL     1      28.638  40.335   4.988  1.00  0.00     0.364 C 
ATOM     17  O   UNL     1      29.845  40.375   5.296  1.00  0.00    -0.246 OA
BRANCH  16  18
ATOM     18  O   UNL     1      28.062  41.425   4.365  1.00  0.00    -0.477 OA
ATOM     19  H   UNL     1      27.729  41.327   3.414  1.00  0.00     0.296 HD
ENDBRANCH  16  18
ENDBRANCH   9  16
BRANCH  12  20
ATOM     20  O   UNL     1      26.651  36.877   6.544  1.00  0.00    -0.391 OA
ATOM     21  H   UNL     1      26.066  36.682   7.331  1.00  0.00     0.211 HD
ENDBRANCH  12  20
BRANCH  13  22
ATOM     22  N   UNL     1      28.901  38.740   8.602  1.00  0.00    -0.348 N 
ATOM     23  C   UNL     1      29.319  38.145   9.804  1.00  0.00     0.217 C 
ATOM     24  H   UNL     1      29.555  39.368   8.103  1.00  0.00     0.163 HD
ATOM     25  C   UNL     1      30.665  38.377  10.378  1.00  0.00     0.114 C 
ATOM     26  O   UNL     1      28.534  37.392  10.414  1.00  0.00    -0.275 OA
ENDBRANCH  13  22
ENDBRANCH   7   8
BRANCH   7  27
ATOM     27  O   UNL     1      25.153  39.021   8.701  1.00  0.00    -0.388 OA
ATOM     28  H   UNL     1      24.160  38.948   8.701  1.00  0.00     0.211 HD
ENDBRANCH   7  27
ENDBRANCH   6   7
BRANCH   6  29
ATOM     29  O   UNL     1      24.721  41.582   6.249  1.00  0.00    -0.388 OA
ATOM     30  H   UNL     1      24.340  41.575   5.356  1.00  0.00     0.211 HD
ENDBRANCH   6  29
ENDBRANCH   5   6
ENDBRANCH   1   5
BRANCH   2  31
ATOM     31  O   UNL     1      21.322  37.383   8.707  1.00  0.00    -0.443 OA
BRANCH  31  32
ATOM     32  C   UNL     1      21.889  36.134   8.449  1.00  0.00     0.294 C 
BRANCH  32  33
ATOM     33  C   UNL     1      23.233  35.952   9.052  1.00  0.00     0.121 A 
ATOM     34  C   UNL     1      23.452  35.429  10.329  1.00  0.00     0.146 A 
ATOM     35  N   UNL     1      24.448  36.212   8.586  1.00  0.00    -0.131 NA
ATOM     36  N   UNL     1      24.764  35.403  10.567  1.00  0.00    -0.202 N 
ATOM     37  N   UNL     1      25.360  35.881   9.501  1.00  0.00    -0.061 NA
BRANCH  36  38
ATOM     38  C   UNL     1      25.396  34.943  11.770  1.00  0.00     0.155 A 
ATOM     39  C   UNL     1      24.829  34.002  12.603  1.00  0.00     0.049 A 
ATOM     40  N   UNL     1      26.588  35.445  12.131  1.00  0.00    -0.237 NA
ATOM     41  C   UNL     1      25.421  33.567  13.760  1.00  0.00     0.011 A 
ATOM     42  C   UNL     1      27.207  35.050  13.254  1.00  0.00     0.119 A 
ATOM     43  C   UNL     1      26.647  34.102  14.104  1.00  0.00    -0.004 A 
BRANCH  43  44
ATOM     44  C   UNL     1      27.380  33.699  15.339  1.00  0.00     0.193 C 
BRANCH  44  45
ATOM     45  O   UNL     1      28.728  33.556  15.037  1.00  0.00    -0.392 OA
ATOM     46  H   UNL     1      28.840  32.911  14.292  1.00  0.00     0.211 HD
ENDBRANCH  44  45
ENDBRANCH  43  44
ENDBRANCH  36  38
ENDBRANCH  32  33
ENDBRANCH  31  32
ENDBRANCH   2  31
TORSDOF 17
BEGIN_RES LYS A 131
REMARK  4 active torsions:
REMARK  status: ('A' for Active; 'I' for Inactive)
REMARK    1  A    between atoms: CA   and  CB  
REMARK    2  A    between atoms: CB   and  CG  
REMARK    3  A    between atoms: CG   and  CD  
REMARK    4  A    between atoms: CD   and  CE  
ROOT
ATOM      1  CA  LYS A 131      29.867  25.555  16.977  1.00 20.52     0.186 C 
ENDROOT
BRANCH   1   2
ATOM      2  CB  LYS A 131      28.345  25.722  17.026  1.00 20.94     0.034 C 
BRANCH   2   3
ATOM      3  CG  LYS A 131      27.602  24.400  16.917  1.00 22.96     0.005 C 
BRANCH   3   4
ATOM      4  CD  LYS A 131      26.531  24.263  17.963  1.00 24.33     0.041 C 
BRANCH   4   5
ATOM      5  CE  LYS A 131      25.280  23.657  17.336  1.00 26.91     0.338 C 
ATOM      6  NZ  LYS A 131      24.339  24.724  16.920  1.00 27.40     0.618 N 
ENDBRANCH   4   5
ENDBRANCH   3   4
ENDBRANCH   2   3
ENDBRANCH   1   2
END_RES LYS A 131
BEGIN_RES LYS A 135
REMARK  4 active torsions:
REMARK  status: ('A' for Active; 'I' for Inactive)
REMARK    5  A    between atoms: CA   and  CB  
REMARK    6  A    between atoms: CB   and  CG  
REMARK    7  A    between atoms: CG   and  CD  
REMARK    8  A    between atoms: CD   and  CE  
ROOT
ATOM      7  CA  LYS A 135      33.193  34.663   9.290  1.00 25.02     0.186 C 
ENDROOT
BRANCH   7   8
ATOM      8  CB  LYS A 135      32.060  35.360  10.034  1.00 26.63     0.034 C 
BRANCH   8   9
ATOM      9  CG  LYS A 135      30.738  34.644   9.927  1.00 29.45     0.005 C 
BRANCH   9  10
ATOM     10  CD  LYS A 135      30.286  34.567   8.477  1.00 32.00     0.041 C 
BRANCH  10  11
ATOM     11  CE  LYS A 135      28.778  34.423   8.397  1.00 34.25     0.338 C 
ATOM     12  NZ  LYS A 135      28.238  33.752   9.611  1.00 35.99     0.618 N 
ENDBRANCH  10  11
ENDBRANCH   9  10
ENDBRANCH   8   9
ENDBRANCH   7   8
END_RES LYS A 135
