REMARK VINA RESULT:    -4.788      3.506      6.134
REMARK INTER + INTRA:         -14.191
REMARK INTER:                  -7.734
REMARK INTRA:                  -6.457
REMARK UNBOUND:                -4.785
REMARK SMILES C=CCCCCn1cc(COC(=O)NC[C@@H](O)C(O)[C@@H]2O[C@@](O)(C(=O)O)C[C@H](O)[C@H]2NC(C)=O)nn1
REMARK SMILES IDX 11 1 12 2 14 3 13 5 15 6 16 7 18 8 20 9 22 10 27 11 21 12
REMARK SMILES IDX 28 13 30 14 23 15 24 17 25 18 26 19 29 21 31 23 32 24 33 26
REMARK SMILES IDX 34 27 19 28 17 30 10 32 9 33 8 34 35 35 7 36 36 37 6 38 5 39
REMARK SMILES IDX 4 40 3 41 2 42 1 43
REMARK H PARENT 14 4 23 16 26 20 29 22 31 25 19 29 17 31
REMARK Flexibility Score: inf
ROOT
ATOM      1  O   UNL     1      31.588  35.254  18.632  1.00  0.00    -0.443 OA
ENDROOT
BRANCH   1   2
ATOM      2  C   UNL     1      31.666  34.389  19.707  1.00  0.00     0.407 C 
ATOM      3  N   UNL     1      31.354  33.011  19.461  1.00  0.00    -0.319 N 
ATOM      4  H   UNL     1      31.088  32.728  18.498  1.00  0.00     0.167 HD
ATOM      5  O   UNL     1      31.999  34.789  20.868  1.00  0.00    -0.225 OA
BRANCH   3   6
ATOM      6  C   UNL     1      31.402  32.034  20.496  1.00  0.00     0.154 C 
BRANCH   6   7
ATOM      7  C   UNL     1      30.480  30.837  20.257  1.00  0.00     0.165 C 
BRANCH   7   8
ATOM      8  C   UNL     1      29.644  31.198  19.055  1.00  0.00     0.176 C 
BRANCH   8   9
ATOM      9  C   UNL     1      28.255  30.649  19.092  1.00  0.00     0.178 C 
ATOM     10  C   UNL     1      27.290  28.621  18.510  1.00  0.00     0.269 C 
ATOM     11  C   UNL     1      25.993  29.399  18.588  1.00  0.00     0.112 C 
ATOM     12  O   UNL     1      28.287  29.285  19.202  1.00  0.00    -0.332 OA
ATOM     13  C   UNL     1      26.150  30.625  17.719  1.00  0.00     0.145 C 
ATOM     14  C   UNL     1      27.584  31.099  17.787  1.00  0.00     0.142 C 
BRANCH  10  15
ATOM     15  O   UNL     1      27.642  28.362  17.189  1.00  0.00    -0.357 OA
ATOM     16  H   UNL     1      28.536  27.955  17.150  1.00  0.00     0.214 HD
ENDBRANCH  10  15
BRANCH  10  17
ATOM     17  C   UNL     1      27.043  27.308  19.159  1.00  0.00     0.364 C 
ATOM     18  O   UNL     1      25.883  26.854  19.338  1.00  0.00    -0.246 OA
BRANCH  17  19
ATOM     19  O   UNL     1      28.092  26.492  19.614  1.00  0.00    -0.477 OA
ATOM     20  H   UNL     1      28.287  26.495  20.612  1.00  0.00     0.296 HD
ENDBRANCH  17  19
ENDBRANCH  10  17
BRANCH  13  21
ATOM     21  O   UNL     1      25.883  30.283  16.406  1.00  0.00    -0.391 OA
ATOM     22  H   UNL     1      26.611  30.610  15.821  1.00  0.00     0.211 HD
ENDBRANCH  13  21
BRANCH  14  23
ATOM     23  N   UNL     1      27.675  32.546  17.723  1.00  0.00    -0.348 N 
ATOM     24  C   UNL     1      27.753  33.269  16.499  1.00  0.00     0.217 C 
ATOM     25  H   UNL     1      27.689  33.143  18.597  1.00  0.00     0.163 HD
ATOM     26  C   UNL     1      27.848  34.759  16.445  1.00  0.00     0.114 C 
ATOM     27  O   UNL     1      27.740  32.587  15.437  1.00  0.00    -0.275 OA
ENDBRANCH  14  23
ENDBRANCH   8   9
BRANCH   8  28
ATOM     28  O   UNL     1      30.367  30.760  17.933  1.00  0.00    -0.388 OA
ATOM     29  H   UNL     1      30.233  31.356  17.154  1.00  0.00     0.211 HD
ENDBRANCH   8  28
ENDBRANCH   7   8
BRANCH   7  30
ATOM     30  O   UNL     1      29.742  30.530  21.380  1.00  0.00    -0.388 OA
ATOM     31  H   UNL     1      30.179  30.705  22.231  1.00  0.00     0.211 HD
ENDBRANCH   7  30
ENDBRANCH   6   7
ENDBRANCH   3   6
ENDBRANCH   1   2
BRANCH   1  32
ATOM     32  C   UNL     1      32.560  35.219  17.621  1.00  0.00     0.294 C 
BRANCH  32  33
ATOM     33  C   UNL     1      31.939  34.513  16.451  1.00  0.00     0.120 A 
ATOM     34  C   UNL     1      31.627  35.134  15.252  1.00  0.00     0.138 A 
ATOM     35  N   UNL     1      31.574  33.239  16.307  1.00  0.00    -0.132 NA
ATOM     36  N   UNL     1      31.091  34.223  14.431  1.00  0.00    -0.252 N 
ATOM     37  N   UNL     1      31.070  33.084  15.095  1.00  0.00    -0.067 NA
BRANCH  36  38
ATOM     38  C   UNL     1      30.603  34.378  13.068  1.00  0.00     0.146 C 
BRANCH  38  39
ATOM     39  C   UNL     1      29.149  34.772  13.087  1.00  0.00     0.024 C 
BRANCH  39  40
ATOM     40  C   UNL     1      28.891  35.969  12.206  1.00  0.00     0.006 C 
BRANCH  40  41
ATOM     41  C   UNL     1      29.153  37.270  12.918  1.00  0.00     0.027 C 
BRANCH  41  42
ATOM     42  C   UNL     1      30.185  38.047  12.194  1.00  0.00    -0.035 C 
ATOM     43  C   UNL     1      31.470  37.784  12.284  1.00  0.00     0.004 C 
ENDBRANCH  41  42
ENDBRANCH  40  41
ENDBRANCH  39  40
ENDBRANCH  38  39
ENDBRANCH  36  38
ENDBRANCH  32  33
ENDBRANCH   1  32
TORSDOF 19
BEGIN_RES LYS A 131
REMARK  4 active torsions:
REMARK  status: ('A' for Active; 'I' for Inactive)
REMARK    1  A    between atoms: CA   and  CB  
REMARK    2  A    between atoms: CB   and  CG  
REMARK    3  A    between atoms: CG   and  CD  
REMARK    4  A    between atoms: CD   and  CE  
ROOT
ATOM      1  CA  LYS A 131      29.867  25.555  16.977  1.00 20.52     0.186 C 
ENDROOT
BRANCH   1   2
ATOM      2  CB  LYS A 131      28.345  25.722  17.026  1.00 20.94     0.034 C 
BRANCH   2   3
ATOM      3  CG  LYS A 131      27.599  24.458  16.627  1.00 22.96     0.005 C 
BRANCH   3   4
ATOM      4  CD  LYS A 131      26.858  23.848  17.784  1.00 24.33     0.041 C 
BRANCH   4   5
ATOM      5  CE  LYS A 131      25.360  23.865  17.495  1.00 26.91     0.338 C 
ATOM      6  NZ  LYS A 131      24.812  22.489  17.520  1.00 27.40     0.618 N 
ENDBRANCH   4   5
ENDBRANCH   3   4
ENDBRANCH   2   3
ENDBRANCH   1   2
END_RES LYS A 131
BEGIN_RES LYS A 135
REMARK  4 active torsions:
REMARK  status: ('A' for Active; 'I' for Inactive)
REMARK    5  A    between atoms: CA   and  CB  
REMARK    6  A    between atoms: CB   and  CG  
REMARK    7  A    between atoms: CG   and  CD  
REMARK    8  A    between atoms: CD   and  CE  
ROOT
ATOM      7  CA  LYS A 135      33.193  34.663   9.290  1.00 25.02     0.186 C 
ENDROOT
BRANCH   7   8
ATOM      8  CB  LYS A 135      32.060  35.360  10.034  1.00 26.63     0.034 C 
BRANCH   8   9
ATOM      9  CG  LYS A 135      30.827  35.571   9.193  1.00 29.45     0.005 C 
BRANCH   9  10
ATOM     10  CD  LYS A 135      30.133  34.246   8.917  1.00 32.00     0.041 C 
BRANCH  10  11
ATOM     11  CE  LYS A 135      28.693  34.476   8.499  1.00 34.25     0.338 C 
ATOM     12  NZ  LYS A 135      28.621  35.260   7.235  1.00 35.99     0.618 N 
ENDBRANCH  10  11
ENDBRANCH   9  10
ENDBRANCH   8   9
ENDBRANCH   7   8
END_RES LYS A 135
