REMARK VINA RESULT:    -4.998      2.326      4.182
REMARK INTER + INTRA:         -14.567
REMARK INTER:                  -8.524
REMARK INTRA:                  -6.043
REMARK UNBOUND:                -5.917
REMARK SMILES CC(=O)N[C@@H]1[C@@H](O)C[C@](O)(C(=O)O)O[C@H]1C(O)[C@H](O)CNC(=O)OCc1cn(-c2c(C)cc(C)cc2C)nn1
REMARK SMILES IDX 20 1 18 2 16 3 15 4 9 5 8 6 14 7 6 8 5 9 10 10 11 12 12 13
REMARK SMILES IDX 13 14 7 16 4 18 2 19 1 21 3 22 17 23 19 25 21 27 22 28 23 30
REMARK SMILES IDX 24 31 25 32 26 33 27 34 39 35 28 36 38 37 29 38 30 39 36 40
REMARK SMILES IDX 31 41 32 42 35 43 37 44 33 45 34 46
REMARK H PARENT 10 11 13 15 7 17 4 20 17 24 19 26 21 29
REMARK Flexibility Score: inf
ROOT
ATOM      1  C   UNL     1      27.973  27.271  21.890  1.00  0.00     0.154 C 
ENDROOT
BRANCH   1   2
ATOM      2  C   UNL     1      29.390  27.423  22.311  1.00  0.00     0.165 C 
BRANCH   2   3
ATOM      3  C   UNL     1      30.280  28.128  21.338  1.00  0.00     0.176 C 
BRANCH   3   4
ATOM      4  C   UNL     1      31.569  28.627  21.875  1.00  0.00     0.178 C 
ATOM      5  C   UNL     1      33.076  27.986  23.544  1.00  0.00     0.269 C 
ATOM      6  C   UNL     1      33.747  29.328  23.484  1.00  0.00     0.112 C 
ATOM      7  O   UNL     1      32.341  27.658  22.445  1.00  0.00    -0.332 OA
ATOM      8  C   UNL     1      32.927  30.384  22.826  1.00  0.00     0.145 C 
ATOM      9  C   UNL     1      31.481  29.870  22.708  1.00  0.00     0.142 C 
BRANCH   5  10
ATOM     10  O   UNL     1      32.288  27.955  24.692  1.00  0.00    -0.357 OA
ATOM     11  H   UNL     1      31.345  27.784  24.406  1.00  0.00     0.214 HD
ENDBRANCH   5  10
BRANCH   5  12
ATOM     12  C   UNL     1      34.155  26.973  23.689  1.00  0.00     0.364 C 
ATOM     13  O   UNL     1      34.033  26.028  24.493  1.00  0.00    -0.246 OA
BRANCH  12  14
ATOM     14  O   UNL     1      35.328  27.061  22.929  1.00  0.00    -0.477 OA
ATOM     15  H   UNL     1      35.344  26.613  22.001  1.00  0.00     0.296 HD
ENDBRANCH  12  14
ENDBRANCH   5  12
BRANCH   8  16
ATOM     16  O   UNL     1      32.982  31.620  23.439  1.00  0.00    -0.391 OA
ATOM     17  H   UNL     1      33.418  31.489  24.332  1.00  0.00     0.211 HD
ENDBRANCH   8  16
BRANCH   9  18
ATOM     18  N   UNL     1      30.765  30.925  22.038  1.00  0.00    -0.348 N 
ATOM     19  C   UNL     1      29.603  31.453  22.661  1.00  0.00     0.217 C 
ATOM     20  H   UNL     1      31.070  31.315  21.113  1.00  0.00     0.163 HD
ATOM     21  C   UNL     1      28.794  32.541  22.052  1.00  0.00     0.114 C 
ATOM     22  O   UNL     1      29.216  31.006  23.770  1.00  0.00    -0.275 OA
ENDBRANCH   9  18
ENDBRANCH   3   4
BRANCH   3  23
ATOM     23  O   UNL     1      30.522  27.262  20.275  1.00  0.00    -0.388 OA
ATOM     24  H   UNL     1      30.282  26.348  20.569  1.00  0.00     0.211 HD
ENDBRANCH   3  23
ENDBRANCH   2   3
BRANCH   2  25
ATOM     25  O   UNL     1      29.925  26.209  22.746  1.00  0.00    -0.388 OA
ATOM     26  H   UNL     1      29.223  25.587  23.063  1.00  0.00     0.211 HD
ENDBRANCH   2  25
ENDBRANCH   1   2
BRANCH   1  27
ATOM     27  N   UNL     1      27.541  28.300  20.965  1.00  0.00    -0.319 N 
ATOM     28  C   UNL     1      27.341  28.062  19.576  1.00  0.00     0.407 C 
ATOM     29  H   UNL     1      27.348  29.298  21.277  1.00  0.00     0.167 HD
ATOM     30  O   UNL     1      27.537  26.930  19.098  1.00  0.00    -0.225 OA
BRANCH  28  31
ATOM     31  O   UNL     1      26.922  29.087  18.723  1.00  0.00    -0.443 OA
BRANCH  31  32
ATOM     32  C   UNL     1      27.057  30.450  19.153  1.00  0.00     0.294 C 
BRANCH  32  33
ATOM     33  C   UNL     1      28.453  30.883  18.892  1.00  0.00     0.121 A 
ATOM     34  C   UNL     1      28.825  32.028  18.207  1.00  0.00     0.144 A 
ATOM     35  N   UNL     1      29.584  30.290  19.246  1.00  0.00    -0.131 NA
ATOM     36  N   UNL     1      30.157  32.103  18.161  1.00  0.00    -0.220 N 
ATOM     37  N   UNL     1      30.582  31.009  18.816  1.00  0.00    -0.062 NA
BRANCH  36  38
ATOM     38  C   UNL     1      31.000  33.085  17.573  1.00  0.00     0.072 A 
ATOM     39  C   UNL     1      31.514  34.108  18.339  1.00  0.00    -0.025 A 
ATOM     40  C   UNL     1      31.331  33.054  16.227  1.00  0.00    -0.025 A 
ATOM     41  C   UNL     1      31.176  34.163  19.778  1.00  0.00     0.047 C 
ATOM     42  C   UNL     1      32.344  35.074  17.755  1.00  0.00     0.009 A 
ATOM     43  C   UNL     1      32.150  34.012  15.662  1.00  0.00     0.009 A 
ATOM     44  C   UNL     1      30.759  31.928  15.406  1.00  0.00     0.047 C 
ATOM     45  C   UNL     1      32.672  35.040  16.417  1.00  0.00    -0.050 A 
ATOM     46  C   UNL     1      33.559  36.082  15.819  1.00  0.00     0.044 C 
ENDBRANCH  36  38
ENDBRANCH  32  33
ENDBRANCH  31  32
ENDBRANCH  28  31
ENDBRANCH   1  27
TORSDOF 15
BEGIN_RES LYS A 131
REMARK  4 active torsions:
REMARK  status: ('A' for Active; 'I' for Inactive)
REMARK    1  A    between atoms: CA   and  CB  
REMARK    2  A    between atoms: CB   and  CG  
REMARK    3  A    between atoms: CG   and  CD  
REMARK    4  A    between atoms: CD   and  CE  
ROOT
ATOM      1  CA  LYS A 131      29.867  25.555  16.977  1.00 20.52     0.186 C 
ENDROOT
BRANCH   1   2
ATOM      2  CB  LYS A 131      28.345  25.722  17.026  1.00 20.94     0.034 C 
BRANCH   2   3
ATOM      3  CG  LYS A 131      27.599  24.479  16.566  1.00 22.96     0.005 C 
BRANCH   3   4
ATOM      4  CD  LYS A 131      26.964  23.743  17.714  1.00 24.33     0.041 C 
BRANCH   4   5
ATOM      5  CE  LYS A 131      25.474  23.563  17.440  1.00 26.91     0.338 C 
ATOM      6  NZ  LYS A 131      24.790  24.878  17.410  1.00 27.40     0.618 N 
ENDBRANCH   4   5
ENDBRANCH   3   4
ENDBRANCH   2   3
ENDBRANCH   1   2
END_RES LYS A 131
BEGIN_RES LYS A 135
REMARK  4 active torsions:
REMARK  status: ('A' for Active; 'I' for Inactive)
REMARK    5  A    between atoms: CA   and  CB  
REMARK    6  A    between atoms: CB   and  CG  
REMARK    7  A    between atoms: CG   and  CD  
REMARK    8  A    between atoms: CD   and  CE  
ROOT
ATOM      7  CA  LYS A 135      33.193  34.663   9.290  1.00 25.02     0.186 C 
ENDROOT
BRANCH   7   8
ATOM      8  CB  LYS A 135      32.060  35.360  10.034  1.00 26.63     0.034 C 
BRANCH   8   9
ATOM      9  CG  LYS A 135      30.877  35.688   9.160  1.00 29.45     0.005 C 
BRANCH   9  10
ATOM     10  CD  LYS A 135      30.365  34.440   8.458  1.00 32.00     0.041 C 
BRANCH  10  11
ATOM     11  CE  LYS A 135      28.850  34.448   8.396  1.00 34.25     0.338 C 
ATOM     12  NZ  LYS A 135      28.261  33.773   9.586  1.00 35.99     0.618 N 
ENDBRANCH  10  11
ENDBRANCH   9  10
ENDBRANCH   8   9
ENDBRANCH   7   8
END_RES LYS A 135
