REMARK VINA RESULT:    -4.790      6.360     11.852
REMARK INTER + INTRA:         -14.802
REMARK INTER:                 -10.098
REMARK INTRA:                  -4.703
REMARK UNBOUND:                -5.671
REMARK SMILES CCOC(=O)c1cccc(-n2cc(COC(=O)NC[C@@H](O)C(O)[C@@H]3O[C@@](O)(C(=O)O)C[C@H](O)[C@H]3NC(C)=O)nn2)c1
REMARK SMILES IDX 18 1 16 2 17 3 19 5 20 6 22 7 24 8 26 9 31 10 25 11 32 12
REMARK SMILES IDX 34 13 27 14 28 16 29 17 30 18 33 20 35 22 36 23 37 25 38 26
REMARK SMILES IDX 23 27 21 29 15 31 14 32 13 33 12 34 39 35 11 36 40 37 10 38
REMARK SMILES IDX 41 39 9 40 6 41 8 42 7 43 4 44 5 45 3 46 2 47 1 48
REMARK H PARENT 18 4 27 15 30 19 33 21 35 24 23 28 21 30
REMARK Flexibility Score: inf
ROOT
ATOM      1  N   UNL     1      21.513  36.927   9.030  1.00  0.00    -0.319 N 
ATOM      2  C   UNL     1      20.277  37.187   9.681  1.00  0.00     0.407 C 
ATOM      3  O   UNL     1      19.565  38.131   9.258  1.00  0.00    -0.225 OA
ATOM      4  H   UNL     1      22.086  36.141   9.396  1.00  0.00     0.167 HD
ENDROOT
BRANCH   1   5
ATOM      5  C   UNL     1      21.957  37.723   7.904  1.00  0.00     0.154 C 
BRANCH   5   6
ATOM      6  C   UNL     1      23.423  37.605   7.650  1.00  0.00     0.165 C 
BRANCH   6   7
ATOM      7  C   UNL     1      24.190  37.045   8.804  1.00  0.00     0.176 C 
BRANCH   7   8
ATOM      8  C   UNL     1      25.700  36.960   8.459  1.00  0.00     0.178 C 
ATOM      9  C   UNL     1      27.126  36.763   6.713  1.00  0.00     0.269 C 
ATOM     10  C   UNL     1      27.660  35.423   7.165  1.00  0.00     0.112 C 
ATOM     11  O   UNL     1      25.827  36.880   7.097  1.00  0.00    -0.332 OA
ATOM     12  C   UNL     1      27.539  35.223   8.645  1.00  0.00     0.145 C 
ATOM     13  C   UNL     1      26.323  35.867   9.246  1.00  0.00     0.142 C 
BRANCH   9  14
ATOM     14  O   UNL     1      27.121  36.691   5.291  1.00  0.00    -0.357 OA
ATOM     15  H   UNL     1      27.998  36.883   4.912  1.00  0.00     0.214 HD
ENDBRANCH   9  14
BRANCH   9  16
ATOM     16  C   UNL     1      28.033  37.851   7.102  1.00  0.00     0.364 C 
ATOM     17  O   UNL     1      27.635  39.037   7.357  1.00  0.00    -0.246 OA
BRANCH  16  18
ATOM     18  O   UNL     1      29.409  37.567   7.198  1.00  0.00    -0.477 OA
ATOM     19  H   UNL     1      29.676  36.707   7.694  1.00  0.00     0.296 HD
ENDBRANCH  16  18
ENDBRANCH   9  16
BRANCH  12  20
ATOM     20  O   UNL     1      27.582  33.856   8.916  1.00  0.00    -0.391 OA
ATOM     21  H   UNL     1      27.236  33.635   9.817  1.00  0.00     0.211 HD
ENDBRANCH  12  20
BRANCH  13  22
ATOM     22  N   UNL     1      26.577  36.328  10.600  1.00  0.00    -0.348 N 
ATOM     23  C   UNL     1      26.630  35.432  11.701  1.00  0.00     0.217 C 
ATOM     24  H   UNL     1      26.725  37.370  10.751  1.00  0.00     0.163 HD
ATOM     25  C   UNL     1      26.892  35.979  13.057  1.00  0.00     0.114 C 
ATOM     26  O   UNL     1      26.457  34.176  11.539  1.00  0.00    -0.275 OA
ENDBRANCH  13  22
ENDBRANCH   7   8
BRANCH   7  27
ATOM     27  O   UNL     1      24.071  37.743   9.980  1.00  0.00    -0.388 OA
ATOM     28  H   UNL     1      24.874  37.784  10.528  1.00  0.00     0.211 HD
ENDBRANCH   7  27
ENDBRANCH   6   7
BRANCH   6  29
ATOM     29  O   UNL     1      23.944  38.803   7.170  1.00  0.00    -0.388 OA
ATOM     30  H   UNL     1      24.423  39.238   7.927  1.00  0.00     0.211 HD
ENDBRANCH   6  29
ENDBRANCH   5   6
ENDBRANCH   1   5
BRANCH   2  31
ATOM     31  O   UNL     1      19.808  36.458  10.760  1.00  0.00    -0.443 OA
BRANCH  31  32
ATOM     32  C   UNL     1      20.453  36.483  12.019  1.00  0.00     0.294 C 
BRANCH  32  33
ATOM     33  C   UNL     1      21.458  35.406  12.109  1.00  0.00     0.121 A 
ATOM     34  C   UNL     1      21.282  34.085  12.480  1.00  0.00     0.144 A 
ATOM     35  N   UNL     1      22.778  35.508  11.838  1.00  0.00    -0.131 NA
ATOM     36  N   UNL     1      22.468  33.444  12.425  1.00  0.00    -0.220 N 
ATOM     37  N   UNL     1      23.360  34.356  12.026  1.00  0.00    -0.062 NA
BRANCH  36  38
ATOM     38  C   UNL     1      22.766  32.095  12.717  1.00  0.00     0.067 A 
ATOM     39  C   UNL     1      21.803  31.107  12.627  1.00  0.00     0.044 A 
ATOM     40  C   UNL     1      24.031  31.711  13.102  1.00  0.00     0.028 A 
ATOM     41  C   UNL     1      22.053  29.777  12.903  1.00  0.00     0.062 A 
ATOM     42  C   UNL     1      24.314  30.378  13.386  1.00  0.00     0.003 A 
ATOM     43  C   UNL     1      23.328  29.429  13.285  1.00  0.00     0.016 A 
BRANCH  41  44
ATOM     44  C   UNL     1      21.017  28.756  12.799  1.00  0.00     0.338 C 
ATOM     45  O   UNL     1      20.743  28.054  13.803  1.00  0.00    -0.246 OA
BRANCH  44  46
ATOM     46  O   UNL     1      20.314  28.523  11.629  1.00  0.00    -0.462 OA
BRANCH  46  47
ATOM     47  C   UNL     1      18.901  28.549  11.570  1.00  0.00     0.230 C 
ATOM     48  C   UNL     1      18.414  27.200  11.131  1.00  0.00     0.049 C 
ENDBRANCH  46  47
ENDBRANCH  44  46
ENDBRANCH  41  44
ENDBRANCH  36  38
ENDBRANCH  32  33
ENDBRANCH  31  32
ENDBRANCH   2  31
TORSDOF 18
BEGIN_RES LYS A 131
REMARK  4 active torsions:
REMARK  status: ('A' for Active; 'I' for Inactive)
REMARK    1  A    between atoms: CA   and  CB  
REMARK    2  A    between atoms: CB   and  CG  
REMARK    3  A    between atoms: CG   and  CD  
REMARK    4  A    between atoms: CD   and  CE  
ROOT
ATOM      1  CA  LYS A 131      29.867  25.555  16.977  1.00 20.52     0.186 C 
ENDROOT
BRANCH   1   2
ATOM      2  CB  LYS A 131      28.345  25.722  17.026  1.00 20.94     0.034 C 
BRANCH   2   3
ATOM      3  CG  LYS A 131      27.601  24.402  16.892  1.00 22.96     0.005 C 
BRANCH   3   4
ATOM      4  CD  LYS A 131      26.524  24.251  17.930  1.00 24.33     0.041 C 
BRANCH   4   5
ATOM      5  CE  LYS A 131      25.195  23.949  17.245  1.00 26.91     0.338 C 
ATOM      6  NZ  LYS A 131      24.212  25.022  17.526  1.00 27.40     0.618 N 
ENDBRANCH   4   5
ENDBRANCH   3   4
ENDBRANCH   2   3
ENDBRANCH   1   2
END_RES LYS A 131
BEGIN_RES LYS A 135
REMARK  4 active torsions:
REMARK  status: ('A' for Active; 'I' for Inactive)
REMARK    5  A    between atoms: CA   and  CB  
REMARK    6  A    between atoms: CB   and  CG  
REMARK    7  A    between atoms: CG   and  CD  
REMARK    8  A    between atoms: CD   and  CE  
ROOT
ATOM      7  CA  LYS A 135      33.193  34.663   9.290  1.00 25.02     0.186 C 
ENDROOT
BRANCH   7   8
ATOM      8  CB  LYS A 135      32.060  35.360  10.034  1.00 26.63     0.034 C 
BRANCH   8   9
ATOM      9  CG  LYS A 135      30.744  34.631   9.947  1.00 29.45     0.005 C 
BRANCH   9  10
ATOM     10  CD  LYS A 135      30.086  34.547  11.316  1.00 32.00     0.041 C 
BRANCH  10  11
ATOM     11  CE  LYS A 135      30.965  35.193  12.370  1.00 34.25     0.338 C 
ATOM     12  NZ  LYS A 135      30.699  34.616  13.717  1.00 35.99     0.618 N 
ENDBRANCH  10  11
ENDBRANCH   9  10
ENDBRANCH   8   9
ENDBRANCH   7   8
END_RES LYS A 135
