REMARK VINA RESULT:    -4.818      3.499      7.333
REMARK INTER + INTRA:         -14.178
REMARK INTER:                  -8.581
REMARK INTRA:                  -5.598
REMARK UNBOUND:                -5.276
REMARK SMILES COc1ccc(Cn2cc(COC(=O)NC[C@@H](O)C(O)[C@@H]3O[C@@](O)(C(=O)O)C[C@H](O)[C@H]3NC(C)=O)nn2)cc1
REMARK SMILES IDX 15 1 13 2 14 3 16 5 17 6 19 7 21 8 23 9 28 10 22 11 29 12
REMARK SMILES IDX 31 13 24 14 25 16 26 17 27 18 30 20 32 22 33 23 34 25 35 26
REMARK SMILES IDX 20 27 18 29 12 31 11 32 10 33 9 34 36 35 8 36 37 37 7 38
REMARK SMILES IDX 6 39 5 40 38 41 4 42 39 43 3 44 2 45 1 46
REMARK H PARENT 15 4 24 15 27 19 30 21 32 24 20 28 18 30
REMARK Flexibility Score: inf
ROOT
ATOM      1  N   UNL     1      30.171  30.735  18.008  1.00  0.00    -0.319 N 
ATOM      2  C   UNL     1      29.201  30.396  18.975  1.00  0.00     0.407 C 
ATOM      3  O   UNL     1      27.980  30.276  18.711  1.00  0.00    -0.225 OA
ATOM      4  H   UNL     1      31.161  30.814  18.340  1.00  0.00     0.167 HD
ENDROOT
BRANCH   1   5
ATOM      5  C   UNL     1      29.887  30.972  16.628  1.00  0.00     0.154 C 
BRANCH   5   6
ATOM      6  C   UNL     1      30.828  31.902  15.942  1.00  0.00     0.165 C 
BRANCH   6   7
ATOM      7  C   UNL     1      31.110  33.150  16.750  1.00  0.00     0.176 C 
BRANCH   7   8
ATOM      8  C   UNL     1      31.747  34.249  15.978  1.00  0.00     0.178 C 
ATOM      9  C   UNL     1      33.228  34.729  14.265  1.00  0.00     0.269 C 
ATOM     10  C   UNL     1      33.849  35.860  15.034  1.00  0.00     0.112 C 
ATOM     11  O   UNL     1      32.626  33.766  15.011  1.00  0.00    -0.332 OA
ATOM     12  C   UNL     1      33.017  36.283  16.226  1.00  0.00     0.145 C 
ATOM     13  C   UNL     1      32.628  35.040  16.952  1.00  0.00     0.142 C 
BRANCH   9  14
ATOM     14  O   UNL     1      34.315  34.095  13.608  1.00  0.00    -0.357 OA
ATOM     15  H   UNL     1      34.639  33.411  14.243  1.00  0.00     0.214 HD
ENDBRANCH   9  14
BRANCH   9  16
ATOM     16  C   UNL     1      32.387  35.316  13.195  1.00  0.00     0.364 C 
ATOM     17  O   UNL     1      32.308  36.565  13.004  1.00  0.00    -0.246 OA
BRANCH  16  18
ATOM     18  O   UNL     1      31.631  34.521  12.335  1.00  0.00    -0.477 OA
ATOM     19  H   UNL     1      32.052  34.079  11.541  1.00  0.00     0.296 HD
ENDBRANCH  16  18
ENDBRANCH   9  16
BRANCH  12  20
ATOM     20  O   UNL     1      33.731  37.177  17.001  1.00  0.00    -0.391 OA
ATOM     21  H   UNL     1      34.674  36.954  16.972  1.00  0.00     0.211 HD
ENDBRANCH  12  20
BRANCH  13  22
ATOM     22  N   UNL     1      32.022  35.254  18.226  1.00  0.00    -0.348 N 
ATOM     23  C   UNL     1      32.710  35.380  19.441  1.00  0.00     0.217 C 
ATOM     24  H   UNL     1      30.969  35.328  18.260  1.00  0.00     0.163 HD
ATOM     25  C   UNL     1      31.962  35.602  20.700  1.00  0.00     0.114 C 
ATOM     26  O   UNL     1      33.942  35.307  19.468  1.00  0.00    -0.275 OA
ENDBRANCH  13  22
ENDBRANCH   7   8
BRANCH   7  27
ATOM     27  O   UNL     1      29.945  33.576  17.351  1.00  0.00    -0.388 OA
ATOM     28  H   UNL     1      30.005  34.431  17.831  1.00  0.00     0.211 HD
ENDBRANCH   7  27
ENDBRANCH   6   7
BRANCH   6  29
ATOM     29  O   UNL     1      30.479  32.188  14.656  1.00  0.00    -0.388 OA
ATOM     30  H   UNL     1      30.755  31.411  14.082  1.00  0.00     0.211 HD
ENDBRANCH   6  29
ENDBRANCH   5   6
ENDBRANCH   1   5
BRANCH   2  31
ATOM     31  O   UNL     1      29.599  30.177  20.307  1.00  0.00    -0.443 OA
BRANCH  31  32
ATOM     32  C   UNL     1      30.026  28.884  20.672  1.00  0.00     0.294 C 
BRANCH  32  33
ATOM     33  C   UNL     1      31.187  28.911  21.579  1.00  0.00     0.120 A 
ATOM     34  C   UNL     1      32.441  29.475  21.330  1.00  0.00     0.138 A 
ATOM     35  N   UNL     1      31.278  28.400  22.819  1.00  0.00    -0.132 NA
ATOM     36  N   UNL     1      33.220  29.288  22.404  1.00  0.00    -0.248 N 
ATOM     37  N   UNL     1      32.494  28.635  23.290  1.00  0.00    -0.067 NA
BRANCH  36  38
ATOM     38  C   UNL     1      34.586  29.704  22.587  1.00  0.00     0.181 C 
BRANCH  38  39
ATOM     39  C   UNL     1      34.708  31.177  22.599  1.00  0.00    -0.026 A 
ATOM     40  C   UNL     1      34.024  31.927  23.529  1.00  0.00     0.009 A 
ATOM     41  C   UNL     1      35.507  31.801  21.676  1.00  0.00     0.009 A 
ATOM     42  C   UNL     1      34.145  33.314  23.533  1.00  0.00     0.047 A 
ATOM     43  C   UNL     1      35.637  33.189  21.670  1.00  0.00     0.047 A 
ATOM     44  C   UNL     1      34.957  33.935  22.597  1.00  0.00     0.118 A 
BRANCH  44  45
ATOM     45  O   UNL     1      35.065  35.327  22.617  1.00  0.00    -0.497 OA
ATOM     46  C   UNL     1      35.572  35.970  23.774  1.00  0.00     0.278 C 
ENDBRANCH  44  45
ENDBRANCH  38  39
ENDBRANCH  36  38
ENDBRANCH  32  33
ENDBRANCH  31  32
ENDBRANCH   2  31
TORSDOF 17
BEGIN_RES LYS A 131
REMARK  4 active torsions:
REMARK  status: ('A' for Active; 'I' for Inactive)
REMARK    1  A    between atoms: CA   and  CB  
REMARK    2  A    between atoms: CB   and  CG  
REMARK    3  A    between atoms: CG   and  CD  
REMARK    4  A    between atoms: CD   and  CE  
ROOT
ATOM      1  CA  LYS A 131      29.867  25.555  16.977  1.00 20.52     0.186 C 
ENDROOT
BRANCH   1   2
ATOM      2  CB  LYS A 131      28.345  25.722  17.026  1.00 20.94     0.034 C 
BRANCH   2   3
ATOM      3  CG  LYS A 131      27.616  24.416  17.300  1.00 22.96     0.005 C 
BRANCH   3   4
ATOM      4  CD  LYS A 131      26.604  24.553  18.404  1.00 24.33     0.041 C 
BRANCH   4   5
ATOM      5  CE  LYS A 131      25.826  23.248  18.547  1.00 26.91     0.338 C 
ATOM      6  NZ  LYS A 131      25.028  22.985  17.326  1.00 27.40     0.618 N 
ENDBRANCH   4   5
ENDBRANCH   3   4
ENDBRANCH   2   3
ENDBRANCH   1   2
END_RES LYS A 131
BEGIN_RES LYS A 135
REMARK  4 active torsions:
REMARK  status: ('A' for Active; 'I' for Inactive)
REMARK    5  A    between atoms: CA   and  CB  
REMARK    6  A    between atoms: CB   and  CG  
REMARK    7  A    between atoms: CG   and  CD  
REMARK    8  A    between atoms: CD   and  CE  
ROOT
ATOM      7  CA  LYS A 135      33.193  34.663   9.290  1.00 25.02     0.186 C 
ENDROOT
BRANCH   7   8
ATOM      8  CB  LYS A 135      32.060  35.360  10.034  1.00 26.63     0.034 C 
BRANCH   8   9
ATOM      9  CG  LYS A 135      30.885  35.705   9.156  1.00 29.45     0.005 C 
BRANCH   9  10
ATOM     10  CD  LYS A 135      30.388  34.473   8.415  1.00 32.00     0.041 C 
BRANCH  10  11
ATOM     11  CE  LYS A 135      28.873  34.469   8.345  1.00 34.25     0.338 C 
ATOM     12  NZ  LYS A 135      28.284  33.746   9.506  1.00 35.99     0.618 N 
ENDBRANCH  10  11
ENDBRANCH   9  10
ENDBRANCH   8   9
ENDBRANCH   7   8
END_RES LYS A 135
