REMARK VINA RESULT:    -6.022      0.000      0.000
REMARK INTER + INTRA:         -16.617
REMARK INTER:                 -11.636
REMARK INTRA:                  -4.981
REMARK UNBOUND:                -5.490
REMARK SMILES CC(=O)N[C@@H]1[C@@H](O)C[C@](O)(C(=O)O)O[C@H]1C(O)[C@H](O)CNC(=O)OCc1cn(C(c2ccccc2)c2ccccc2)nn1
REMARK SMILES IDX 21 1 22 2 23 3 20 5 18 6 16 7 15 8 9 9 8 10 14 11 6 12 5 13
REMARK SMILES IDX 10 14 11 16 12 17 13 18 7 20 4 22 2 23 1 25 3 26 17 27 19 29
REMARK SMILES IDX 24 31 25 32 26 33 27 34 43 35 28 36 42 37 29 38 30 39 31 40
REMARK SMILES IDX 35 41 32 42 34 43 33 44 36 45 37 46 41 47 38 48 40 49 39 50
REMARK H PARENT 21 4 10 15 13 19 7 21 4 24 17 28 19 30
REMARK Flexibility Score: inf
ROOT
ATOM      1  N   UNL     1      31.061  35.187  14.735  1.00  0.00    -0.319 N 
ATOM      2  C   UNL     1      30.506  35.284  13.440  1.00  0.00     0.407 C 
ATOM      3  O   UNL     1      30.904  34.524  12.526  1.00  0.00    -0.225 OA
ATOM      4  H   UNL     1      30.711  35.834  15.471  1.00  0.00     0.167 HD
ENDROOT
BRANCH   1   5
ATOM      5  C   UNL     1      32.075  34.230  15.046  1.00  0.00     0.154 C 
BRANCH   5   6
ATOM      6  C   UNL     1      31.704  33.525  16.351  1.00  0.00     0.165 C 
BRANCH   6   7
ATOM      7  C   UNL     1      30.534  32.618  16.005  1.00  0.00     0.176 C 
BRANCH   7   8
ATOM      8  C   UNL     1      30.443  31.364  16.827  1.00  0.00     0.178 C 
ATOM      9  C   UNL     1      28.151  30.874  16.601  1.00  0.00     0.269 C 
ATOM     10  C   UNL     1      27.897  31.255  18.043  1.00  0.00     0.112 C 
ATOM     11  O   UNL     1      29.436  30.596  16.277  1.00  0.00    -0.332 OA
ATOM     12  C   UNL     1      28.925  32.201  18.587  1.00  0.00     0.145 C 
ATOM     13  C   UNL     1      30.274  31.628  18.270  1.00  0.00     0.142 C 
BRANCH   9  14
ATOM     14  O   UNL     1      27.732  31.971  15.845  1.00  0.00    -0.357 OA
ATOM     15  H   UNL     1      28.456  32.655  15.911  1.00  0.00     0.214 HD
ENDBRANCH   9  14
BRANCH   9  16
ATOM     16  C   UNL     1      27.227  29.736  16.246  1.00  0.00     0.364 C 
ATOM     17  O   UNL     1      26.133  29.934  15.711  1.00  0.00    -0.246 OA
BRANCH  16  18
ATOM     18  O   UNL     1      27.636  28.454  16.534  1.00  0.00    -0.477 OA
ATOM     19  H   UNL     1      28.444  28.316  17.151  1.00  0.00     0.296 HD
ENDBRANCH  16  18
ENDBRANCH   9  16
BRANCH  12  20
ATOM     20  O   UNL     1      28.695  33.442  18.065  1.00  0.00    -0.391 OA
ATOM     21  H   UNL     1      29.014  34.161  18.676  1.00  0.00     0.211 HD
ENDBRANCH  12  20
BRANCH  13  22
ATOM     22  N   UNL     1      30.404  30.384  19.056  1.00  0.00    -0.348 N 
ATOM     23  C   UNL     1      31.054  30.348  20.301  1.00  0.00     0.217 C 
ATOM     24  H   UNL     1      29.995  29.512  18.657  1.00  0.00     0.163 HD
ATOM     25  C   UNL     1      31.163  29.074  21.059  1.00  0.00     0.114 C 
ATOM     26  O   UNL     1      31.555  31.397  20.792  1.00  0.00    -0.275 OA
ENDBRANCH  13  22
ENDBRANCH   7   8
BRANCH   7  27
ATOM     27  O   UNL     1      30.790  32.220  14.641  1.00  0.00    -0.388 OA
ATOM     28  H   UNL     1      31.615  32.612  14.317  1.00  0.00     0.211 HD
ENDBRANCH   7  27
ENDBRANCH   6   7
BRANCH   6  29
ATOM     29  O   UNL     1      31.345  34.540  17.226  1.00  0.00    -0.388 OA
ATOM     30  H   UNL     1      30.747  35.201  16.827  1.00  0.00     0.211 HD
ENDBRANCH   6  29
ENDBRANCH   5   6
ENDBRANCH   1   5
BRANCH   2  31
ATOM     31  O   UNL     1      29.516  36.210  13.134  1.00  0.00    -0.443 OA
BRANCH  31  32
ATOM     32  C   UNL     1      28.188  35.774  13.037  1.00  0.00     0.294 C 
BRANCH  32  33
ATOM     33  C   UNL     1      27.441  36.695  12.143  1.00  0.00     0.120 A 
ATOM     34  C   UNL     1      27.161  36.458  10.794  1.00  0.00     0.139 A 
ATOM     35  N   UNL     1      26.893  37.898  12.388  1.00  0.00    -0.132 NA
ATOM     36  N   UNL     1      26.480  37.496  10.304  1.00  0.00    -0.240 N 
ATOM     37  N   UNL     1      26.327  38.355  11.277  1.00  0.00    -0.066 NA
BRANCH  36  38
ATOM     38  C   UNL     1      25.982  37.681   8.948  1.00  0.00     0.169 C 
BRANCH  38  39
ATOM     39  C   UNL     1      26.999  37.346   7.951  1.00  0.00    -0.019 A 
ATOM     40  C   UNL     1      26.906  36.202   7.149  1.00  0.00     0.006 A 
ATOM     41  C   UNL     1      28.082  38.181   7.764  1.00  0.00     0.006 A 
ATOM     42  C   UNL     1      27.870  35.922   6.205  1.00  0.00     0.000 A 
ATOM     43  C   UNL     1      29.034  37.877   6.811  1.00  0.00     0.000 A 
ATOM     44  C   UNL     1      28.956  36.753   6.015  1.00  0.00     0.000 A 
ENDBRANCH  38  39
BRANCH  38  45
ATOM     45  C   UNL     1      24.648  37.113   8.733  1.00  0.00    -0.019 A 
ATOM     46  C   UNL     1      24.237  35.971   9.443  1.00  0.00     0.006 A 
ATOM     47  C   UNL     1      23.777  37.690   7.841  1.00  0.00     0.006 A 
ATOM     48  C   UNL     1      22.987  35.442   9.250  1.00  0.00     0.000 A 
ATOM     49  C   UNL     1      22.504  37.140   7.653  1.00  0.00     0.000 A 
ATOM     50  C   UNL     1      22.117  36.023   8.355  1.00  0.00     0.000 A 
ENDBRANCH  38  45
ENDBRANCH  36  38
ENDBRANCH  32  33
ENDBRANCH  31  32
ENDBRANCH   2  31
TORSDOF 17
BEGIN_RES LYS A 131
REMARK  4 active torsions:
REMARK  status: ('A' for Active; 'I' for Inactive)
REMARK    1  A    between atoms: CA   and  CB  
REMARK    2  A    between atoms: CB   and  CG  
REMARK    3  A    between atoms: CG   and  CD  
REMARK    4  A    between atoms: CD   and  CE  
ROOT
ATOM      1  CA  LYS A 131      29.867  25.555  16.977  1.00 20.52     0.186 C 
ENDROOT
BRANCH   1   2
ATOM      2  CB  LYS A 131      28.345  25.722  17.026  1.00 20.94     0.034 C 
BRANCH   2   3
ATOM      3  CG  LYS A 131      27.601  24.402  16.890  1.00 22.96     0.005 C 
BRANCH   3   4
ATOM      4  CD  LYS A 131      26.541  24.238  17.943  1.00 24.33     0.041 C 
BRANCH   4   5
ATOM      5  CE  LYS A 131      25.162  24.347  17.299  1.00 26.91     0.338 C 
ATOM      6  NZ  LYS A 131      24.505  23.020  17.253  1.00 27.40     0.618 N 
ENDBRANCH   4   5
ENDBRANCH   3   4
ENDBRANCH   2   3
ENDBRANCH   1   2
END_RES LYS A 131
BEGIN_RES LYS A 135
REMARK  4 active torsions:
REMARK  status: ('A' for Active; 'I' for Inactive)
REMARK    5  A    between atoms: CA   and  CB  
REMARK    6  A    between atoms: CB   and  CG  
REMARK    7  A    between atoms: CG   and  CD  
REMARK    8  A    between atoms: CD   and  CE  
ROOT
ATOM      7  CA  LYS A 135      33.193  34.663   9.290  1.00 25.02     0.186 C 
ENDROOT
BRANCH   7   8
ATOM      8  CB  LYS A 135      32.060  35.360  10.034  1.00 26.63     0.034 C 
BRANCH   8   9
ATOM      9  CG  LYS A 135      30.858  35.645   9.171  1.00 29.45     0.005 C 
BRANCH   9  10
ATOM     10  CD  LYS A 135      30.264  34.352   8.634  1.00 32.00     0.041 C 
BRANCH  10  11
ATOM     11  CE  LYS A 135      29.331  33.730   9.654  1.00 34.25     0.338 C 
ATOM     12  NZ  LYS A 135      27.927  33.712   9.156  1.00 35.99     0.618 N 
ENDBRANCH  10  11
ENDBRANCH   9  10
ENDBRANCH   8   9
ENDBRANCH   7   8
END_RES LYS A 135
