REMARK VINA RESULT:    -5.216      4.583     12.174
REMARK INTER + INTRA:         -15.334
REMARK INTER:                  -8.424
REMARK INTRA:                  -6.910
REMARK UNBOUND:                -6.003
REMARK SMILES CC(=O)N[C@@H]1[C@@H](O)C[C@](O)(C(=O)O)O[C@H]1C(O)[C@H](O)CNC(=O)OCc1cn(Cc2ccc3c(c2)OCO3)nn1
REMARK SMILES IDX 21 1 22 2 23 3 20 5 18 6 16 7 15 8 9 9 8 10 14 11 6 12 5 13
REMARK SMILES IDX 10 14 11 16 12 17 13 18 7 20 4 22 2 23 1 25 3 26 17 27 19 29
REMARK SMILES IDX 24 31 25 32 26 33 27 34 40 35 28 36 39 37 29 38 30 39 31 40
REMARK SMILES IDX 35 41 32 42 34 43 33 44 36 45 38 46 37 47
REMARK H PARENT 21 4 10 15 13 19 7 21 4 24 17 28 19 30
REMARK Flexibility Score: inf
ROOT
ATOM      1  N   UNL     1      27.629  27.002  20.316  1.00  0.00    -0.319 N 
ATOM      2  C   UNL     1      26.893  27.673  19.299  1.00  0.00     0.407 C 
ATOM      3  O   UNL     1      25.731  28.126  19.561  1.00  0.00    -0.225 OA
ATOM      4  H   UNL     1      28.566  26.647  20.075  1.00  0.00     0.167 HD
ENDROOT
BRANCH   1   5
ATOM      5  C   UNL     1      27.005  26.872  21.608  1.00  0.00     0.154 C 
BRANCH   5   6
ATOM      6  C   UNL     1      27.330  27.992  22.546  1.00  0.00     0.165 C 
BRANCH   6   7
ATOM      7  C   UNL     1      28.725  27.886  23.121  1.00  0.00     0.176 C 
BRANCH   7   8
ATOM      8  C   UNL     1      29.544  29.126  22.775  1.00  0.00     0.178 C 
ATOM      9  C   UNL     1      30.148  29.562  20.577  1.00  0.00     0.269 C 
ATOM     10  C   UNL     1      31.495  30.134  20.953  1.00  0.00     0.112 C 
ATOM     11  O   UNL     1      29.207  29.650  21.562  1.00  0.00    -0.332 OA
ATOM     12  C   UNL     1      31.727  30.109  22.450  1.00  0.00     0.145 C 
ATOM     13  C   UNL     1      31.016  28.885  22.980  1.00  0.00     0.142 C 
BRANCH   9  14
ATOM     14  O   UNL     1      30.285  28.236  20.122  1.00  0.00    -0.357 OA
ATOM     15  H   UNL     1      31.125  28.088  19.650  1.00  0.00     0.214 HD
ENDBRANCH   9  14
BRANCH   9  16
ATOM     16  C   UNL     1      29.661  30.346  19.408  1.00  0.00     0.364 C 
ATOM     17  O   UNL     1      28.601  31.036  19.498  1.00  0.00    -0.246 OA
BRANCH  16  18
ATOM     18  O   UNL     1      30.308  30.375  18.185  1.00  0.00    -0.477 OA
ATOM     19  H   UNL     1      29.812  29.990  17.375  1.00  0.00     0.296 HD
ENDBRANCH  16  18
ENDBRANCH   9  16
BRANCH  12  20
ATOM     20  O   UNL     1      33.083  30.116  22.758  1.00  0.00    -0.391 OA
ATOM     21  H   UNL     1      33.488  30.888  22.294  1.00  0.00     0.211 HD
ENDBRANCH  12  20
BRANCH  13  22
ATOM     22  N   UNL     1      31.290  28.605  24.344  1.00  0.00    -0.348 N 
ATOM     23  C   UNL     1      31.936  27.413  24.764  1.00  0.00     0.217 C 
ATOM     24  H   UNL     1      30.989  29.332  25.059  1.00  0.00     0.163 HD
ATOM     25  C   UNL     1      32.211  27.150  26.213  1.00  0.00     0.114 C 
ATOM     26  O   UNL     1      32.261  26.601  23.860  1.00  0.00    -0.275 OA
ENDBRANCH  13  22
ENDBRANCH   7   8
BRANCH   7  27
ATOM     27  O   UNL     1      29.352  26.801  22.511  1.00  0.00    -0.388 OA
ATOM     28  H   UNL     1      28.735  26.029  22.486  1.00  0.00     0.211 HD
ENDBRANCH   7  27
ENDBRANCH   6   7
BRANCH   6  29
ATOM     29  O   UNL     1      26.391  27.968  23.576  1.00  0.00    -0.388 OA
ATOM     30  H   UNL     1      26.788  27.691  24.437  1.00  0.00     0.211 HD
ENDBRANCH   6  29
ENDBRANCH   5   6
ENDBRANCH   1   5
BRANCH   2  31
ATOM     31  O   UNL     1      27.388  27.861  18.013  1.00  0.00    -0.443 OA
BRANCH  31  32
ATOM     32  C   UNL     1      26.592  28.584  17.080  1.00  0.00     0.294 C 
BRANCH  32  33
ATOM     33  C   UNL     1      27.369  29.697  16.490  1.00  0.00     0.120 A 
ATOM     34  C   UNL     1      26.997  31.010  16.521  1.00  0.00     0.138 A 
ATOM     35  N   UNL     1      28.530  29.650  15.837  1.00  0.00    -0.132 NA
ATOM     36  N   UNL     1      27.940  31.720  15.887  1.00  0.00    -0.248 N 
ATOM     37  N   UNL     1      28.864  30.883  15.478  1.00  0.00    -0.067 NA
BRANCH  36  38
ATOM     38  C   UNL     1      27.922  33.155  15.700  1.00  0.00     0.181 C 
BRANCH  38  39
ATOM     39  C   UNL     1      29.340  33.612  15.703  1.00  0.00    -0.023 A 
ATOM     40  C   UNL     1      30.033  33.612  16.892  1.00  0.00     0.010 A 
ATOM     41  C   UNL     1      29.974  34.032  14.560  1.00  0.00     0.056 A 
ATOM     42  C   UNL     1      31.357  34.035  16.917  1.00  0.00     0.051 A 
ATOM     43  C   UNL     1      31.289  34.451  14.590  1.00  0.00     0.166 A 
ATOM     44  C   UNL     1      31.989  34.456  15.765  1.00  0.00     0.165 A 
ATOM     45  O   UNL     1      32.112  34.908  13.578  1.00  0.00    -0.454 OA
ATOM     46  O   UNL     1      33.270  34.913  15.532  1.00  0.00    -0.454 OA
ATOM     47  C   UNL     1      33.412  34.986  14.120  1.00  0.00     0.468 C 
ENDBRANCH  38  39
ENDBRANCH  36  38
ENDBRANCH  32  33
ENDBRANCH  31  32
ENDBRANCH   2  31
TORSDOF 16
BEGIN_RES LYS A 131
REMARK  4 active torsions:
REMARK  status: ('A' for Active; 'I' for Inactive)
REMARK    1  A    between atoms: CA   and  CB  
REMARK    2  A    between atoms: CB   and  CG  
REMARK    3  A    between atoms: CG   and  CD  
REMARK    4  A    between atoms: CD   and  CE  
ROOT
ATOM      1  CA  LYS A 131      29.867  25.555  16.977  1.00 20.52     0.186 C 
ENDROOT
BRANCH   1   2
ATOM      2  CB  LYS A 131      28.345  25.722  17.026  1.00 20.94     0.034 C 
BRANCH   2   3
ATOM      3  CG  LYS A 131      27.602  24.398  16.938  1.00 22.96     0.005 C 
BRANCH   3   4
ATOM      4  CD  LYS A 131      26.160  24.529  17.341  1.00 24.33     0.041 C 
BRANCH   4   5
ATOM      5  CE  LYS A 131      25.945  23.851  18.690  1.00 26.91     0.338 C 
ATOM      6  NZ  LYS A 131      24.939  24.590  19.489  1.00 27.40     0.618 N 
ENDBRANCH   4   5
ENDBRANCH   3   4
ENDBRANCH   2   3
ENDBRANCH   1   2
END_RES LYS A 131
BEGIN_RES LYS A 135
REMARK  4 active torsions:
REMARK  status: ('A' for Active; 'I' for Inactive)
REMARK    5  A    between atoms: CA   and  CB  
REMARK    6  A    between atoms: CB   and  CG  
REMARK    7  A    between atoms: CG   and  CD  
REMARK    8  A    between atoms: CD   and  CE  
ROOT
ATOM      7  CA  LYS A 135      33.193  34.663   9.290  1.00 25.02     0.186 C 
ENDROOT
BRANCH   7   8
ATOM      8  CB  LYS A 135      32.060  35.360  10.034  1.00 26.63     0.034 C 
BRANCH   8   9
ATOM      9  CG  LYS A 135      30.790  35.470   9.231  1.00 29.45     0.005 C 
BRANCH   9  10
ATOM     10  CD  LYS A 135      30.215  34.091   8.943  1.00 32.00     0.041 C 
BRANCH  10  11
ATOM     11  CE  LYS A 135      28.708  34.096   9.114  1.00 34.25     0.338 C 
ATOM     12  NZ  LYS A 135      28.045  34.833   8.002  1.00 35.99     0.618 N 
ENDBRANCH  10  11
ENDBRANCH   9  10
ENDBRANCH   8   9
ENDBRANCH   7   8
END_RES LYS A 135
