REMARK VINA RESULT:    -4.447      5.922     11.789
REMARK INTER + INTRA:         -13.990
REMARK INTER:                 -10.187
REMARK INTRA:                  -3.803
REMARK UNBOUND:                -5.644
REMARK SMILES CC(=O)N[C@@H]1[C@@H](O)C[C@](O)(C(=O)O)O[C@H]1C(O)[C@H](O)CNC(=O)OCc1cn(CCC(=O)O)nn1
REMARK SMILES IDX 21 1 22 2 23 3 20 5 18 6 16 7 15 8 9 9 8 10 14 11 6 12 5 13
REMARK SMILES IDX 10 14 11 16 12 17 13 18 7 20 4 22 2 23 1 25 3 26 17 27 19 29
REMARK SMILES IDX 24 31 25 32 26 33 27 34 35 35 28 36 34 37 29 38 30 39 31 40
REMARK SMILES IDX 32 41 33 42
REMARK H PARENT 21 4 10 15 13 19 7 21 4 24 17 28 19 30 33 43
REMARK Flexibility Score: inf
ROOT
ATOM      1  N   UNL     1      26.032  36.243  11.245  1.00  0.00    -0.319 N 
ATOM      2  C   UNL     1      27.102  37.086  11.640  1.00  0.00     0.407 C 
ATOM      3  O   UNL     1      27.052  38.340  11.461  1.00  0.00    -0.225 OA
ATOM      4  H   UNL     1      26.111  35.221  11.409  1.00  0.00     0.167 HD
ENDROOT
BRANCH   1   5
ATOM      5  C   UNL     1      24.842  36.768  10.621  1.00  0.00     0.154 C 
BRANCH   5   6
ATOM      6  C   UNL     1      24.612  36.256   9.225  1.00  0.00     0.165 C 
BRANCH   6   7
ATOM      7  C   UNL     1      25.308  37.145   8.195  1.00  0.00     0.176 C 
BRANCH   7   8
ATOM      8  C   UNL     1      26.490  36.406   7.592  1.00  0.00     0.178 C 
ATOM      9  C   UNL     1      28.464  35.478   8.425  1.00  0.00     0.269 C 
ATOM     10  C   UNL     1      29.055  35.502   7.043  1.00  0.00     0.112 C 
ATOM     11  O   UNL     1      27.089  35.542   8.449  1.00  0.00    -0.332 OA
ATOM     12  C   UNL     1      28.375  36.410   6.082  1.00  0.00     0.145 C 
ATOM     13  C   UNL     1      27.454  37.332   6.896  1.00  0.00     0.142 C 
BRANCH   9  14
ATOM     14  O   UNL     1      29.063  36.483   9.176  1.00  0.00    -0.357 OA
ATOM     15  H   UNL     1      29.391  36.040  10.007  1.00  0.00     0.214 HD
ENDBRANCH   9  14
BRANCH   9  16
ATOM     16  C   UNL     1      28.845  34.179   9.025  1.00  0.00     0.364 C 
ATOM     17  O   UNL     1      28.024  33.380   9.526  1.00  0.00    -0.246 OA
BRANCH  16  18
ATOM     18  O   UNL     1      30.178  33.810   9.044  1.00  0.00    -0.477 OA
ATOM     19  H   UNL     1      30.895  34.277   8.502  1.00  0.00     0.296 HD
ENDBRANCH  16  18
ENDBRANCH   9  16
BRANCH  12  20
ATOM     20  O   UNL     1      29.261  37.161   5.315  1.00  0.00    -0.391 OA
ATOM     21  H   UNL     1      29.265  36.878   4.359  1.00  0.00     0.211 HD
ENDBRANCH  12  20
BRANCH  13  22
ATOM     22  N   UNL     1      26.769  38.261   6.018  1.00  0.00    -0.348 N 
ATOM     23  C   UNL     1      27.003  39.660   6.127  1.00  0.00     0.217 C 
ATOM     24  H   UNL     1      26.089  37.944   5.288  1.00  0.00     0.163 HD
ATOM     25  C   UNL     1      26.317  40.660   5.240  1.00  0.00     0.114 C 
ATOM     26  O   UNL     1      27.818  40.105   6.997  1.00  0.00    -0.275 OA
ENDBRANCH  13  22
ENDBRANCH   7   8
BRANCH   7  27
ATOM     27  O   UNL     1      24.391  37.435   7.188  1.00  0.00    -0.388 OA
ATOM     28  H   UNL     1      23.546  37.823   7.544  1.00  0.00     0.211 HD
ENDBRANCH   7  27
ENDBRANCH   6   7
BRANCH   6  29
ATOM     29  O   UNL     1      23.231  36.254   9.011  1.00  0.00    -0.388 OA
ATOM     30  H   UNL     1      22.910  35.318   9.024  1.00  0.00     0.211 HD
ENDBRANCH   6  29
ENDBRANCH   5   6
ENDBRANCH   1   5
BRANCH   2  31
ATOM     31  O   UNL     1      28.214  36.527  12.228  1.00  0.00    -0.443 OA
BRANCH  31  32
ATOM     32  C   UNL     1      28.337  35.144  12.509  1.00  0.00     0.294 C 
BRANCH  32  33
ATOM     33  C   UNL     1      29.330  34.928  13.615  1.00  0.00     0.120 A 
ATOM     34  C   UNL     1      29.924  33.747  13.973  1.00  0.00     0.138 A 
ATOM     35  N   UNL     1      29.787  35.886  14.446  1.00  0.00    -0.132 NA
ATOM     36  N   UNL     1      30.739  34.013  15.022  1.00  0.00    -0.252 N 
ATOM     37  N   UNL     1      30.634  35.308  15.282  1.00  0.00    -0.067 NA
BRANCH  36  38
ATOM     38  C   UNL     1      31.553  33.019  15.690  1.00  0.00     0.158 C 
BRANCH  38  39
ATOM     39  C   UNL     1      31.055  32.902  17.128  1.00  0.00     0.146 C 
BRANCH  39  40
ATOM     40  C   UNL     1      30.367  31.580  17.235  1.00  0.00     0.305 C 
ATOM     41  O   UNL     1      29.778  31.203  18.256  1.00  0.00    -0.252 OA
BRANCH  40  42
ATOM     42  O   UNL     1      30.416  30.761  16.106  1.00  0.00    -0.481 OA
ATOM     43  H   UNL     1      31.318  30.479  15.727  1.00  0.00     0.296 HD
ENDBRANCH  40  42
ENDBRANCH  39  40
ENDBRANCH  38  39
ENDBRANCH  36  38
ENDBRANCH  32  33
ENDBRANCH  31  32
ENDBRANCH   2  31
TORSDOF 18
BEGIN_RES LYS A 131
REMARK  4 active torsions:
REMARK  status: ('A' for Active; 'I' for Inactive)
REMARK    1  A    between atoms: CA   and  CB  
REMARK    2  A    between atoms: CB   and  CG  
REMARK    3  A    between atoms: CG   and  CD  
REMARK    4  A    between atoms: CD   and  CE  
ROOT
ATOM      1  CA  LYS A 131      29.867  25.555  16.977  1.00 20.52     0.186 C 
ENDROOT
BRANCH   1   2
ATOM      2  CB  LYS A 131      28.345  25.722  17.026  1.00 20.94     0.034 C 
BRANCH   2   3
ATOM      3  CG  LYS A 131      27.601  24.402  16.892  1.00 22.96     0.005 C 
BRANCH   3   4
ATOM      4  CD  LYS A 131      26.505  24.264  17.912  1.00 24.33     0.041 C 
BRANCH   4   5
ATOM      5  CE  LYS A 131      25.150  24.385  17.222  1.00 26.91     0.338 C 
ATOM      6  NZ  LYS A 131      24.479  25.647  17.613  1.00 27.40     0.618 N 
ENDBRANCH   4   5
ENDBRANCH   3   4
ENDBRANCH   2   3
ENDBRANCH   1   2
END_RES LYS A 131
BEGIN_RES LYS A 135
REMARK  4 active torsions:
REMARK  status: ('A' for Active; 'I' for Inactive)
REMARK    5  A    between atoms: CA   and  CB  
REMARK    6  A    between atoms: CB   and  CG  
REMARK    7  A    between atoms: CG   and  CD  
REMARK    8  A    between atoms: CD   and  CE  
ROOT
ATOM      7  CA  LYS A 135      33.193  34.663   9.290  1.00 25.02     0.186 C 
ENDROOT
BRANCH   7   8
ATOM      8  CB  LYS A 135      32.060  35.360  10.034  1.00 26.63     0.034 C 
BRANCH   8   9
ATOM      9  CG  LYS A 135      32.470  35.913  11.374  1.00 29.45     0.005 C 
BRANCH   9  10
ATOM     10  CD  LYS A 135      31.734  37.212  11.667  1.00 32.00     0.041 C 
BRANCH  10  11
ATOM     11  CE  LYS A 135      31.908  38.192  10.523  1.00 34.25     0.338 C 
ATOM     12  NZ  LYS A 135      31.535  39.573  10.938  1.00 35.99     0.618 N 
ENDBRANCH  10  11
ENDBRANCH   9  10
ENDBRANCH   8   9
ENDBRANCH   7   8
END_RES LYS A 135
