REMARK VINA RESULT:    -4.015      2.119      5.268
REMARK INTER + INTRA:         -13.663
REMARK INTER:                  -7.682
REMARK INTRA:                  -5.981
REMARK UNBOUND:                -6.362
REMARK SMILES CC(=O)N[C@@H]1[C@@H](O)C[C@](O)(C(=O)O)O[C@H]1C(O)[C@H](O)CNC(=O)OCc1cn(CC(=O)O)nn1
REMARK SMILES IDX 21 1 22 2 23 3 20 5 18 6 16 7 15 8 9 9 8 10 14 11 6 12 5 13
REMARK SMILES IDX 10 14 11 16 12 17 13 18 7 20 4 22 2 23 1 25 3 26 17 27 19 29
REMARK SMILES IDX 24 31 25 32 26 33 27 34 34 35 28 36 33 37 29 38 30 39 31 40
REMARK SMILES IDX 32 41
REMARK H PARENT 21 4 10 15 13 19 7 21 4 24 17 28 19 30 32 42
REMARK Flexibility Score: inf
ROOT
ATOM      1  N   UNL     1      28.701  30.661  15.743  1.00  0.00    -0.319 N 
ATOM      2  C   UNL     1      27.436  30.997  16.262  1.00  0.00     0.407 C 
ATOM      3  O   UNL     1      27.296  31.496  17.378  1.00  0.00    -0.225 OA
ATOM      4  H   UNL     1      28.686  30.244  14.762  1.00  0.00     0.167 HD
ENDROOT
BRANCH   1   5
ATOM      5  C   UNL     1      29.972  30.822  16.398  1.00  0.00     0.154 C 
BRANCH   5   6
ATOM      6  C   UNL     1      30.865  31.882  15.835  1.00  0.00     0.165 C 
BRANCH   6   7
ATOM      7  C   UNL     1      30.965  33.097  16.679  1.00  0.00     0.176 C 
BRANCH   7   8
ATOM      8  C   UNL     1      31.643  34.276  16.035  1.00  0.00     0.178 C 
ATOM      9  C   UNL     1      33.226  34.773  14.367  1.00  0.00     0.269 C 
ATOM     10  C   UNL     1      33.753  35.941  15.134  1.00  0.00     0.112 C 
ATOM     11  O   UNL     1      32.527  33.833  15.041  1.00  0.00    -0.332 OA
ATOM     12  C   UNL     1      32.764  36.399  16.159  1.00  0.00     0.145 C 
ATOM     13  C   UNL     1      32.425  35.144  16.985  1.00  0.00     0.142 C 
BRANCH   9  14
ATOM     14  O   UNL     1      34.352  34.188  13.715  1.00  0.00    -0.357 OA
ATOM     15  H   UNL     1      34.690  33.501  14.352  1.00  0.00     0.214 HD
ENDBRANCH   9  14
BRANCH   9  16
ATOM     16  C   UNL     1      32.395  35.296  13.241  1.00  0.00     0.364 C 
ATOM     17  O   UNL     1      32.369  36.489  12.875  1.00  0.00    -0.246 OA
BRANCH  16  18
ATOM     18  O   UNL     1      31.597  34.410  12.549  1.00  0.00    -0.477 OA
ATOM     19  H   UNL     1      30.641  34.195  12.824  1.00  0.00     0.296 HD
ENDBRANCH  16  18
ENDBRANCH   9  16
BRANCH  12  20
ATOM     20  O   UNL     1      33.272  37.397  16.986  1.00  0.00    -0.391 OA
ATOM     21  H   UNL     1      33.097  38.263  16.534  1.00  0.00     0.211 HD
ENDBRANCH  12  20
BRANCH  13  22
ATOM     22  N   UNL     1      31.768  35.548  18.185  1.00  0.00    -0.348 N 
ATOM     23  C   UNL     1      32.445  35.631  19.439  1.00  0.00     0.217 C 
ATOM     24  H   UNL     1      30.764  35.806  18.166  1.00  0.00     0.163 HD
ATOM     25  C   UNL     1      31.798  36.045  20.704  1.00  0.00     0.114 C 
ATOM     26  O   UNL     1      33.663  35.337  19.465  1.00  0.00    -0.275 OA
ENDBRANCH  13  22
ENDBRANCH   7   8
BRANCH   7  27
ATOM     27  O   UNL     1      29.754  33.411  17.273  1.00  0.00    -0.388 OA
ATOM     28  H   UNL     1      29.873  33.892  18.132  1.00  0.00     0.211 HD
ENDBRANCH   7  27
ENDBRANCH   6   7
BRANCH   6  29
ATOM     29  O   UNL     1      30.420  32.190  14.539  1.00  0.00    -0.388 OA
ATOM     30  H   UNL     1      29.590  32.717  14.552  1.00  0.00     0.211 HD
ENDBRANCH   6  29
ENDBRANCH   5   6
ENDBRANCH   1   5
BRANCH   2  31
ATOM     31  O   UNL     1      26.278  30.778  15.520  1.00  0.00    -0.443 OA
BRANCH  31  32
ATOM     32  C   UNL     1      25.225  31.680  15.392  1.00  0.00     0.294 C 
BRANCH  32  33
ATOM     33  C   UNL     1      25.450  32.754  14.394  1.00  0.00     0.120 A 
ATOM     34  C   UNL     1      26.285  33.826  14.437  1.00  0.00     0.139 A 
ATOM     35  N   UNL     1      24.814  32.847  13.189  1.00  0.00    -0.132 NA
ATOM     36  N   UNL     1      26.146  34.527  13.298  1.00  0.00    -0.241 N 
ATOM     37  N   UNL     1      25.257  33.925  12.554  1.00  0.00    -0.066 NA
BRANCH  36  38
ATOM     38  C   UNL     1      26.867  35.739  12.967  1.00  0.00     0.268 C 
BRANCH  38  39
ATOM     39  C   UNL     1      28.317  35.462  12.926  1.00  0.00     0.325 C 
ATOM     40  O   UNL     1      29.082  36.062  13.732  1.00  0.00    -0.250 OA
BRANCH  39  41
ATOM     41  O   UNL     1      28.834  34.558  12.022  1.00  0.00    -0.480 OA
ATOM     42  H   UNL     1      28.173  34.140  11.360  1.00  0.00     0.296 HD
ENDBRANCH  39  41
ENDBRANCH  38  39
ENDBRANCH  36  38
ENDBRANCH  32  33
ENDBRANCH  31  32
ENDBRANCH   2  31
TORSDOF 17
BEGIN_RES LYS A 131
REMARK  4 active torsions:
REMARK  status: ('A' for Active; 'I' for Inactive)
REMARK    1  A    between atoms: CA   and  CB  
REMARK    2  A    between atoms: CB   and  CG  
REMARK    3  A    between atoms: CG   and  CD  
REMARK    4  A    between atoms: CD   and  CE  
ROOT
ATOM      1  CA  LYS A 131      29.867  25.555  16.977  1.00 20.52     0.186 C 
ENDROOT
BRANCH   1   2
ATOM      2  CB  LYS A 131      28.345  25.722  17.026  1.00 20.94     0.034 C 
BRANCH   2   3
ATOM      3  CG  LYS A 131      27.601  24.402  16.894  1.00 22.96     0.005 C 
BRANCH   3   4
ATOM      4  CD  LYS A 131      26.181  24.501  17.378  1.00 24.33     0.041 C 
BRANCH   4   5
ATOM      5  CE  LYS A 131      26.034  25.725  18.276  1.00 26.91     0.338 C 
ATOM      6  NZ  LYS A 131      25.568  25.326  19.625  1.00 27.40     0.618 N 
ENDBRANCH   4   5
ENDBRANCH   3   4
ENDBRANCH   2   3
ENDBRANCH   1   2
END_RES LYS A 131
BEGIN_RES LYS A 135
REMARK  4 active torsions:
REMARK  status: ('A' for Active; 'I' for Inactive)
REMARK    5  A    between atoms: CA   and  CB  
REMARK    6  A    between atoms: CB   and  CG  
REMARK    7  A    between atoms: CG   and  CD  
REMARK    8  A    between atoms: CD   and  CE  
ROOT
ATOM      7  CA  LYS A 135      33.193  34.663   9.290  1.00 25.02     0.186 C 
ENDROOT
BRANCH   7   8
ATOM      8  CB  LYS A 135      32.060  35.360  10.034  1.00 26.63     0.034 C 
BRANCH   8   9
ATOM      9  CG  LYS A 135      30.827  35.571   9.193  1.00 29.45     0.005 C 
BRANCH   9  10
ATOM     10  CD  LYS A 135      30.130  34.247   8.922  1.00 32.00     0.041 C 
BRANCH  10  11
ATOM     11  CE  LYS A 135      28.772  34.481   8.287  1.00 34.25     0.338 C 
ATOM     12  NZ  LYS A 135      28.873  35.419   7.135  1.00 35.99     0.618 N 
ENDBRANCH  10  11
ENDBRANCH   9  10
ENDBRANCH   8   9
ENDBRANCH   7   8
END_RES LYS A 135
