REMARK VINA RESULT:    -5.468      5.380      8.950
REMARK INTER + INTRA:         -17.980
REMARK INTER:                 -10.328
REMARK INTRA:                  -7.652
REMARK UNBOUND:                -7.717
REMARK SMILES CC(=O)N[C@@H]1[C@@H](O)C[C@](O)(C(=O)O)O[C@H]1C(O)[C@H](O)CNC(=O)OCc1cn(-c2ccc(-c3c4ccc(=O)cc-4oc4cc(O)ccc34)c(C(=O)[O-])c2)nn1
REMARK SMILES IDX 21 1 22 2 23 3 20 5 18 6 16 7 15 8 9 9 8 10 14 11 6 12 5 13
REMARK SMILES IDX 10 14 11 16 12 17 13 18 7 20 4 22 2 23 1 25 3 26 17 27 19 29
REMARK SMILES IDX 24 31 25 32 26 33 27 34 55 35 28 36 54 37 29 38 53 39 30 40
REMARK SMILES IDX 49 41 31 42 32 43 50 44 51 45 52 46 33 47 48 48 34 49 47 50
REMARK SMILES IDX 42 51 40 52 35 53 46 54 43 55 41 56 39 57 36 58 44 59 37 60
REMARK SMILES IDX 38 61 45 62
REMARK H PARENT 21 4 10 15 13 19 7 21 4 24 17 28 19 30 45 63
REMARK Flexibility Score: inf
ROOT
ATOM      1  N   UNL     1      33.472  41.063   7.637  1.00  0.00    -0.319 N 
ATOM      2  C   UNL     1      32.954  42.004   8.592  1.00  0.00     0.407 C 
ATOM      3  O   UNL     1      32.198  42.910   8.144  1.00  0.00    -0.225 OA
ATOM      4  H   UNL     1      34.098  40.299   7.949  1.00  0.00     0.167 HD
ENDROOT
BRANCH   1   5
ATOM      5  C   UNL     1      33.136  41.160   6.237  1.00  0.00     0.154 C 
BRANCH   5   6
ATOM      6  C   UNL     1      32.047  40.187   5.925  1.00  0.00     0.165 C 
BRANCH   6   7
ATOM      7  C   UNL     1      30.673  40.856   5.897  1.00  0.00     0.176 C 
BRANCH   7   8
ATOM      8  C   UNL     1      29.763  40.240   6.948  1.00  0.00     0.178 C 
ATOM      9  C   UNL     1      28.081  38.787   6.251  1.00  0.00     0.269 C 
ATOM     10  C   UNL     1      27.255  39.052   7.491  1.00  0.00     0.112 C 
ATOM     11  O   UNL     1      29.411  38.992   6.518  1.00  0.00    -0.332 OA
ATOM     12  C   UNL     1      27.504  40.420   8.013  1.00  0.00     0.145 C 
ATOM     13  C   UNL     1      28.637  41.138   7.323  1.00  0.00     0.142 C 
BRANCH   9  14
ATOM     14  O   UNL     1      27.575  39.563   5.239  1.00  0.00    -0.357 OA
ATOM     15  H   UNL     1      28.247  40.023   4.704  1.00  0.00     0.214 HD
ENDBRANCH   9  14
BRANCH   9  16
ATOM     16  C   UNL     1      27.902  37.354   5.915  1.00  0.00     0.364 C 
ATOM     17  O   UNL     1      28.896  36.587   5.889  1.00  0.00    -0.246 OA
BRANCH  16  18
ATOM     18  O   UNL     1      26.669  36.796   5.618  1.00  0.00    -0.477 OA
ATOM     19  H   UNL     1      26.587  35.941   5.048  1.00  0.00     0.296 HD
ENDBRANCH  16  18
ENDBRANCH   9  16
BRANCH  12  20
ATOM     20  O   UNL     1      26.371  41.225   7.928  1.00  0.00    -0.391 OA
ATOM     21  H   UNL     1      26.538  42.098   7.509  1.00  0.00     0.211 HD
ENDBRANCH  12  20
BRANCH  13  22
ATOM     22  N   UNL     1      29.100  42.161   8.272  1.00  0.00    -0.348 N 
ATOM     23  C   UNL     1      28.701  43.509   8.218  1.00  0.00     0.217 C 
ATOM     24  H   UNL     1      29.759  41.845   9.019  1.00  0.00     0.163 HD
ATOM     25  C   UNL     1      29.212  44.480   9.212  1.00  0.00     0.114 C 
ATOM     26  O   UNL     1      27.894  43.831   7.286  1.00  0.00    -0.275 OA
ENDBRANCH  13  22
ENDBRANCH   7   8
BRANCH   7  27
ATOM     27  O   UNL     1      30.169  40.638   4.610  1.00  0.00    -0.388 OA
ATOM     28  H   UNL     1      29.189  40.799   4.662  1.00  0.00     0.211 HD
ENDBRANCH   7  27
ENDBRANCH   6   7
BRANCH   6  29
ATOM     29  O   UNL     1      32.051  39.102   6.799  1.00  0.00    -0.388 OA
ATOM     30  H   UNL     1      31.595  38.313   6.423  1.00  0.00     0.211 HD
ENDBRANCH   6  29
ENDBRANCH   5   6
ENDBRANCH   1   5
BRANCH   2  31
ATOM     31  O   UNL     1      33.242  41.954   9.923  1.00  0.00    -0.443 OA
BRANCH  31  32
ATOM     32  C   UNL     1      32.274  41.580  10.875  1.00  0.00     0.294 C 
BRANCH  32  33
ATOM     33  C   UNL     1      31.684  40.288  10.474  1.00  0.00     0.121 A 
ATOM     34  C   UNL     1      30.392  39.832  10.747  1.00  0.00     0.144 A 
ATOM     35  N   UNL     1      32.267  39.299   9.783  1.00  0.00    -0.131 NA
ATOM     36  N   UNL     1      30.245  38.605  10.216  1.00  0.00    -0.220 N 
ATOM     37  N   UNL     1      31.393  38.311   9.642  1.00  0.00    -0.062 NA
BRANCH  36  38
ATOM     38  C   UNL     1      29.052  37.843  10.311  1.00  0.00     0.067 A 
ATOM     39  C   UNL     1      28.833  36.651   9.688  1.00  0.00     0.039 A 
ATOM     40  C   UNL     1      28.017  38.352  11.101  1.00  0.00     0.029 A 
ATOM     41  C   UNL     1      27.643  35.940   9.808  1.00  0.00     0.007 A 
ATOM     42  C   UNL     1      26.838  37.671  11.235  1.00  0.00     0.012 A 
ATOM     43  C   UNL     1      26.650  36.453  10.583  1.00  0.00    -0.008 A 
BRANCH  41  44
ATOM     44  C   UNL     1      27.446  34.664   9.125  1.00  0.00     0.072 C 
ATOM     45  O   UNL     1      27.742  33.563   9.688  1.00  0.00    -0.545 OA
ATOM     46  O   UNL     1      26.933  34.628   7.857  1.00  0.00    -0.545 OA
ENDBRANCH  41  44
BRANCH  43  47
ATOM     47  C   UNL     1      25.362  35.809  10.788  1.00  0.00     0.004 A 
ATOM     48  C   UNL     1      25.082  34.941  11.822  1.00  0.00     0.026 A 
ATOM     49  C   UNL     1      24.342  36.079   9.892  1.00  0.00     0.026 A 
ATOM     50  C   UNL     1      26.075  34.646  12.736  1.00  0.00     0.016 A 
ATOM     51  C   UNL     1      23.829  34.358  11.966  1.00  0.00     0.139 A 
ATOM     52  C   UNL     1      23.048  35.444  10.086  1.00  0.00     0.139 A 
ATOM     53  C   UNL     1      24.518  36.930   8.825  1.00  0.00     0.016 A 
ATOM     54  C   UNL     1      25.840  33.780  13.794  1.00  0.00     0.047 A 
ATOM     55  C   UNL     1      23.566  33.495  13.004  1.00  0.00     0.093 A 
ATOM     56  O   UNL     1      22.867  34.618  11.114  1.00  0.00    -0.456 OA
ATOM     57  C   UNL     1      22.036  35.704   9.209  1.00  0.00     0.099 A 
ATOM     58  C   UNL     1      23.474  37.159   7.974  1.00  0.00     0.053 A 
ATOM     59  C   UNL     1      24.586  33.216  13.911  1.00  0.00     0.119 A 
ATOM     60  C   UNL     1      22.235  36.560   8.148  1.00  0.00     0.182 A 
ATOM     61  O   UNL     1      21.304  36.804   7.336  1.00  0.00    -0.290 OA
BRANCH  59  62
ATOM     62  O   UNL     1      24.343  32.349  14.963  1.00  0.00    -0.508 OA
ATOM     63  H   UNL     1      24.234  31.357  14.863  1.00  0.00     0.293 HD
ENDBRANCH  59  62
ENDBRANCH  43  47
ENDBRANCH  36  38
ENDBRANCH  32  33
ENDBRANCH  31  32
ENDBRANCH   2  31
TORSDOF 18
BEGIN_RES LYS A 131
REMARK  4 active torsions:
REMARK  status: ('A' for Active; 'I' for Inactive)
REMARK    1  A    between atoms: CA   and  CB  
REMARK    2  A    between atoms: CB   and  CG  
REMARK    3  A    between atoms: CG   and  CD  
REMARK    4  A    between atoms: CD   and  CE  
ROOT
ATOM      1  CA  LYS A 131      29.867  25.555  16.977  1.00 20.52     0.186 C 
ENDROOT
BRANCH   1   2
ATOM      2  CB  LYS A 131      28.345  25.722  17.026  1.00 20.94     0.034 C 
BRANCH   2   3
ATOM      3  CG  LYS A 131      27.600  24.418  16.787  1.00 22.96     0.005 C 
BRANCH   3   4
ATOM      4  CD  LYS A 131      26.834  23.972  18.002  1.00 24.33     0.041 C 
BRANCH   4   5
ATOM      5  CE  LYS A 131      25.575  23.230  17.567  1.00 26.91     0.338 C 
ATOM      6  NZ  LYS A 131      24.636  24.156  16.890  1.00 27.40     0.618 N 
ENDBRANCH   4   5
ENDBRANCH   3   4
ENDBRANCH   2   3
ENDBRANCH   1   2
END_RES LYS A 131
BEGIN_RES LYS A 135
REMARK  4 active torsions:
REMARK  status: ('A' for Active; 'I' for Inactive)
REMARK    5  A    between atoms: CA   and  CB  
REMARK    6  A    between atoms: CB   and  CG  
REMARK    7  A    between atoms: CG   and  CD  
REMARK    8  A    between atoms: CD   and  CE  
ROOT
ATOM      7  CA  LYS A 135      33.193  34.663   9.290  1.00 25.02     0.186 C 
ENDROOT
BRANCH   7   8
ATOM      8  CB  LYS A 135      32.060  35.360  10.034  1.00 26.63     0.034 C 
BRANCH   8   9
ATOM      9  CG  LYS A 135      32.317  35.520  11.510  1.00 29.45     0.005 C 
BRANCH   9  10
ATOM     10  CD  LYS A 135      31.094  35.109  12.315  1.00 32.00     0.041 C 
BRANCH  10  11
ATOM     11  CE  LYS A 135      30.585  36.273  13.143  1.00 34.25     0.338 C 
ATOM     12  NZ  LYS A 135      31.603  37.357  13.227  1.00 35.99     0.618 N 
ENDBRANCH  10  11
ENDBRANCH   9  10
ENDBRANCH   8   9
ENDBRANCH   7   8
END_RES LYS A 135
