REMARK VINA RESULT:    -4.192      3.121      9.750
REMARK INTER + INTRA:         -14.779
REMARK INTER:                  -8.590
REMARK INTRA:                  -6.189
REMARK UNBOUND:                -6.788
REMARK SMILES CC(=O)N[C@@H]1[C@@H](O)C[C@](O)(C(=O)O)O[C@H]1C(O)[C@H](O)CNC(=O)OCc1cn(CC(=O)NCc2cccs2)nn1
REMARK SMILES IDX 21 1 22 2 23 3 20 5 18 6 16 7 15 8 9 9 8 10 14 11 6 12 5 13
REMARK SMILES IDX 10 14 11 16 12 17 13 18 7 20 4 22 2 23 1 25 3 26 17 27 19 29
REMARK SMILES IDX 24 31 25 32 26 33 27 34 40 35 28 36 39 37 29 38 30 39 31 40
REMARK SMILES IDX 32 41 33 43 34 44 35 45 38 46 36 47 37 48
REMARK H PARENT 21 4 10 15 13 19 7 21 4 24 17 28 19 30 32 42
REMARK Flexibility Score: inf
ROOT
ATOM      1  N   UNL     1      30.460  34.713  14.841  1.00  0.00    -0.319 N 
ATOM      2  C   UNL     1      30.556  35.047  13.474  1.00  0.00     0.407 C 
ATOM      3  O   UNL     1      31.697  35.210  12.977  1.00  0.00    -0.225 OA
ATOM      4  H   UNL     1      29.502  34.583  15.234  1.00  0.00     0.167 HD
ENDROOT
BRANCH   1   5
ATOM      5  C   UNL     1      31.587  34.537  15.736  1.00  0.00     0.154 C 
BRANCH   5   6
ATOM      6  C   UNL     1      31.308  33.459  16.745  1.00  0.00     0.165 C 
BRANCH   6   7
ATOM      7  C   UNL     1      30.881  32.154  16.163  1.00  0.00     0.176 C 
BRANCH   7   8
ATOM      8  C   UNL     1      29.486  31.709  16.395  1.00  0.00     0.178 C 
ATOM      9  C   UNL     1      27.344  32.640  16.256  1.00  0.00     0.269 C 
ATOM     10  C   UNL     1      26.976  31.176  16.414  1.00  0.00     0.112 C 
ATOM     11  O   UNL     1      28.682  32.864  16.118  1.00  0.00    -0.332 OA
ATOM     12  C   UNL     1      27.680  30.653  17.618  1.00  0.00     0.145 C 
ATOM     13  C   UNL     1      29.081  31.284  17.748  1.00  0.00     0.142 C 
BRANCH   9  14
ATOM     14  O   UNL     1      26.805  33.282  17.387  1.00  0.00    -0.357 OA
ATOM     15  H   UNL     1      25.865  32.973  17.505  1.00  0.00     0.214 HD
ENDBRANCH   9  14
BRANCH   9  16
ATOM     16  C   UNL     1      26.672  33.216  15.063  1.00  0.00     0.364 C 
ATOM     17  O   UNL     1      25.517  32.837  14.777  1.00  0.00    -0.246 OA
BRANCH  16  18
ATOM     18  O   UNL     1      27.289  34.165  14.253  1.00  0.00    -0.477 OA
ATOM     19  H   UNL     1      26.721  34.545  13.495  1.00  0.00     0.296 HD
ENDBRANCH  16  18
ENDBRANCH   9  16
BRANCH  12  20
ATOM     20  O   UNL     1      26.969  30.793  18.789  1.00  0.00    -0.391 OA
ATOM     21  H   UNL     1      26.710  29.912  19.161  1.00  0.00     0.211 HD
ENDBRANCH  12  20
BRANCH  13  22
ATOM     22  N   UNL     1      29.865  30.326  18.433  1.00  0.00    -0.348 N 
ATOM     23  C   UNL     1      30.590  30.693  19.586  1.00  0.00     0.217 C 
ATOM     24  H   UNL     1      29.928  29.349  18.117  1.00  0.00     0.163 HD
ATOM     25  C   UNL     1      31.434  29.718  20.343  1.00  0.00     0.114 C 
ATOM     26  O   UNL     1      30.573  31.881  20.055  1.00  0.00    -0.275 OA
ENDBRANCH  13  22
ENDBRANCH   7   8
BRANCH   7  27
ATOM     27  O   UNL     1      31.422  31.852  14.922  1.00  0.00    -0.388 OA
ATOM     28  H   UNL     1      31.425  32.585  14.293  1.00  0.00     0.211 HD
ENDBRANCH   7  27
ENDBRANCH   6   7
BRANCH   6  29
ATOM     29  O   UNL     1      30.526  33.867  17.817  1.00  0.00    -0.388 OA
ATOM     30  H   UNL     1      29.886  34.578  17.583  1.00  0.00     0.211 HD
ENDBRANCH   6  29
ENDBRANCH   5   6
ENDBRANCH   1   5
BRANCH   2  31
ATOM     31  O   UNL     1      29.428  35.200  12.656  1.00  0.00    -0.443 OA
BRANCH  31  32
ATOM     32  C   UNL     1      29.051  36.479  12.180  1.00  0.00     0.294 C 
BRANCH  32  33
ATOM     33  C   UNL     1      27.708  36.358  11.548  1.00  0.00     0.120 A 
ATOM     34  C   UNL     1      27.065  37.265  10.731  1.00  0.00     0.138 A 
ATOM     35  N   UNL     1      26.850  35.331  11.655  1.00  0.00    -0.132 NA
ATOM     36  N   UNL     1      25.870  36.769  10.379  1.00  0.00    -0.243 N 
ATOM     37  N   UNL     1      25.763  35.591  10.955  1.00  0.00    -0.067 NA
BRANCH  36  38
ATOM     38  C   UNL     1      24.903  37.454   9.505  1.00  0.00     0.245 C 
BRANCH  38  39
ATOM     39  C   UNL     1      25.622  37.780   8.252  1.00  0.00     0.242 C 
ATOM     40  O   UNL     1      25.858  36.837   7.426  1.00  0.00    -0.273 OA
ATOM     41  N   UNL     1      26.078  39.068   7.885  1.00  0.00    -0.350 N 
ATOM     42  H   UNL     1      25.887  39.833   8.557  1.00  0.00     0.163 HD
BRANCH  41  43
ATOM     43  C   UNL     1      26.775  39.341   6.650  1.00  0.00     0.162 C 
BRANCH  43  44
ATOM     44  C   UNL     1      28.238  39.512   7.011  1.00  0.00     0.024 A 
ATOM     45  C   UNL     1      29.189  38.596   7.152  1.00  0.00     0.017 A 
ATOM     46  S   UNL     1      29.035  41.015   7.339  1.00  0.00    -0.147 S 
ATOM     47  C   UNL     1      30.448  38.956   7.484  1.00  0.00     0.012 A 
ATOM     48  C   UNL     1      30.659  40.331   7.661  1.00  0.00     0.065 A 
ENDBRANCH  43  44
ENDBRANCH  41  43
ENDBRANCH  38  39
ENDBRANCH  36  38
ENDBRANCH  32  33
ENDBRANCH  31  32
ENDBRANCH   2  31
TORSDOF 18
BEGIN_RES LYS A 131
REMARK  4 active torsions:
REMARK  status: ('A' for Active; 'I' for Inactive)
REMARK    1  A    between atoms: CA   and  CB  
REMARK    2  A    between atoms: CB   and  CG  
REMARK    3  A    between atoms: CG   and  CD  
REMARK    4  A    between atoms: CD   and  CE  
ROOT
ATOM      1  CA  LYS A 131      29.867  25.555  16.977  1.00 20.52     0.186 C 
ENDROOT
BRANCH   1   2
ATOM      2  CB  LYS A 131      28.345  25.722  17.026  1.00 20.94     0.034 C 
BRANCH   2   3
ATOM      3  CG  LYS A 131      27.599  24.429  16.734  1.00 22.96     0.005 C 
BRANCH   3   4
ATOM      4  CD  LYS A 131      26.990  23.835  17.973  1.00 24.33     0.041 C 
BRANCH   4   5
ATOM      5  CE  LYS A 131      25.567  23.375  17.671  1.00 26.91     0.338 C 
ATOM      6  NZ  LYS A 131      24.853  24.393  16.865  1.00 27.40     0.618 N 
ENDBRANCH   4   5
ENDBRANCH   3   4
ENDBRANCH   2   3
ENDBRANCH   1   2
END_RES LYS A 131
BEGIN_RES LYS A 135
REMARK  4 active torsions:
REMARK  status: ('A' for Active; 'I' for Inactive)
REMARK    5  A    between atoms: CA   and  CB  
REMARK    6  A    between atoms: CB   and  CG  
REMARK    7  A    between atoms: CG   and  CD  
REMARK    8  A    between atoms: CD   and  CE  
ROOT
ATOM      7  CA  LYS A 135      33.193  34.663   9.290  1.00 25.02     0.186 C 
ENDROOT
BRANCH   7   8
ATOM      8  CB  LYS A 135      32.060  35.360  10.034  1.00 26.63     0.034 C 
BRANCH   8   9
ATOM      9  CG  LYS A 135      30.870  35.672   9.164  1.00 29.45     0.005 C 
BRANCH   9  10
ATOM     10  CD  LYS A 135      30.363  34.414   8.476  1.00 32.00     0.041 C 
BRANCH  10  11
ATOM     11  CE  LYS A 135      29.067  33.947   9.110  1.00 34.25     0.338 C 
ATOM     12  NZ  LYS A 135      27.887  34.482   8.375  1.00 35.99     0.618 N 
ENDBRANCH  10  11
ENDBRANCH   9  10
ENDBRANCH   8   9
ENDBRANCH   7   8
END_RES LYS A 135
