REMARK VINA RESULT:    -6.555      4.042      8.955
REMARK INTER + INTRA:         -15.923
REMARK INTER:                 -10.092
REMARK INTRA:                  -5.831
REMARK UNBOUND:                -4.578
REMARK SMILES CC(=O)N[C@@H]1[C@@H](O)C[C@](O)(C(=O)O)O[C@H]1C(O)[C@H](O)CNC(=O)OCc1cn(C2c3ccccc3-c3ccccc32)nn1
REMARK SMILES IDX 20 1 18 2 16 3 15 4 9 5 8 6 14 7 6 8 5 9 10 10 11 12 12 13
REMARK SMILES IDX 13 14 7 16 4 18 2 19 1 21 3 22 17 23 19 25 21 27 22 28 23 30
REMARK SMILES IDX 24 31 25 32 26 33 27 34 43 35 28 36 42 37 29 38 30 39 41 40
REMARK SMILES IDX 31 41 35 42 36 43 40 44 32 45 34 46 37 47 39 48 33 49 38 50
REMARK H PARENT 10 11 13 15 7 17 4 20 17 24 19 26 21 29
REMARK Flexibility Score: inf
ROOT
ATOM      1  C   UNL     1      24.265  36.065  12.397  1.00  0.00     0.154 C 
ENDROOT
BRANCH   1   2
ATOM      2  C   UNL     1      23.592  34.959  11.671  1.00  0.00     0.165 C 
BRANCH   2   3
ATOM      3  C   UNL     1      23.128  35.337  10.301  1.00  0.00     0.176 C 
BRANCH   3   4
ATOM      4  C   UNL     1      21.968  36.291  10.238  1.00  0.00     0.178 C 
ATOM      5  C   UNL     1      20.562  35.815   8.426  1.00  0.00     0.269 C 
ATOM      6  C   UNL     1      19.977  37.209   8.337  1.00  0.00     0.112 C 
ATOM      7  O   UNL     1      20.902  35.557   9.716  1.00  0.00    -0.332 OA
ATOM      8  C   UNL     1      20.894  38.165   9.007  1.00  0.00     0.145 C 
ATOM      9  C   UNL     1      22.230  37.534   9.432  1.00  0.00     0.142 C 
BRANCH   5  10
ATOM     10  O   UNL     1      21.552  35.728   7.484  1.00  0.00    -0.357 OA
ATOM     11  H   UNL     1      22.439  35.592   7.885  1.00  0.00     0.214 HD
ENDBRANCH   5  10
BRANCH   5  12
ATOM     12  C   UNL     1      19.455  34.880   8.059  1.00  0.00     0.364 C 
ATOM     13  O   UNL     1      18.775  34.348   8.967  1.00  0.00    -0.246 OA
BRANCH  12  14
ATOM     14  O   UNL     1      19.142  34.571   6.743  1.00  0.00    -0.477 OA
ATOM     15  H   UNL     1      18.885  35.314   6.080  1.00  0.00     0.296 HD
ENDBRANCH  12  14
ENDBRANCH   5  12
BRANCH   8  16
ATOM     16  O   UNL     1      21.198  39.283   8.246  1.00  0.00    -0.391 OA
ATOM     17  H   UNL     1      21.893  39.854   8.645  1.00  0.00     0.211 HD
ENDBRANCH   8  16
BRANCH   9  18
ATOM     18  N   UNL     1      22.838  38.542  10.272  1.00  0.00    -0.348 N 
ATOM     19  C   UNL     1      24.197  38.945  10.201  1.00  0.00     0.217 C 
ATOM     20  H   UNL     1      22.235  39.010  10.979  1.00  0.00     0.163 HD
ATOM     21  C   UNL     1      24.754  39.999  11.108  1.00  0.00     0.114 C 
ATOM     22  O   UNL     1      24.926  38.383   9.344  1.00  0.00    -0.275 OA
ENDBRANCH   9  18
ENDBRANCH   3   4
BRANCH   3  23
ATOM     23  O   UNL     1      24.140  35.734   9.435  1.00  0.00    -0.388 OA
ATOM     24  H   UNL     1      24.233  36.694   9.323  1.00  0.00     0.211 HD
ENDBRANCH   3  23
ENDBRANCH   2   3
BRANCH   2  25
ATOM     25  O   UNL     1      22.465  34.553  12.381  1.00  0.00    -0.388 OA
ATOM     26  H   UNL     1      22.135  35.231  13.001  1.00  0.00     0.211 HD
ENDBRANCH   2  25
ENDBRANCH   1   2
BRANCH   1  27
ATOM     27  N   UNL     1      25.595  36.347  12.007  1.00  0.00    -0.319 N 
ATOM     28  C   UNL     1      26.729  35.715  12.548  1.00  0.00     0.407 C 
ATOM     29  H   UNL     1      25.774  37.087  11.253  1.00  0.00     0.167 HD
ATOM     30  O   UNL     1      26.650  34.844  13.409  1.00  0.00    -0.225 OA
BRANCH  28  31
ATOM     31  O   UNL     1      28.025  36.056  12.121  1.00  0.00    -0.443 OA
BRANCH  31  32
ATOM     32  C   UNL     1      28.894  36.853  12.867  1.00  0.00     0.294 C 
BRANCH  32  33
ATOM     33  C   UNL     1      30.110  36.140  13.330  1.00  0.00     0.120 A 
ATOM     34  C   UNL     1      30.357  35.530  14.535  1.00  0.00     0.139 A 
ATOM     35  N   UNL     1      31.202  35.988  12.579  1.00  0.00    -0.132 NA
ATOM     36  N   UNL     1      31.587  35.031  14.473  1.00  0.00    -0.240 N 
ATOM     37  N   UNL     1      32.082  35.317  13.286  1.00  0.00    -0.066 NA
BRANCH  36  38
ATOM     38  C   UNL     1      32.294  34.294  15.510  1.00  0.00     0.170 C 
ATOM     39  C   UNL     1      31.480  33.192  16.049  1.00  0.00    -0.011 A 
ATOM     40  C   UNL     1      32.650  35.125  16.649  1.00  0.00    -0.011 A 
ATOM     41  C   UNL     1      30.876  32.105  15.392  1.00  0.00     0.007 A 
ATOM     42  C   UNL     1      31.374  33.374  17.398  1.00  0.00    -0.012 A 
ATOM     43  C   UNL     1      32.103  34.582  17.781  1.00  0.00    -0.012 A 
ATOM     44  C   UNL     1      33.405  36.308  16.779  1.00  0.00     0.007 A 
ATOM     45  C   UNL     1      30.161  31.208  16.146  1.00  0.00     0.000 A 
ATOM     46  C   UNL     1      30.638  32.442  18.129  1.00  0.00     0.009 A 
ATOM     47  C   UNL     1      32.260  35.143  19.052  1.00  0.00     0.009 A 
ATOM     48  C   UNL     1      33.572  36.876  18.015  1.00  0.00     0.000 A 
ATOM     49  C   UNL     1      30.037  31.368  17.511  1.00  0.00     0.001 A 
ATOM     50  C   UNL     1      33.004  36.298  19.138  1.00  0.00     0.001 A 
ENDBRANCH  36  38
ENDBRANCH  32  33
ENDBRANCH  31  32
ENDBRANCH  28  31
ENDBRANCH   1  27
TORSDOF 15
BEGIN_RES LYS A 131
REMARK  4 active torsions:
REMARK  status: ('A' for Active; 'I' for Inactive)
REMARK    1  A    between atoms: CA   and  CB  
REMARK    2  A    between atoms: CB   and  CG  
REMARK    3  A    between atoms: CG   and  CD  
REMARK    4  A    between atoms: CD   and  CE  
ROOT
ATOM      1  CA  LYS A 131      29.867  25.555  16.977  1.00 20.52     0.186 C 
ENDROOT
BRANCH   1   2
ATOM      2  CB  LYS A 131      28.345  25.722  17.026  1.00 20.94     0.034 C 
BRANCH   2   3
ATOM      3  CG  LYS A 131      27.599  24.426  16.748  1.00 22.96     0.005 C 
BRANCH   3   4
ATOM      4  CD  LYS A 131      26.898  23.902  17.970  1.00 24.33     0.041 C 
BRANCH   4   5
ATOM      5  CE  LYS A 131      25.545  23.322  17.572  1.00 26.91     0.338 C 
ATOM      6  NZ  LYS A 131      24.735  24.338  16.859  1.00 27.40     0.618 N 
ENDBRANCH   4   5
ENDBRANCH   3   4
ENDBRANCH   2   3
ENDBRANCH   1   2
END_RES LYS A 131
BEGIN_RES LYS A 135
REMARK  4 active torsions:
REMARK  status: ('A' for Active; 'I' for Inactive)
REMARK    5  A    between atoms: CA   and  CB  
REMARK    6  A    between atoms: CB   and  CG  
REMARK    7  A    between atoms: CG   and  CD  
REMARK    8  A    between atoms: CD   and  CE  
ROOT
ATOM      7  CA  LYS A 135      33.193  34.663   9.290  1.00 25.02     0.186 C 
ENDROOT
BRANCH   7   8
ATOM      8  CB  LYS A 135      32.060  35.360  10.034  1.00 26.63     0.034 C 
BRANCH   8   9
ATOM      9  CG  LYS A 135      30.703  34.767   9.757  1.00 29.45     0.005 C 
BRANCH   9  10
ATOM     10  CD  LYS A 135      30.455  34.670   8.260  1.00 32.00     0.041 C 
BRANCH  10  11
ATOM     11  CE  LYS A 135      28.975  34.805   7.955  1.00 34.25     0.338 C 
ATOM     12  NZ  LYS A 135      28.148  34.189   9.029  1.00 35.99     0.618 N 
ENDBRANCH  10  11
ENDBRANCH   9  10
ENDBRANCH   8   9
ENDBRANCH   7   8
END_RES LYS A 135
