REMARK VINA RESULT:    -4.371      7.911     13.469
REMARK INTER + INTRA:         -14.606
REMARK INTER:                  -8.331
REMARK INTRA:                  -6.275
REMARK UNBOUND:                -6.275
REMARK SMILES CC(=O)N[C@@H]1[C@@H](O)C[C@](O)(C(=O)O)O[C@H]1C(O)[C@H](O)CNC(=O)OCc1cn(Cc2ccccc2OC(C)=O)nn1
REMARK SMILES IDX 21 1 22 2 23 3 20 5 18 6 16 7 15 8 9 9 8 10 14 11 6 12 5 13
REMARK SMILES IDX 10 14 11 16 12 17 13 18 7 20 4 22 2 23 1 25 3 26 17 27 19 29
REMARK SMILES IDX 24 31 25 32 26 33 27 34 41 35 28 36 40 37 29 38 30 39 35 40
REMARK SMILES IDX 31 41 34 42 32 43 33 44 36 45 37 46 39 47 38 48
REMARK H PARENT 21 4 10 15 13 19 7 21 4 24 17 28 19 30
REMARK Flexibility Score: inf
ROOT
ATOM      1  N   UNL     1      28.211  30.495  18.831  1.00  0.00    -0.319 N 
ATOM      2  C   UNL     1      27.441  30.312  17.643  1.00  0.00     0.407 C 
ATOM      3  O   UNL     1      26.298  30.814  17.597  1.00  0.00    -0.225 OA
ATOM      4  H   UNL     1      29.159  30.072  18.859  1.00  0.00     0.167 HD
ENDROOT
BRANCH   1   5
ATOM      5  C   UNL     1      27.684  31.235  19.947  1.00  0.00     0.154 C 
BRANCH   5   6
ATOM      6  C   UNL     1      28.862  31.712  20.801  1.00  0.00     0.165 C 
BRANCH   6   7
ATOM      7  C   UNL     1      30.132  31.121  20.256  1.00  0.00     0.176 C 
BRANCH   7   8
ATOM      8  C   UNL     1      30.953  30.580  21.395  1.00  0.00     0.178 C 
ATOM      9  C   UNL     1      33.078  30.724  22.329  1.00  0.00     0.269 C 
ATOM     10  C   UNL     1      33.416  29.312  21.911  1.00  0.00     0.112 C 
ATOM     11  O   UNL     1      32.162  31.201  21.407  1.00  0.00    -0.332 OA
ATOM     12  C   UNL     1      32.183  28.481  22.017  1.00  0.00     0.145 C 
ATOM     13  C   UNL     1      30.980  29.093  21.354  1.00  0.00     0.142 C 
BRANCH   9  14
ATOM     14  O   UNL     1      34.260  31.468  22.126  1.00  0.00    -0.357 OA
ATOM     15  H   UNL     1      34.082  32.436  22.120  1.00  0.00     0.214 HD
ENDBRANCH   9  14
BRANCH   9  16
ATOM     16  C   UNL     1      32.637  30.838  23.733  1.00  0.00     0.364 C 
ATOM     17  O   UNL     1      31.721  31.602  24.123  1.00  0.00    -0.246 OA
BRANCH  16  18
ATOM     18  O   UNL     1      33.256  30.065  24.697  1.00  0.00    -0.477 OA
ATOM     19  H   UNL     1      33.865  30.444  25.426  1.00  0.00     0.296 HD
ENDBRANCH  16  18
ENDBRANCH   9  16
BRANCH  12  20
ATOM     20  O   UNL     1      32.477  27.230  21.431  1.00  0.00    -0.391 OA
ATOM     21  H   UNL     1      32.311  26.518  22.116  1.00  0.00     0.211 HD
ENDBRANCH  12  20
BRANCH  13  22
ATOM     22  N   UNL     1      29.794  28.590  22.021  1.00  0.00    -0.348 N 
ATOM     23  C   UNL     1      28.760  27.903  21.314  1.00  0.00     0.217 C 
ATOM     24  H   UNL     1      29.667  28.719  23.047  1.00  0.00     0.163 HD
ATOM     25  C   UNL     1      27.572  27.410  22.045  1.00  0.00     0.114 C 
ATOM     26  O   UNL     1      28.868  27.724  20.082  1.00  0.00    -0.275 OA
ENDBRANCH  13  22
ENDBRANCH   7   8
BRANCH   7  27
ATOM     27  O   UNL     1      30.874  32.062  19.531  1.00  0.00    -0.388 OA
ATOM     28  H   UNL     1      30.328  32.376  18.774  1.00  0.00     0.211 HD
ENDBRANCH   7  27
ENDBRANCH   6   7
BRANCH   6  29
ATOM     29  O   UNL     1      28.590  31.359  22.104  1.00  0.00    -0.388 OA
ATOM     30  H   UNL     1      28.168  30.480  22.201  1.00  0.00     0.211 HD
ENDBRANCH   6  29
ENDBRANCH   5   6
ENDBRANCH   1   5
BRANCH   2  31
ATOM     31  O   UNL     1      27.968  29.595  16.582  1.00  0.00    -0.443 OA
BRANCH  31  32
ATOM     32  C   UNL     1      28.492  30.231  15.439  1.00  0.00     0.294 C 
BRANCH  32  33
ATOM     33  C   UNL     1      29.386  31.318  15.866  1.00  0.00     0.120 A 
ATOM     34  C   UNL     1      29.223  32.681  15.603  1.00  0.00     0.138 A 
ATOM     35  N   UNL     1      30.533  31.239  16.588  1.00  0.00    -0.132 NA
ATOM     36  N   UNL     1      30.244  33.320  16.160  1.00  0.00    -0.248 N 
ATOM     37  N   UNL     1      31.035  32.446  16.756  1.00  0.00    -0.067 NA
BRANCH  36  38
ATOM     38  C   UNL     1      30.466  34.752  16.133  1.00  0.00     0.185 C 
BRANCH  38  39
ATOM     39  C   UNL     1      31.398  35.007  14.983  1.00  0.00     0.016 A 
ATOM     40  C   UNL     1      30.920  35.685  13.893  1.00  0.00     0.135 A 
ATOM     41  C   UNL     1      32.693  34.560  15.044  1.00  0.00     0.009 A 
ATOM     42  C   UNL     1      31.731  35.941  12.818  1.00  0.00     0.047 A 
ATOM     43  C   UNL     1      33.533  34.814  13.954  1.00  0.00     0.001 A 
ATOM     44  C   UNL     1      33.034  35.493  12.876  1.00  0.00     0.004 A 
BRANCH  40  45
ATOM     45  O   UNL     1      29.603  36.121  13.869  1.00  0.00    -0.426 OA
BRANCH  45  46
ATOM     46  C   UNL     1      28.806  35.700  12.806  1.00  0.00     0.308 C 
ATOM     47  O   UNL     1      28.475  34.494  12.722  1.00  0.00    -0.252 OA
ATOM     48  C   UNL     1      28.344  36.660  11.775  1.00  0.00     0.139 C 
ENDBRANCH  45  46
ENDBRANCH  40  45
ENDBRANCH  38  39
ENDBRANCH  36  38
ENDBRANCH  32  33
ENDBRANCH  31  32
ENDBRANCH   2  31
TORSDOF 18
BEGIN_RES LYS A 131
REMARK  4 active torsions:
REMARK  status: ('A' for Active; 'I' for Inactive)
REMARK    1  A    between atoms: CA   and  CB  
REMARK    2  A    between atoms: CB   and  CG  
REMARK    3  A    between atoms: CG   and  CD  
REMARK    4  A    between atoms: CD   and  CE  
ROOT
ATOM      1  CA  LYS A 131      29.867  25.555  16.977  1.00 20.52     0.186 C 
ENDROOT
BRANCH   1   2
ATOM      2  CB  LYS A 131      28.345  25.722  17.026  1.00 20.94     0.034 C 
BRANCH   2   3
ATOM      3  CG  LYS A 131      27.601  24.403  16.886  1.00 22.96     0.005 C 
BRANCH   3   4
ATOM      4  CD  LYS A 131      26.152  24.526  17.268  1.00 24.33     0.041 C 
BRANCH   4   5
ATOM      5  CE  LYS A 131      25.969  24.090  18.718  1.00 26.91     0.338 C 
ATOM      6  NZ  LYS A 131      25.761  25.269  19.592  1.00 27.40     0.618 N 
ENDBRANCH   4   5
ENDBRANCH   3   4
ENDBRANCH   2   3
ENDBRANCH   1   2
END_RES LYS A 131
BEGIN_RES LYS A 135
REMARK  4 active torsions:
REMARK  status: ('A' for Active; 'I' for Inactive)
REMARK    5  A    between atoms: CA   and  CB  
REMARK    6  A    between atoms: CB   and  CG  
REMARK    7  A    between atoms: CG   and  CD  
REMARK    8  A    between atoms: CD   and  CE  
ROOT
ATOM      7  CA  LYS A 135      33.193  34.663   9.290  1.00 25.02     0.186 C 
ENDROOT
BRANCH   7   8
ATOM      8  CB  LYS A 135      32.060  35.360  10.034  1.00 26.63     0.034 C 
BRANCH   8   9
ATOM      9  CG  LYS A 135      30.883  35.701   9.157  1.00 29.45     0.005 C 
BRANCH   9  10
ATOM     10  CD  LYS A 135      30.388  34.466   8.420  1.00 32.00     0.041 C 
BRANCH  10  11
ATOM     11  CE  LYS A 135      28.875  34.481   8.313  1.00 34.25     0.338 C 
ATOM     12  NZ  LYS A 135      28.249  33.767   9.461  1.00 35.99     0.618 N 
ENDBRANCH  10  11
ENDBRANCH   9  10
ENDBRANCH   8   9
ENDBRANCH   7   8
END_RES LYS A 135
