REMARK VINA RESULT:    -5.241      5.232      8.705
REMARK INTER + INTRA:         -15.325
REMARK INTER:                  -8.793
REMARK INTRA:                  -6.532
REMARK UNBOUND:                -5.794
REMARK SMILES CC(=O)N[C@@H]1[C@@H](O)C[C@](O)(C(=O)O)O[C@H]1C(O)[C@H](O)CNC(=O)OCc1cn(Cc2cc(Br)cc(Br)c2O)nn1
REMARK SMILES IDX 21 1 22 2 23 3 20 5 18 6 16 7 15 8 9 9 8 10 14 11 6 12 5 13
REMARK SMILES IDX 10 14 11 16 12 17 13 18 7 20 4 22 2 23 1 25 3 26 17 27 19 29
REMARK SMILES IDX 24 31 25 32 26 33 27 34 40 35 28 36 39 37 29 38 30 39 31 40
REMARK SMILES IDX 37 41 32 42 35 43 33 44 34 45 36 46 38 47
REMARK H PARENT 21 4 10 15 13 19 7 21 4 24 17 28 19 30 38 48
REMARK Flexibility Score: inf
ROOT
ATOM      1  N   UNL     1      28.105  37.108  11.337  1.00  0.00    -0.319 N 
ATOM      2  C   UNL     1      27.061  37.767  10.628  1.00  0.00     0.407 C 
ATOM      3  O   UNL     1      26.550  38.799  11.121  1.00  0.00    -0.225 OA
ATOM      4  H   UNL     1      28.509  36.257  10.908  1.00  0.00     0.167 HD
ENDROOT
BRANCH   1   5
ATOM      5  C   UNL     1      28.591  37.588  12.602  1.00  0.00     0.154 C 
BRANCH   5   6
ATOM      6  C   UNL     1      28.353  36.582  13.691  1.00  0.00     0.165 C 
BRANCH   6   7
ATOM      7  C   UNL     1      29.275  35.388  13.576  1.00  0.00     0.176 C 
BRANCH   7   8
ATOM      8  C   UNL     1      29.825  35.034  14.970  1.00  0.00     0.178 C 
ATOM      9  C   UNL     1      32.092  34.631  15.457  1.00  0.00     0.269 C 
ATOM     10  C   UNL     1      31.569  33.667  16.534  1.00  0.00     0.112 C 
ATOM     11  O   UNL     1      31.101  35.435  15.006  1.00  0.00    -0.332 OA
ATOM     12  C   UNL     1      30.608  32.772  15.767  1.00  0.00     0.145 C 
ATOM     13  C   UNL     1      29.476  33.650  15.319  1.00  0.00     0.142 C 
BRANCH   9  14
ATOM     14  O   UNL     1      32.680  33.832  14.498  1.00  0.00    -0.357 OA
ATOM     15  H   UNL     1      32.136  33.046  14.243  1.00  0.00     0.214 HD
ENDBRANCH   9  14
BRANCH   9  16
ATOM     16  C   UNL     1      33.142  35.493  16.055  1.00  0.00     0.364 C 
ATOM     17  O   UNL     1      34.288  35.495  15.539  1.00  0.00    -0.246 OA
BRANCH  16  18
ATOM     18  O   UNL     1      32.902  36.298  17.164  1.00  0.00    -0.477 OA
ATOM     19  H   UNL     1      33.255  37.263  17.092  1.00  0.00     0.296 HD
ENDBRANCH  16  18
ENDBRANCH   9  16
BRANCH  12  20
ATOM     20  O   UNL     1      31.254  32.153  14.699  1.00  0.00    -0.391 OA
ATOM     21  H   UNL     1      30.900  31.242  14.628  1.00  0.00     0.211 HD
ENDBRANCH  12  20
BRANCH  13  22
ATOM     22  N   UNL     1      28.439  33.560  16.346  1.00  0.00    -0.348 N 
ATOM     23  C   UNL     1      27.062  33.410  16.050  1.00  0.00     0.217 C 
ATOM     24  H   UNL     1      28.688  33.603  17.374  1.00  0.00     0.163 HD
ATOM     25  C   UNL     1      26.036  33.322  17.133  1.00  0.00     0.114 C 
ATOM     26  O   UNL     1      26.689  33.350  14.850  1.00  0.00    -0.275 OA
ENDBRANCH  13  22
ENDBRANCH   7   8
BRANCH   7  27
ATOM     27  O   UNL     1      28.715  34.305  12.945  1.00  0.00    -0.388 OA
ATOM     28  H   UNL     1      27.760  34.425  12.760  1.00  0.00     0.211 HD
ENDBRANCH   7  27
ENDBRANCH   6   7
BRANCH   6  29
ATOM     29  O   UNL     1      27.016  36.257  13.757  1.00  0.00    -0.388 OA
ATOM     30  H   UNL     1      26.830  35.300  13.727  1.00  0.00     0.211 HD
ENDBRANCH   6  29
ENDBRANCH   5   6
ENDBRANCH   1   5
BRANCH   2  31
ATOM     31  O   UNL     1      26.616  37.284   9.422  1.00  0.00    -0.443 OA
BRANCH  31  32
ATOM     32  C   UNL     1      25.410  36.550   9.306  1.00  0.00     0.294 C 
BRANCH  32  33
ATOM     33  C   UNL     1      25.291  35.641  10.476  1.00  0.00     0.120 A 
ATOM     34  C   UNL     1      24.209  35.533  11.341  1.00  0.00     0.138 A 
ATOM     35  N   UNL     1      26.176  34.745  10.949  1.00  0.00    -0.132 NA
ATOM     36  N   UNL     1      24.476  34.605  12.271  1.00  0.00    -0.248 N 
ATOM     37  N   UNL     1      25.704  34.128  12.009  1.00  0.00    -0.067 NA
BRANCH  36  38
ATOM     38  C   UNL     1      23.637  34.174  13.355  1.00  0.00     0.185 C 
BRANCH  38  39
ATOM     39  C   UNL     1      22.844  32.961  13.029  1.00  0.00     0.018 A 
ATOM     40  C   UNL     1      21.519  33.124  12.675  1.00  0.00     0.025 A 
ATOM     41  C   UNL     1      23.362  31.688  13.062  1.00  0.00     0.134 A 
ATOM     42  C   UNL     1      20.692  32.070  12.355  1.00  0.00     0.019 A 
ATOM     43  C   UNL     1      22.544  30.600  12.742  1.00  0.00     0.061 A 
ATOM     44  Br  UNL     1      18.872  32.325  11.871  1.00  0.00    -0.051 Br
ATOM     45  C   UNL     1      21.229  30.790  12.394  1.00  0.00     0.035 A 
ATOM     46  Br  UNL     1      23.348  28.859  12.815  1.00  0.00    -0.047 Br
BRANCH  41  47
ATOM     47  O   UNL     1      24.685  31.491  13.411  1.00  0.00    -0.506 OA
ATOM     48  H   UNL     1      25.374  32.183  13.148  1.00  0.00     0.293 HD
ENDBRANCH  41  47
ENDBRANCH  38  39
ENDBRANCH  36  38
ENDBRANCH  32  33
ENDBRANCH  31  32
ENDBRANCH   2  31
TORSDOF 17
BEGIN_RES LYS A 131
REMARK  4 active torsions:
REMARK  status: ('A' for Active; 'I' for Inactive)
REMARK    1  A    between atoms: CA   and  CB  
REMARK    2  A    between atoms: CB   and  CG  
REMARK    3  A    between atoms: CG   and  CD  
REMARK    4  A    between atoms: CD   and  CE  
ROOT
ATOM      1  CA  LYS A 131      29.867  25.555  16.977  1.00 20.52     0.186 C 
ENDROOT
BRANCH   1   2
ATOM      2  CB  LYS A 131      28.345  25.722  17.026  1.00 20.94     0.034 C 
BRANCH   2   3
ATOM      3  CG  LYS A 131      27.603  24.395  16.981  1.00 22.96     0.005 C 
BRANCH   3   4
ATOM      4  CD  LYS A 131      26.142  24.552  17.297  1.00 24.33     0.041 C 
BRANCH   4   5
ATOM      5  CE  LYS A 131      25.984  25.162  18.686  1.00 26.91     0.338 C 
ATOM      6  NZ  LYS A 131      24.572  25.086  19.129  1.00 27.40     0.618 N 
ENDBRANCH   4   5
ENDBRANCH   3   4
ENDBRANCH   2   3
ENDBRANCH   1   2
END_RES LYS A 131
BEGIN_RES LYS A 135
REMARK  4 active torsions:
REMARK  status: ('A' for Active; 'I' for Inactive)
REMARK    5  A    between atoms: CA   and  CB  
REMARK    6  A    between atoms: CB   and  CG  
REMARK    7  A    between atoms: CG   and  CD  
REMARK    8  A    between atoms: CD   and  CE  
ROOT
ATOM      7  CA  LYS A 135      33.193  34.663   9.290  1.00 25.02     0.186 C 
ENDROOT
BRANCH   7   8
ATOM      8  CB  LYS A 135      32.060  35.360  10.034  1.00 26.63     0.034 C 
BRANCH   8   9
ATOM      9  CG  LYS A 135      30.769  34.582  10.031  1.00 29.45     0.005 C 
BRANCH   9  10
ATOM     10  CD  LYS A 135      30.383  34.190   8.614  1.00 32.00     0.041 C 
BRANCH  10  11
ATOM     11  CE  LYS A 135      29.594  35.301   7.949  1.00 34.25     0.338 C 
ATOM     12  NZ  LYS A 135      28.171  34.906   7.753  1.00 35.99     0.618 N 
ENDBRANCH  10  11
ENDBRANCH   9  10
ENDBRANCH   8   9
ENDBRANCH   7   8
END_RES LYS A 135
