REMARK VINA RESULT:    -4.630      2.177      4.132
REMARK INTER + INTRA:         -13.930
REMARK INTER:                  -9.179
REMARK INTRA:                  -4.751
REMARK UNBOUND:                -5.917
REMARK SMILES CC(=O)N[C@@H]1[C@@H](O)C[C@](O)(C(=O)O)O[C@H]1C(O)[C@H](O)CNC(=O)OCc1cn(-c2c(C)cc(C)cc2C)nn1
REMARK SMILES IDX 20 1 18 2 16 3 15 4 9 5 8 6 14 7 6 8 5 9 10 10 11 12 12 13
REMARK SMILES IDX 13 14 7 16 4 18 2 19 1 21 3 22 17 23 19 25 21 27 22 28 23 30
REMARK SMILES IDX 24 31 25 32 26 33 27 34 39 35 28 36 38 37 29 38 30 39 36 40
REMARK SMILES IDX 31 41 32 42 35 43 37 44 33 45 34 46
REMARK H PARENT 10 11 13 15 7 17 4 20 17 24 19 26 21 29
REMARK Flexibility Score: inf
ROOT
ATOM      1  C   UNL     1      29.113  28.905  21.037  1.00  0.00     0.154 C 
ENDROOT
BRANCH   1   2
ATOM      2  C   UNL     1      29.969  27.759  21.436  1.00  0.00     0.165 C 
BRANCH   2   3
ATOM      3  C   UNL     1      31.428  28.059  21.569  1.00  0.00     0.176 C 
BRANCH   3   4
ATOM      4  C   UNL     1      32.147  27.344  22.651  1.00  0.00     0.178 C 
ATOM      5  C   UNL     1      31.631  26.525  24.780  1.00  0.00     0.269 C 
ATOM      6  C   UNL     1      33.091  26.374  25.099  1.00  0.00     0.112 C 
ATOM      7  O   UNL     1      31.335  26.596  23.452  1.00  0.00    -0.332 OA
ATOM      8  C   UNL     1      33.989  27.156  24.204  1.00  0.00     0.145 C 
ATOM      9  C   UNL     1      33.131  28.169  23.424  1.00  0.00     0.142 C 
BRANCH   5  10
ATOM     10  O   UNL     1      31.162  27.651  25.451  1.00  0.00    -0.357 OA
ATOM     11  H   UNL     1      31.929  28.287  25.544  1.00  0.00     0.214 HD
ENDBRANCH   5  10
BRANCH   5  12
ATOM     12  C   UNL     1      30.944  25.329  25.336  1.00  0.00     0.364 C 
ATOM     13  O   UNL     1      29.711  25.189  25.210  1.00  0.00    -0.246 OA
BRANCH  12  14
ATOM     14  O   UNL     1      31.667  24.337  26.012  1.00  0.00    -0.477 OA
ATOM     15  H   UNL     1      32.686  24.293  25.870  1.00  0.00     0.296 HD
ENDBRANCH  12  14
ENDBRANCH   5  12
BRANCH   8  16
ATOM     16  O   UNL     1      35.048  27.767  24.843  1.00  0.00    -0.391 OA
ATOM     17  H   UNL     1      35.813  27.118  24.837  1.00  0.00     0.211 HD
ENDBRANCH   8  16
BRANCH   9  18
ATOM     18  N   UNL     1      34.059  28.857  22.564  1.00  0.00    -0.348 N 
ATOM     19  C   UNL     1      34.173  30.268  22.686  1.00  0.00     0.217 C 
ATOM     20  H   UNL     1      34.651  28.357  21.856  1.00  0.00     0.163 HD
ATOM     21  C   UNL     1      35.099  31.070  21.844  1.00  0.00     0.114 C 
ATOM     22  O   UNL     1      33.478  30.892  23.526  1.00  0.00    -0.275 OA
ENDBRANCH   9  18
ENDBRANCH   3   4
BRANCH   3  23
ATOM     23  O   UNL     1      32.034  27.784  20.346  1.00  0.00    -0.388 OA
ATOM     24  H   UNL     1      31.655  26.936  20.005  1.00  0.00     0.211 HD
ENDBRANCH   3  23
ENDBRANCH   2   3
BRANCH   2  25
ATOM     25  O   UNL     1      29.723  26.637  20.642  1.00  0.00    -0.388 OA
ATOM     26  H   UNL     1      29.293  26.878  19.783  1.00  0.00     0.211 HD
ENDBRANCH   2  25
ENDBRANCH   1   2
BRANCH   1  27
ATOM     27  N   UNL     1      29.478  29.467  19.752  1.00  0.00    -0.319 N 
ATOM     28  C   UNL     1      30.097  30.742  19.610  1.00  0.00     0.407 C 
ATOM     29  H   UNL     1      29.304  28.955  18.838  1.00  0.00     0.167 HD
ATOM     30  O   UNL     1      30.349  31.433  20.614  1.00  0.00    -0.225 OA
BRANCH  28  31
ATOM     31  O   UNL     1      30.433  31.243  18.349  1.00  0.00    -0.443 OA
BRANCH  31  32
ATOM     32  C   UNL     1      30.848  32.613  18.233  1.00  0.00     0.294 C 
BRANCH  32  33
ATOM     33  C   UNL     1      30.874  32.969  16.791  1.00  0.00     0.121 A 
ATOM     34  C   UNL     1      31.090  34.237  16.280  1.00  0.00     0.144 A 
ATOM     35  N   UNL     1      30.704  32.179  15.740  1.00  0.00    -0.131 NA
ATOM     36  N   UNL     1      31.047  34.190  14.947  1.00  0.00    -0.220 N 
ATOM     37  N   UNL     1      30.807  32.900  14.659  1.00  0.00    -0.062 NA
BRANCH  36  38
ATOM     38  C   UNL     1      31.210  35.226  13.987  1.00  0.00     0.072 A 
ATOM     39  C   UNL     1      30.124  35.966  13.573  1.00  0.00    -0.025 A 
ATOM     40  C   UNL     1      32.446  35.527  13.437  1.00  0.00    -0.025 A 
ATOM     41  C   UNL     1      28.793  35.666  14.146  1.00  0.00     0.047 C 
ATOM     42  C   UNL     1      30.289  36.986  12.627  1.00  0.00     0.009 A 
ATOM     43  C   UNL     1      32.597  36.535  12.505  1.00  0.00     0.009 A 
ATOM     44  C   UNL     1      33.621  34.708  13.902  1.00  0.00     0.047 C 
ATOM     45  C   UNL     1      31.520  37.283  12.083  1.00  0.00    -0.050 A 
ATOM     46  C   UNL     1      31.668  38.376  11.076  1.00  0.00     0.044 C 
ENDBRANCH  36  38
ENDBRANCH  32  33
ENDBRANCH  31  32
ENDBRANCH  28  31
ENDBRANCH   1  27
TORSDOF 15
BEGIN_RES LYS A 131
REMARK  4 active torsions:
REMARK  status: ('A' for Active; 'I' for Inactive)
REMARK    1  A    between atoms: CA   and  CB  
REMARK    2  A    between atoms: CB   and  CG  
REMARK    3  A    between atoms: CG   and  CD  
REMARK    4  A    between atoms: CD   and  CE  
ROOT
ATOM      1  CA  LYS A 131      29.867  25.555  16.977  1.00 20.52     0.186 C 
ENDROOT
BRANCH   1   2
ATOM      2  CB  LYS A 131      28.345  25.722  17.026  1.00 20.94     0.034 C 
BRANCH   2   3
ATOM      3  CG  LYS A 131      27.599  24.426  16.746  1.00 22.96     0.005 C 
BRANCH   3   4
ATOM      4  CD  LYS A 131      26.949  23.868  17.981  1.00 24.33     0.041 C 
BRANCH   4   5
ATOM      5  CE  LYS A 131      25.562  24.480  18.147  1.00 26.91     0.338 C 
ATOM      6  NZ  LYS A 131      24.805  24.401  16.876  1.00 27.40     0.618 N 
ENDBRANCH   4   5
ENDBRANCH   3   4
ENDBRANCH   2   3
ENDBRANCH   1   2
END_RES LYS A 131
BEGIN_RES LYS A 135
REMARK  4 active torsions:
REMARK  status: ('A' for Active; 'I' for Inactive)
REMARK    5  A    between atoms: CA   and  CB  
REMARK    6  A    between atoms: CB   and  CG  
REMARK    7  A    between atoms: CG   and  CD  
REMARK    8  A    between atoms: CD   and  CE  
ROOT
ATOM      7  CA  LYS A 135      33.193  34.663   9.290  1.00 25.02     0.186 C 
ENDROOT
BRANCH   7   8
ATOM      8  CB  LYS A 135      32.060  35.360  10.034  1.00 26.63     0.034 C 
BRANCH   8   9
ATOM      9  CG  LYS A 135      30.709  34.738   9.793  1.00 29.45     0.005 C 
BRANCH   9  10
ATOM     10  CD  LYS A 135      30.470  34.532   8.305  1.00 32.00     0.041 C 
BRANCH  10  11
ATOM     11  CE  LYS A 135      29.024  34.823   7.952  1.00 34.25     0.338 C 
ATOM     12  NZ  LYS A 135      28.923  35.528   6.644  1.00 35.99     0.618 N 
ENDBRANCH  10  11
ENDBRANCH   9  10
ENDBRANCH   8   9
ENDBRANCH   7   8
END_RES LYS A 135
