REMARK VINA RESULT:    -4.064      3.619      6.577
REMARK INTER + INTRA:         -14.096
REMARK INTER:                  -7.138
REMARK INTRA:                  -6.958
REMARK UNBOUND:                -5.875
REMARK SMILES CC[N+](C)(CC)CCCn1cc(COC(=O)NC[C@@H](O)C(O)[C@@H]2O[C@@](O)(C(=O)O)C[C@H](O)[C@H]2NC(C)=O)nn1
REMARK SMILES IDX 14 1 15 2 17 3 16 5 18 6 19 7 21 8 23 9 25 10 30 11 24 12
REMARK SMILES IDX 31 13 33 14 26 15 27 17 28 18 29 19 32 21 34 23 35 24 36 26
REMARK SMILES IDX 37 27 22 28 20 30 13 32 12 33 11 34 38 35 10 36 39 37 9 38
REMARK SMILES IDX 8 39 7 40 3 41 4 42 2 43 1 44 5 45 6 46
REMARK H PARENT 17 4 26 16 29 20 32 22 34 25 22 29 20 31
REMARK Flexibility Score: inf
ROOT
ATOM      1  O   UNL     1      32.285  34.091  15.623  1.00  0.00    -0.443 OA
ENDROOT
BRANCH   1   2
ATOM      2  C   UNL     1      31.545  33.073  16.189  1.00  0.00     0.407 C 
ATOM      3  N   UNL     1      31.043  31.975  15.419  1.00  0.00    -0.319 N 
ATOM      4  H   UNL     1      31.274  31.985  14.420  1.00  0.00     0.167 HD
ATOM      5  O   UNL     1      31.306  33.114  17.418  1.00  0.00    -0.225 OA
BRANCH   3   6
ATOM      6  C   UNL     1      30.291  30.969  16.072  1.00  0.00     0.154 C 
BRANCH   6   7
ATOM      7  C   UNL     1      28.878  30.789  15.628  1.00  0.00     0.165 C 
BRANCH   7   8
ATOM      8  C   UNL     1      27.921  31.858  16.056  1.00  0.00     0.176 C 
BRANCH   8   9
ATOM      9  C   UNL     1      28.033  32.271  17.492  1.00  0.00     0.178 C 
ATOM     10  C   UNL     1      28.289  31.420  19.613  1.00  0.00     0.269 C 
ATOM     11  C   UNL     1      28.539  32.894  19.868  1.00  0.00     0.112 C 
ATOM     12  O   UNL     1      28.135  31.146  18.275  1.00  0.00    -0.332 OA
ATOM     13  C   UNL     1      27.402  33.721  19.354  1.00  0.00     0.145 C 
ATOM     14  C   UNL     1      26.958  33.169  17.997  1.00  0.00     0.142 C 
BRANCH  10  15
ATOM     15  O   UNL     1      27.091  31.087  20.272  1.00  0.00    -0.357 OA
ATOM     16  H   UNL     1      26.842  31.891  20.798  1.00  0.00     0.214 HD
ENDBRANCH  10  15
BRANCH  10  17
ATOM     17  C   UNL     1      29.380  30.621  20.192  1.00  0.00     0.364 C 
ATOM     18  O   UNL     1      29.441  30.433  21.439  1.00  0.00    -0.246 OA
BRANCH  17  19
ATOM     19  O   UNL     1      30.361  30.056  19.402  1.00  0.00    -0.477 OA
ATOM     20  H   UNL     1      30.157  29.295  18.783  1.00  0.00     0.296 HD
ENDBRANCH  17  19
ENDBRANCH  10  17
BRANCH  13  21
ATOM     21  O   UNL     1      26.348  33.656  20.275  1.00  0.00    -0.391 OA
ATOM     22  H   UNL     1      25.747  34.421  20.139  1.00  0.00     0.211 HD
ENDBRANCH  13  21
BRANCH  14  23
ATOM     23  N   UNL     1      26.804  34.360  17.157  1.00  0.00    -0.348 N 
ATOM     24  C   UNL     1      25.578  35.066  17.130  1.00  0.00     0.217 C 
ATOM     25  H   UNL     1      27.614  34.680  16.578  1.00  0.00     0.163 HD
ATOM     26  C   UNL     1      25.435  36.279  16.264  1.00  0.00     0.114 C 
ATOM     27  O   UNL     1      24.564  34.725  17.815  1.00  0.00    -0.275 OA
ENDBRANCH  14  23
ENDBRANCH   8   9
BRANCH   8  28
ATOM     28  O   UNL     1      28.078  32.969  15.214  1.00  0.00    -0.388 OA
ATOM     29  H   UNL     1      27.328  32.947  14.557  1.00  0.00     0.211 HD
ENDBRANCH   8  28
ENDBRANCH   7   8
BRANCH   7  30
ATOM     30  O   UNL     1      28.455  29.538  16.126  1.00  0.00    -0.388 OA
ATOM     31  H   UNL     1      29.168  29.061  16.596  1.00  0.00     0.211 HD
ENDBRANCH   7  30
ENDBRANCH   6   7
ENDBRANCH   3   6
ENDBRANCH   1   2
BRANCH   1  32
ATOM     32  C   UNL     1      31.800  35.424  15.711  1.00  0.00     0.294 C 
BRANCH  32  33
ATOM     33  C   UNL     1      30.528  35.548  14.963  1.00  0.00     0.120 A 
ATOM     34  C   UNL     1      30.301  35.583  13.605  1.00  0.00     0.138 A 
ATOM     35  N   UNL     1      29.301  35.657  15.515  1.00  0.00    -0.132 NA
ATOM     36  N   UNL     1      28.982  35.709  13.361  1.00  0.00    -0.252 N 
ATOM     37  N   UNL     1      28.412  35.750  14.547  1.00  0.00    -0.067 NA
BRANCH  36  38
ATOM     38  C   UNL     1      28.298  35.791  12.112  1.00  0.00     0.152 C 
BRANCH  38  39
ATOM     39  C   UNL     1      27.219  34.792  11.942  1.00  0.00     0.085 C 
BRANCH  39  40
ATOM     40  C   UNL     1      26.055  35.140  11.111  1.00  0.00     0.265 C 
BRANCH  40  41
ATOM     41  N   UNL     1      24.808  35.424  11.693  1.00  0.00    -0.326 N 
ATOM     42  C   UNL     1      24.661  36.705  12.331  1.00  0.00     0.334 C 
BRANCH  41  43
ATOM     43  C   UNL     1      23.840  35.454  10.578  1.00  0.00     0.260 C 
ATOM     44  C   UNL     1      24.439  35.741   9.256  1.00  0.00     0.071 C 
ENDBRANCH  41  43
BRANCH  41  45
ATOM     45  C   UNL     1      24.339  34.412  12.598  1.00  0.00     0.260 C 
ATOM     46  C   UNL     1      22.950  33.944  12.358  1.00  0.00     0.071 C 
ENDBRANCH  41  45
ENDBRANCH  40  41
ENDBRANCH  39  40
ENDBRANCH  38  39
ENDBRANCH  36  38
ENDBRANCH  32  33
ENDBRANCH   1  32
TORSDOF 20
BEGIN_RES LYS A 131
REMARK  4 active torsions:
REMARK  status: ('A' for Active; 'I' for Inactive)
REMARK    1  A    between atoms: CA   and  CB  
REMARK    2  A    between atoms: CB   and  CG  
REMARK    3  A    between atoms: CG   and  CD  
REMARK    4  A    between atoms: CD   and  CE  
ROOT
ATOM      1  CA  LYS A 131      29.867  25.555  16.977  1.00 20.52     0.186 C 
ENDROOT
BRANCH   1   2
ATOM      2  CB  LYS A 131      28.345  25.722  17.026  1.00 20.94     0.034 C 
BRANCH   2   3
ATOM      3  CG  LYS A 131      27.601  24.401  16.899  1.00 22.96     0.005 C 
BRANCH   3   4
ATOM      4  CD  LYS A 131      26.145  24.535  17.249  1.00 24.33     0.041 C 
BRANCH   4   5
ATOM      5  CE  LYS A 131      25.570  23.159  17.568  1.00 26.91     0.338 C 
ATOM      6  NZ  LYS A 131      24.166  23.063  17.103  1.00 27.40     0.618 N 
ENDBRANCH   4   5
ENDBRANCH   3   4
ENDBRANCH   2   3
ENDBRANCH   1   2
END_RES LYS A 131
BEGIN_RES LYS A 135
REMARK  4 active torsions:
REMARK  status: ('A' for Active; 'I' for Inactive)
REMARK    5  A    between atoms: CA   and  CB  
REMARK    6  A    between atoms: CB   and  CG  
REMARK    7  A    between atoms: CG   and  CD  
REMARK    8  A    between atoms: CD   and  CE  
ROOT
ATOM      7  CA  LYS A 135      33.193  34.663   9.290  1.00 25.02     0.186 C 
ENDROOT
BRANCH   7   8
ATOM      8  CB  LYS A 135      32.060  35.360  10.034  1.00 26.63     0.034 C 
BRANCH   8   9
ATOM      9  CG  LYS A 135      30.803  35.508   9.216  1.00 29.45     0.005 C 
BRANCH   9  10
ATOM     10  CD  LYS A 135      30.019  34.205   9.196  1.00 32.00     0.041 C 
BRANCH  10  11
ATOM     11  CE  LYS A 135      28.696  34.391   8.478  1.00 34.25     0.338 C 
ATOM     12  NZ  LYS A 135      28.845  35.293   7.302  1.00 35.99     0.618 N 
ENDBRANCH  10  11
ENDBRANCH   9  10
ENDBRANCH   8   9
ENDBRANCH   7   8
END_RES LYS A 135
