REMARK VINA RESULT:    -5.115      8.262     13.816
REMARK INTER + INTRA:         -16.128
REMARK INTER:                  -9.781
REMARK INTRA:                  -6.347
REMARK UNBOUND:                -6.527
REMARK SMILES CC(=O)N[C@@H]1[C@@H](O)C[C@](O)(C(=O)O)O[C@H]1C(O)[C@H](O)CNC(=O)OCc1cn(-c2ccc(S(=O)(=O)c3ccc(N)cc3)cc2)nn1
REMARK SMILES IDX 21 1 22 2 23 3 20 5 18 6 16 7 15 8 9 9 8 10 14 11 6 12 5 13
REMARK SMILES IDX 10 14 11 16 12 17 13 18 7 20 4 22 2 23 1 25 3 26 17 27 19 29
REMARK SMILES IDX 24 31 25 32 26 33 27 34 46 35 28 36 45 37 29 38 30 39 44 40
REMARK SMILES IDX 31 41 43 42 32 43 33 44 34 45 35 46 36 47 37 48 42 49 38 50
REMARK SMILES IDX 41 51 39 52 40 53
REMARK H PARENT 21 4 10 15 13 19 7 21 4 24 17 28 19 30 40 54 40 55
REMARK Flexibility Score: inf
ROOT
ATOM      1  N   UNL     1      25.476  39.545   6.654  1.00  0.00    -0.319 N 
ATOM      2  C   UNL     1      25.402  40.219   7.896  1.00  0.00     0.407 C 
ATOM      3  O   UNL     1      26.397  40.798   8.347  1.00  0.00    -0.225 OA
ATOM      4  H   UNL     1      24.569  39.077   6.343  1.00  0.00     0.167 HD
ENDROOT
BRANCH   1   5
ATOM      5  C   UNL     1      26.653  39.456   5.822  1.00  0.00     0.154 C 
BRANCH   5   6
ATOM      6  C   UNL     1      27.391  38.202   6.142  1.00  0.00     0.165 C 
BRANCH   6   7
ATOM      7  C   UNL     1      28.890  38.404   6.228  1.00  0.00     0.176 C 
BRANCH   7   8
ATOM      8  C   UNL     1      29.469  38.190   7.585  1.00  0.00     0.178 C 
ATOM      9  C   UNL     1      28.932  38.676   9.786  1.00  0.00     0.269 C 
ATOM     10  C   UNL     1      30.326  38.303  10.186  1.00  0.00     0.112 C 
ATOM     11  O   UNL     1      28.532  38.109   8.590  1.00  0.00    -0.332 OA
ATOM     12  C   UNL     1      31.336  38.422   9.103  1.00  0.00     0.145 C 
ATOM     13  C   UNL     1      30.648  39.079   7.894  1.00  0.00     0.142 C 
BRANCH   9  14
ATOM     14  O   UNL     1      28.755  40.078   9.781  1.00  0.00    -0.357 OA
ATOM     15  H   UNL     1      29.521  40.483   9.340  1.00  0.00     0.214 HD
ENDBRANCH   9  14
BRANCH   9  16
ATOM     16  C   UNL     1      28.010  38.161  10.842  1.00  0.00     0.364 C 
ATOM     17  O   UNL     1      27.512  38.988  11.667  1.00  0.00    -0.246 OA
BRANCH  16  18
ATOM     18  O   UNL     1      27.661  36.842  10.980  1.00  0.00    -0.477 OA
ATOM     19  H   UNL     1      27.327  36.309  10.180  1.00  0.00     0.296 HD
ENDBRANCH  16  18
ENDBRANCH   9  16
BRANCH  12  20
ATOM     20  O   UNL     1      32.468  39.135   9.468  1.00  0.00    -0.391 OA
ATOM     21  H   UNL     1      33.183  39.000   8.768  1.00  0.00     0.211 HD
ENDBRANCH  12  20
BRANCH  13  22
ATOM     22  N   UNL     1      31.560  39.011   6.759  1.00  0.00    -0.348 N 
ATOM     23  C   UNL     1      32.023  40.203   6.148  1.00  0.00     0.217 C 
ATOM     24  H   UNL     1      31.895  38.106   6.367  1.00  0.00     0.163 HD
ATOM     25  C   UNL     1      32.963  40.168   4.972  1.00  0.00     0.114 C 
ATOM     26  O   UNL     1      31.684  41.340   6.540  1.00  0.00    -0.275 OA
ENDBRANCH  13  22
ENDBRANCH   7   8
BRANCH   7  27
ATOM     27  O   UNL     1      29.442  37.538   5.276  1.00  0.00    -0.388 OA
ATOM     28  H   UNL     1      30.408  37.700   5.248  1.00  0.00     0.211 HD
ENDBRANCH   7  27
ENDBRANCH   6   7
BRANCH   6  29
ATOM     29  O   UNL     1      27.029  37.174   5.285  1.00  0.00    -0.388 OA
ATOM     30  H   UNL     1      27.843  36.665   5.041  1.00  0.00     0.211 HD
ENDBRANCH   6  29
ENDBRANCH   5   6
ENDBRANCH   1   5
BRANCH   2  31
ATOM     31  O   UNL     1      24.240  40.269   8.659  1.00  0.00    -0.443 OA
BRANCH  31  32
ATOM     32  C   UNL     1      24.179  39.734   9.973  1.00  0.00     0.294 C 
BRANCH  32  33
ATOM     33  C   UNL     1      24.432  38.266   9.986  1.00  0.00     0.121 A 
ATOM     34  C   UNL     1      24.053  37.429  11.000  1.00  0.00     0.144 A 
ATOM     35  N   UNL     1      25.047  37.515   9.061  1.00  0.00    -0.131 NA
ATOM     36  N   UNL     1      24.447  36.177  10.669  1.00  0.00    -0.220 N 
ATOM     37  N   UNL     1      25.033  36.276   9.509  1.00  0.00    -0.062 NA
BRANCH  36  38
ATOM     38  C   UNL     1      24.218  35.046  11.493  1.00  0.00     0.066 A 
ATOM     39  C   UNL     1      25.271  34.432  12.137  1.00  0.00     0.030 A 
ATOM     40  C   UNL     1      22.962  34.515  11.687  1.00  0.00     0.030 A 
ATOM     41  C   UNL     1      25.093  33.326  12.951  1.00  0.00     0.023 A 
ATOM     42  C   UNL     1      22.770  33.398  12.507  1.00  0.00     0.023 A 
ATOM     43  C   UNL     1      23.836  32.804  13.138  1.00  0.00     0.072 A 
BRANCH  43  44
ATOM     44  S   UNL     1      23.614  31.424  14.154  1.00  0.00     0.206 S 
ATOM     45  O   UNL     1      23.407  31.859  15.565  1.00  0.00    -0.219 OA
ATOM     46  O   UNL     1      24.790  30.492  14.126  1.00  0.00    -0.219 OA
BRANCH  44  47
ATOM     47  C   UNL     1      22.222  30.533  13.548  1.00  0.00     0.072 A 
ATOM     48  C   UNL     1      21.001  30.738  14.134  1.00  0.00     0.023 A 
ATOM     49  C   UNL     1      22.338  29.633  12.493  1.00  0.00     0.023 A 
ATOM     50  C   UNL     1      19.876  30.057  13.687  1.00  0.00     0.027 A 
ATOM     51  C   UNL     1      21.235  28.937  12.023  1.00  0.00     0.027 A 
ATOM     52  C   UNL     1      20.028  29.171  12.638  1.00  0.00     0.031 A 
BRANCH  52  53
ATOM     53  N   UNL     1      18.891  28.471  12.175  1.00  0.00    -0.399 N 
ATOM     54  H   UNL     1      18.033  28.983  11.911  1.00  0.00     0.156 HD
ATOM     55  H   UNL     1      18.924  27.440  12.102  1.00  0.00     0.156 HD
ENDBRANCH  52  53
ENDBRANCH  44  47
ENDBRANCH  43  44
ENDBRANCH  36  38
ENDBRANCH  32  33
ENDBRANCH  31  32
ENDBRANCH   2  31
TORSDOF 18
BEGIN_RES LYS A 131
REMARK  4 active torsions:
REMARK  status: ('A' for Active; 'I' for Inactive)
REMARK    1  A    between atoms: CA   and  CB  
REMARK    2  A    between atoms: CB   and  CG  
REMARK    3  A    between atoms: CG   and  CD  
REMARK    4  A    between atoms: CD   and  CE  
ROOT
ATOM      1  CA  LYS A 131      29.867  25.555  16.977  1.00 20.52     0.186 C 
ENDROOT
BRANCH   1   2
ATOM      2  CB  LYS A 131      28.345  25.722  17.026  1.00 20.94     0.034 C 
BRANCH   2   3
ATOM      3  CG  LYS A 131      27.601  24.403  16.886  1.00 22.96     0.005 C 
BRANCH   3   4
ATOM      4  CD  LYS A 131      26.550  24.230  17.947  1.00 24.33     0.041 C 
BRANCH   4   5
ATOM      5  CE  LYS A 131      25.166  24.367  17.320  1.00 26.91     0.338 C 
ATOM      6  NZ  LYS A 131      24.599  25.707  17.603  1.00 27.40     0.618 N 
ENDBRANCH   4   5
ENDBRANCH   3   4
ENDBRANCH   2   3
ENDBRANCH   1   2
END_RES LYS A 131
BEGIN_RES LYS A 135
REMARK  4 active torsions:
REMARK  status: ('A' for Active; 'I' for Inactive)
REMARK    5  A    between atoms: CA   and  CB  
REMARK    6  A    between atoms: CB   and  CG  
REMARK    7  A    between atoms: CG   and  CD  
REMARK    8  A    between atoms: CD   and  CE  
ROOT
ATOM      7  CA  LYS A 135      33.193  34.663   9.290  1.00 25.02     0.186 C 
ENDROOT
BRANCH   7   8
ATOM      8  CB  LYS A 135      32.060  35.360  10.034  1.00 26.63     0.034 C 
BRANCH   8   9
ATOM      9  CG  LYS A 135      30.726  34.677   9.876  1.00 29.45     0.005 C 
BRANCH   9  10
ATOM     10  CD  LYS A 135      30.300  34.661   8.416  1.00 32.00     0.041 C 
BRANCH  10  11
ATOM     11  CE  LYS A 135      28.792  34.548   8.302  1.00 34.25     0.338 C 
ATOM     12  NZ  LYS A 135      28.220  33.816   9.466  1.00 35.99     0.618 N 
ENDBRANCH  10  11
ENDBRANCH   9  10
ENDBRANCH   8   9
ENDBRANCH   7   8
END_RES LYS A 135
