REMARK VINA RESULT:    -4.795      5.516      9.420
REMARK INTER + INTRA:         -14.765
REMARK INTER:                  -8.809
REMARK INTRA:                  -5.956
REMARK UNBOUND:                -6.187
REMARK SMILES CC(=O)N[C@@H]1[C@@H](O)C[C@](O)(C(=O)O)O[C@H]1C(O)[C@H](O)CNC(=O)OCc1cn(-c2cc(Cl)ccc2C(=O)N(C)C)nn1
REMARK SMILES IDX 21 1 22 2 23 3 20 5 18 6 16 7 15 8 9 9 8 10 14 11 6 12 5 13
REMARK SMILES IDX 10 14 11 16 12 17 13 18 7 20 4 22 2 23 1 25 3 26 17 27 19 29
REMARK SMILES IDX 24 31 25 32 26 33 27 34 42 35 28 36 41 37 29 38 30 39 35 40
REMARK SMILES IDX 31 41 34 42 32 43 33 44 36 45 37 46 38 47 39 48 40 49
REMARK H PARENT 21 4 10 15 13 19 7 21 4 24 17 28 19 30
REMARK Flexibility Score: inf
ROOT
ATOM      1  N   UNL     1      33.047  39.288  17.007  1.00  0.00    -0.319 N 
ATOM      2  C   UNL     1      33.705  38.715  18.106  1.00  0.00     0.407 C 
ATOM      3  O   UNL     1      33.118  38.598  19.200  1.00  0.00    -0.225 OA
ATOM      4  H   UNL     1      33.547  39.378  16.094  1.00  0.00     0.167 HD
ENDROOT
BRANCH   1   5
ATOM      5  C   UNL     1      31.692  39.767  17.080  1.00  0.00     0.154 C 
BRANCH   5   6
ATOM      6  C   UNL     1      30.742  38.686  16.631  1.00  0.00     0.165 C 
BRANCH   6   7
ATOM      7  C   UNL     1      30.785  38.458  15.141  1.00  0.00     0.176 C 
BRANCH   7   8
ATOM      8  C   UNL     1      31.264  37.092  14.827  1.00  0.00     0.178 C 
ATOM      9  C   UNL     1      32.520  35.279  15.456  1.00  0.00     0.269 C 
ATOM     10  C   UNL     1      31.719  34.646  14.347  1.00  0.00     0.112 C 
ATOM     11  O   UNL     1      32.313  36.628  15.603  1.00  0.00    -0.332 OA
ATOM     12  C   UNL     1      31.708  35.452  13.090  1.00  0.00     0.145 C 
ATOM     13  C   UNL     1      31.711  36.952  13.372  1.00  0.00     0.142 C 
BRANCH   9  14
ATOM     14  O   UNL     1      33.881  35.119  15.140  1.00  0.00    -0.357 OA
ATOM     15  H   UNL     1      34.132  34.216  15.504  1.00  0.00     0.214 HD
ENDBRANCH   9  14
BRANCH   9  16
ATOM     16  C   UNL     1      32.261  34.629  16.746  1.00  0.00     0.364 C 
ATOM     17  O   UNL     1      31.736  33.490  16.773  1.00  0.00    -0.246 OA
BRANCH  16  18
ATOM     18  O   UNL     1      32.562  35.196  17.974  1.00  0.00    -0.477 OA
ATOM     19  H   UNL     1      32.123  34.763  18.802  1.00  0.00     0.296 HD
ENDBRANCH  16  18
ENDBRANCH   9  16
BRANCH  12  20
ATOM     20  O   UNL     1      32.835  35.093  12.324  1.00  0.00    -0.391 OA
ATOM     21  H   UNL     1      33.409  34.553  12.932  1.00  0.00     0.211 HD
ENDBRANCH  12  20
BRANCH  13  22
ATOM     22  N   UNL     1      30.873  37.675  12.477  1.00  0.00    -0.348 N 
ATOM     23  C   UNL     1      31.336  38.018  11.182  1.00  0.00     0.217 C 
ATOM     24  H   UNL     1      29.914  37.965  12.747  1.00  0.00     0.163 HD
ATOM     25  C   UNL     1      30.415  38.782  10.273  1.00  0.00     0.114 C 
ATOM     26  O   UNL     1      32.464  37.726  10.745  1.00  0.00    -0.275 OA
ENDBRANCH  13  22
ENDBRANCH   7   8
BRANCH   7  27
ATOM     27  O   UNL     1      31.461  39.486  14.532  1.00  0.00    -0.388 OA
ATOM     28  H   UNL     1      31.507  40.246  15.194  1.00  0.00     0.211 HD
ENDBRANCH   7  27
ENDBRANCH   6   7
BRANCH   6  29
ATOM     29  O   UNL     1      29.402  39.086  16.923  1.00  0.00    -0.388 OA
ATOM     30  H   UNL     1      28.930  38.388  17.421  1.00  0.00     0.211 HD
ENDBRANCH   6  29
ENDBRANCH   5   6
ENDBRANCH   1   5
BRANCH   2  31
ATOM     31  O   UNL     1      35.016  38.251  18.056  1.00  0.00    -0.443 OA
BRANCH  31  32
ATOM     32  C   UNL     1      35.367  37.079  18.764  1.00  0.00     0.294 C 
BRANCH  32  33
ATOM     33  C   UNL     1      36.312  36.257  17.995  1.00  0.00     0.121 A 
ATOM     34  C   UNL     1      36.632  36.301  16.654  1.00  0.00     0.144 A 
ATOM     35  N   UNL     1      37.064  35.268  18.504  1.00  0.00    -0.131 NA
ATOM     36  N   UNL     1      37.562  35.347  16.384  1.00  0.00    -0.219 N 
ATOM     37  N   UNL     1      37.792  34.749  17.528  1.00  0.00    -0.062 NA
BRANCH  36  38
ATOM     38  C   UNL     1      38.169  35.045  15.135  1.00  0.00     0.081 A 
ATOM     39  C   UNL     1      37.520  34.242  14.208  1.00  0.00     0.049 A 
ATOM     40  C   UNL     1      39.412  35.558  14.849  1.00  0.00     0.065 A 
ATOM     41  C   UNL     1      38.088  33.939  12.996  1.00  0.00     0.043 A 
ATOM     42  C   UNL     1      40.015  35.273  13.636  1.00  0.00     0.017 A 
ATOM     43  Cl  UNL     1      37.274  32.920  11.811  1.00  0.00    -0.084 Cl
ATOM     44  C   UNL     1      39.336  34.463  12.726  1.00  0.00     0.021 A 
BRANCH  40  45
ATOM     45  C   UNL     1      40.074  36.393  15.824  1.00  0.00     0.255 C 
ATOM     46  O   UNL     1      40.800  35.931  16.750  1.00  0.00    -0.269 OA
ATOM     47  N   UNL     1      39.923  37.798  15.766  1.00  0.00    -0.345 N 
ATOM     48  C   UNL     1      39.104  38.370  14.725  1.00  0.00     0.146 C 
ATOM     49  C   UNL     1      40.567  38.687  16.721  1.00  0.00     0.146 C 
ENDBRANCH  40  45
ENDBRANCH  36  38
ENDBRANCH  32  33
ENDBRANCH  31  32
ENDBRANCH   2  31
TORSDOF 16
BEGIN_RES LYS A 131
REMARK  4 active torsions:
REMARK  status: ('A' for Active; 'I' for Inactive)
REMARK    1  A    between atoms: CA   and  CB  
REMARK    2  A    between atoms: CB   and  CG  
REMARK    3  A    between atoms: CG   and  CD  
REMARK    4  A    between atoms: CD   and  CE  
ROOT
ATOM      1  CA  LYS A 131      29.867  25.555  16.977  1.00 20.52     0.186 C 
ENDROOT
BRANCH   1   2
ATOM      2  CB  LYS A 131      28.345  25.722  17.026  1.00 20.94     0.034 C 
BRANCH   2   3
ATOM      3  CG  LYS A 131      27.601  24.403  16.880  1.00 22.96     0.005 C 
BRANCH   3   4
ATOM      4  CD  LYS A 131      26.154  24.524  17.269  1.00 24.33     0.041 C 
BRANCH   4   5
ATOM      5  CE  LYS A 131      25.653  23.180  17.789  1.00 26.91     0.338 C 
ATOM      6  NZ  LYS A 131      24.315  22.873  17.229  1.00 27.40     0.618 N 
ENDBRANCH   4   5
ENDBRANCH   3   4
ENDBRANCH   2   3
ENDBRANCH   1   2
END_RES LYS A 131
BEGIN_RES LYS A 135
REMARK  4 active torsions:
REMARK  status: ('A' for Active; 'I' for Inactive)
REMARK    5  A    between atoms: CA   and  CB  
REMARK    6  A    between atoms: CB   and  CG  
REMARK    7  A    between atoms: CG   and  CD  
REMARK    8  A    between atoms: CD   and  CE  
ROOT
ATOM      7  CA  LYS A 135      33.193  34.663   9.290  1.00 25.02     0.186 C 
ENDROOT
BRANCH   7   8
ATOM      8  CB  LYS A 135      32.060  35.360  10.034  1.00 26.63     0.034 C 
BRANCH   8   9
ATOM      9  CG  LYS A 135      30.698  34.795   9.723  1.00 29.45     0.005 C 
BRANCH   9  10
ATOM     10  CD  LYS A 135      30.524  34.609   8.224  1.00 32.00     0.041 C 
BRANCH  10  11
ATOM     11  CE  LYS A 135      29.089  34.880   7.816  1.00 34.25     0.338 C 
ATOM     12  NZ  LYS A 135      29.028  35.588   6.507  1.00 35.99     0.618 N 
ENDBRANCH  10  11
ENDBRANCH   9  10
ENDBRANCH   8   9
ENDBRANCH   7   8
END_RES LYS A 135
