REMARK VINA RESULT:    -4.844      7.023     12.067
REMARK INTER + INTRA:         -15.425
REMARK INTER:                  -7.572
REMARK INTRA:                  -7.854
REMARK UNBOUND:                -5.909
REMARK SMILES CC(=O)N[C@@H]1[C@@H](O)C[C@](O)(C(=O)O)O[C@H]1C(O)[C@H](O)CNC(=O)OCc1cn(CCNC(=O)NCc2ccco2)nn1
REMARK SMILES IDX 24 1 22 2 21 3 23 5 20 6 18 7 16 8 15 9 9 10 8 11 14 12 6 13
REMARK SMILES IDX 5 14 10 15 11 17 12 18 13 19 7 21 4 23 2 24 1 26 3 27 17 28
REMARK SMILES IDX 19 30 25 32 26 33 27 34 42 35 28 36 41 37 29 38 30 39 31 40
REMARK SMILES IDX 32 41 33 43 34 44 35 46 36 47 37 48 40 49 38 50 39 51
REMARK H PARENT 21 4 10 16 13 20 7 22 4 25 17 29 19 31 31 42 34 45
REMARK Flexibility Score: inf
ROOT
ATOM      1  O   UNL     1      22.835  36.532  14.125  1.00  0.00    -0.443 OA
ENDROOT
BRANCH   1   2
ATOM      2  C   UNL     1      24.196  36.662  14.384  1.00  0.00     0.407 C 
ATOM      3  N   UNL     1      25.094  35.588  14.468  1.00  0.00    -0.319 N 
ATOM      4  H   UNL     1      24.757  34.624  14.333  1.00  0.00     0.167 HD
ATOM      5  O   UNL     1      24.642  37.827  14.555  1.00  0.00    -0.225 OA
BRANCH   3   6
ATOM      6  C   UNL     1      26.511  35.839  14.747  1.00  0.00     0.154 C 
BRANCH   6   7
ATOM      7  C   UNL     1      27.323  35.425  13.549  1.00  0.00     0.165 C 
BRANCH   7   8
ATOM      8  C   UNL     1      27.484  36.537  12.550  1.00  0.00     0.176 C 
BRANCH   8   9
ATOM      9  C   UNL     1      28.920  36.795  12.194  1.00  0.00     0.178 C 
ATOM     10  C   UNL     1      31.021  36.711  13.212  1.00  0.00     0.269 C 
ATOM     11  C   UNL     1      31.574  37.706  12.245  1.00  0.00     0.112 C 
ATOM     12  O   UNL     1      29.674  36.738  13.380  1.00  0.00    -0.332 OA
ATOM     13  C   UNL     1      30.641  38.175  11.203  1.00  0.00     0.145 C 
ATOM     14  C   UNL     1      29.190  38.176  11.650  1.00  0.00     0.142 C 
BRANCH  10  15
ATOM     15  O   UNL     1      31.581  37.059  14.469  1.00  0.00    -0.357 OA
ATOM     16  H   UNL     1      30.932  36.902  15.198  1.00  0.00     0.214 HD
ENDBRANCH  10  15
BRANCH  10  17
ATOM     17  C   UNL     1      31.462  35.323  12.929  1.00  0.00     0.364 C 
ATOM     18  O   UNL     1      30.798  34.324  13.327  1.00  0.00    -0.246 OA
BRANCH  17  19
ATOM     19  O   UNL     1      32.620  35.033  12.218  1.00  0.00    -0.477 OA
ATOM     20  H   UNL     1      33.527  35.143  12.660  1.00  0.00     0.296 HD
ENDBRANCH  17  19
ENDBRANCH  10  17
BRANCH  13  21
ATOM     21  O   UNL     1      31.006  39.472  10.784  1.00  0.00    -0.391 OA
ATOM     22  H   UNL     1      30.467  39.773  10.025  1.00  0.00     0.211 HD
ENDBRANCH  13  21
BRANCH  14  23
ATOM     23  N   UNL     1      28.338  38.606  10.596  1.00  0.00    -0.348 N 
ATOM     24  C   UNL     1      27.599  39.819  10.759  1.00  0.00     0.217 C 
ATOM     25  H   UNL     1      28.212  38.102   9.693  1.00  0.00     0.163 HD
ATOM     26  C   UNL     1      26.687  40.350   9.723  1.00  0.00     0.114 C 
ATOM     27  O   UNL     1      27.715  40.484  11.829  1.00  0.00    -0.275 OA
ENDBRANCH  14  23
ENDBRANCH   8   9
BRANCH   8  28
ATOM     28  O   UNL     1      26.641  36.431  11.459  1.00  0.00    -0.388 OA
ATOM     29  H   UNL     1      27.112  36.286  10.600  1.00  0.00     0.211 HD
ENDBRANCH   8  28
ENDBRANCH   7   8
BRANCH   7  30
ATOM     30  O   UNL     1      26.542  34.440  12.885  1.00  0.00    -0.388 OA
ATOM     31  H   UNL     1      27.117  34.167  12.105  1.00  0.00     0.211 HD
ENDBRANCH   7  30
ENDBRANCH   6   7
ENDBRANCH   3   6
ENDBRANCH   1   2
BRANCH   1  32
ATOM     32  C   UNL     1      22.329  35.449  13.375  1.00  0.00     0.294 C 
BRANCH  32  33
ATOM     33  C   UNL     1      22.835  35.569  11.990  1.00  0.00     0.120 A 
ATOM     34  C   UNL     1      22.287  36.300  10.971  1.00  0.00     0.138 A 
ATOM     35  N   UNL     1      23.931  34.975  11.493  1.00  0.00    -0.132 NA
ATOM     36  N   UNL     1      23.063  36.131   9.885  1.00  0.00    -0.250 N 
ATOM     37  N   UNL     1      24.062  35.325  10.207  1.00  0.00    -0.067 NA
BRANCH  36  38
ATOM     38  C   UNL     1      22.866  36.722   8.559  1.00  0.00     0.167 C 
BRANCH  38  39
ATOM     39  C   UNL     1      23.746  37.942   8.473  1.00  0.00     0.141 C 
BRANCH  39  40
ATOM     40  N   UNL     1      24.623  37.819   7.337  1.00  0.00    -0.336 N 
ATOM     41  C   UNL     1      25.962  37.366   7.408  1.00  0.00     0.315 C 
ATOM     42  H   UNL     1      24.270  38.078   6.372  1.00  0.00     0.165 HD
ATOM     43  O   UNL     1      26.426  37.043   8.543  1.00  0.00    -0.249 OA
ATOM     44  N   UNL     1      26.748  37.283   6.229  1.00  0.00    -0.331 N 
ATOM     45  H   UNL     1      26.394  37.541   5.290  1.00  0.00     0.165 HD
BRANCH  44  46
ATOM     46  C   UNL     1      28.111  36.816   6.341  1.00  0.00     0.193 C 
BRANCH  46  47
ATOM     47  C   UNL     1      28.988  37.983   6.577  1.00  0.00     0.122 A 
ATOM     48  C   UNL     1      29.530  38.763   5.562  1.00  0.00     0.047 A 
ATOM     49  O   UNL     1      29.381  38.453   7.719  1.00  0.00    -0.467 OA
ATOM     50  C   UNL     1      30.274  39.731   6.201  1.00  0.00     0.042 A 
ATOM     51  C   UNL     1      30.145  39.489   7.553  1.00  0.00     0.195 A 
ENDBRANCH  46  47
ENDBRANCH  44  46
ENDBRANCH  39  40
ENDBRANCH  38  39
ENDBRANCH  36  38
ENDBRANCH  32  33
ENDBRANCH   1  32
TORSDOF 19
BEGIN_RES LYS A 131
REMARK  4 active torsions:
REMARK  status: ('A' for Active; 'I' for Inactive)
REMARK    1  A    between atoms: CA   and  CB  
REMARK    2  A    between atoms: CB   and  CG  
REMARK    3  A    between atoms: CG   and  CD  
REMARK    4  A    between atoms: CD   and  CE  
ROOT
ATOM      1  CA  LYS A 131      29.867  25.555  16.977  1.00 20.52     0.186 C 
ENDROOT
BRANCH   1   2
ATOM      2  CB  LYS A 131      28.345  25.722  17.026  1.00 20.94     0.034 C 
BRANCH   2   3
ATOM      3  CG  LYS A 131      27.601  24.406  16.861  1.00 22.96     0.005 C 
BRANCH   3   4
ATOM      4  CD  LYS A 131      26.647  24.149  17.995  1.00 24.33     0.041 C 
BRANCH   4   5
ATOM      5  CE  LYS A 131      25.843  25.413  18.281  1.00 26.91     0.338 C 
ATOM      6  NZ  LYS A 131      25.921  25.764  19.719  1.00 27.40     0.618 N 
ENDBRANCH   4   5
ENDBRANCH   3   4
ENDBRANCH   2   3
ENDBRANCH   1   2
END_RES LYS A 131
BEGIN_RES LYS A 135
REMARK  4 active torsions:
REMARK  status: ('A' for Active; 'I' for Inactive)
REMARK    5  A    between atoms: CA   and  CB  
REMARK    6  A    between atoms: CB   and  CG  
REMARK    7  A    between atoms: CG   and  CD  
REMARK    8  A    between atoms: CD   and  CE  
ROOT
ATOM      7  CA  LYS A 135      33.193  34.663   9.290  1.00 25.02     0.186 C 
ENDROOT
BRANCH   7   8
ATOM      8  CB  LYS A 135      32.060  35.360  10.034  1.00 26.63     0.034 C 
BRANCH   8   9
ATOM      9  CG  LYS A 135      30.793  35.479   9.227  1.00 29.45     0.005 C 
BRANCH   9  10
ATOM     10  CD  LYS A 135      30.114  34.125   9.091  1.00 32.00     0.041 C 
BRANCH  10  11
ATOM     11  CE  LYS A 135      28.659  34.296   8.697  1.00 34.25     0.338 C 
ATOM     12  NZ  LYS A 135      27.753  33.717   9.727  1.00 35.99     0.618 N 
ENDBRANCH  10  11
ENDBRANCH   9  10
ENDBRANCH   8   9
ENDBRANCH   7   8
END_RES LYS A 135
