REMARK VINA RESULT:    -4.207      3.930      6.907
REMARK INTER + INTRA:         -15.752
REMARK INTER:                  -7.680
REMARK INTRA:                  -8.072
REMARK UNBOUND:                -7.118
REMARK SMILES CC(=O)N[C@@H]1[C@@H](O)C[C@](O)(C(=O)O)O[C@H]1C(O)[C@H](O)CNC(=O)OCc1cn(C[C@H](CC(=O)O)CC(C)C)nn1
REMARK SMILES IDX 24 1 22 2 21 3 23 5 20 6 18 7 16 8 15 9 9 10 8 11 14 12 6 13
REMARK SMILES IDX 5 14 10 15 11 17 12 18 13 19 7 21 4 23 2 24 1 26 3 27 17 28
REMARK SMILES IDX 19 30 25 32 26 33 27 34 40 35 28 36 39 37 29 38 30 39 31 40
REMARK SMILES IDX 32 41 33 42 34 43 35 45 36 46 37 47 38 48
REMARK H PARENT 21 4 10 16 13 20 7 22 4 25 17 29 19 31 34 44
REMARK Flexibility Score: inf
ROOT
ATOM      1  O   UNL     1      25.875  36.387  18.360  1.00  0.00    -0.443 OA
ENDROOT
BRANCH   1   2
ATOM      2  C   UNL     1      25.180  35.298  17.805  1.00  0.00     0.407 C 
ATOM      3  N   UNL     1      24.618  35.367  16.507  1.00  0.00    -0.319 N 
ATOM      4  H   UNL     1      24.759  36.289  15.986  1.00  0.00     0.167 HD
ATOM      5  O   UNL     1      25.073  34.258  18.499  1.00  0.00    -0.225 OA
BRANCH   3   6
ATOM      6  C   UNL     1      23.892  34.281  15.890  1.00  0.00     0.154 C 
BRANCH   6   7
ATOM      7  C   UNL     1      24.559  33.896  14.616  1.00  0.00     0.165 C 
BRANCH   7   8
ATOM      8  C   UNL     1      25.627  32.827  14.784  1.00  0.00     0.176 C 
BRANCH   8   9
ATOM      9  C   UNL     1      25.223  31.795  15.789  1.00  0.00     0.178 C 
ATOM     10  C   UNL     1      26.758  30.333  16.738  1.00  0.00     0.269 C 
ATOM     11  C   UNL     1      25.793  29.173  16.781  1.00  0.00     0.112 C 
ATOM     12  O   UNL     1      26.118  31.562  16.791  1.00  0.00    -0.332 OA
ATOM     13  C   UNL     1      24.425  29.560  16.259  1.00  0.00     0.145 C 
ATOM     14  C   UNL     1      24.700  30.535  15.106  1.00  0.00     0.142 C 
BRANCH  10  15
ATOM     15  O   UNL     1      27.609  30.234  15.634  1.00  0.00    -0.357 OA
ATOM     16  H   UNL     1      27.460  30.929  14.965  1.00  0.00     0.214 HD
ENDBRANCH  10  15
BRANCH  10  17
ATOM     17  C   UNL     1      27.613  30.239  17.950  1.00  0.00     0.364 C 
ATOM     18  O   UNL     1      28.344  31.229  18.261  1.00  0.00    -0.246 OA
BRANCH  17  19
ATOM     19  O   UNL     1      27.660  29.130  18.768  1.00  0.00    -0.477 OA
ATOM     20  H   UNL     1      28.299  28.356  18.527  1.00  0.00     0.296 HD
ENDBRANCH  17  19
ENDBRANCH  10  17
BRANCH  13  21
ATOM     21  O   UNL     1      23.670  28.484  15.863  1.00  0.00    -0.391 OA
ATOM     22  H   UNL     1      24.316  27.763  15.587  1.00  0.00     0.211 HD
ENDBRANCH  13  21
BRANCH  14  23
ATOM     23  N   UNL     1      23.481  30.856  14.405  1.00  0.00    -0.348 N 
ATOM     24  C   UNL     1      23.141  30.186  13.190  1.00  0.00     0.217 C 
ATOM     25  H   UNL     1      22.797  31.579  14.739  1.00  0.00     0.163 HD
ATOM     26  C   UNL     1      21.903  30.491  12.449  1.00  0.00     0.114 C 
ATOM     27  O   UNL     1      23.916  29.310  12.732  1.00  0.00    -0.275 OA
ENDBRANCH  14  23
ENDBRANCH   8   9
BRANCH   8  28
ATOM     28  O   UNL     1      26.858  33.397  15.013  1.00  0.00    -0.388 OA
ATOM     29  H   UNL     1      27.418  32.761  15.504  1.00  0.00     0.211 HD
ENDBRANCH   8  28
ENDBRANCH   7   8
BRANCH   7  30
ATOM     30  O   UNL     1      25.206  35.041  14.092  1.00  0.00    -0.388 OA
ATOM     31  H   UNL     1      24.589  35.576  13.544  1.00  0.00     0.211 HD
ENDBRANCH   7  30
ENDBRANCH   6   7
ENDBRANCH   3   6
ENDBRANCH   1   2
BRANCH   1  32
ATOM     32  C   UNL     1      26.520  37.265  17.472  1.00  0.00     0.294 C 
BRANCH  32  33
ATOM     33  C   UNL     1      27.673  36.640  16.801  1.00  0.00     0.120 A 
ATOM     34  C   UNL     1      28.943  36.359  17.283  1.00  0.00     0.138 A 
ATOM     35  N   UNL     1      27.685  36.211  15.533  1.00  0.00    -0.132 NA
ATOM     36  N   UNL     1      29.664  35.780  16.308  1.00  0.00    -0.252 N 
ATOM     37  N   UNL     1      28.882  35.702  15.261  1.00  0.00    -0.067 NA
BRANCH  36  38
ATOM     38  C   UNL     1      31.077  35.334  16.446  1.00  0.00     0.150 C 
BRANCH  38  39
ATOM     39  C   UNL     1      31.395  34.341  15.383  1.00  0.00     0.022 C 
BRANCH  39  40
ATOM     40  C   UNL     1      31.598  32.993  16.053  1.00  0.00     0.128 C 
BRANCH  40  41
ATOM     41  C   UNL     1      30.483  32.088  15.678  1.00  0.00     0.303 C 
ATOM     42  O   UNL     1      29.549  32.484  14.959  1.00  0.00    -0.252 OA
BRANCH  41  43
ATOM     43  O   UNL     1      30.526  30.778  16.165  1.00  0.00    -0.481 OA
ATOM     44  H   UNL     1      31.319  30.202  15.961  1.00  0.00     0.296 HD
ENDBRANCH  41  43
ENDBRANCH  40  41
ENDBRANCH  39  40
BRANCH  39  45
ATOM     45  C   UNL     1      32.493  34.759  14.495  1.00  0.00     0.009 C 
BRANCH  45  46
ATOM     46  C   UNL     1      32.149  35.392  13.201  1.00  0.00    -0.017 C 
ATOM     47  C   UNL     1      30.839  34.697  12.735  1.00  0.00     0.007 C 
ATOM     48  C   UNL     1      31.880  36.858  13.208  1.00  0.00     0.007 C 
ENDBRANCH  45  46
ENDBRANCH  39  45
ENDBRANCH  38  39
ENDBRANCH  36  38
ENDBRANCH  32  33
ENDBRANCH   1  32
TORSDOF 21
BEGIN_RES LYS A 131
REMARK  4 active torsions:
REMARK  status: ('A' for Active; 'I' for Inactive)
REMARK    1  A    between atoms: CA   and  CB  
REMARK    2  A    between atoms: CB   and  CG  
REMARK    3  A    between atoms: CG   and  CD  
REMARK    4  A    between atoms: CD   and  CE  
ROOT
ATOM      1  CA  LYS A 131      29.867  25.555  16.977  1.00 20.52     0.186 C 
ENDROOT
BRANCH   1   2
ATOM      2  CB  LYS A 131      28.345  25.722  17.026  1.00 20.94     0.034 C 
BRANCH   2   3
ATOM      3  CG  LYS A 131      27.601  24.404  16.874  1.00 22.96     0.005 C 
BRANCH   3   4
ATOM      4  CD  LYS A 131      26.652  24.155  18.013  1.00 24.33     0.041 C 
BRANCH   4   5
ATOM      5  CE  LYS A 131      25.394  23.470  17.488  1.00 26.91     0.338 C 
ATOM      6  NZ  LYS A 131      24.510  24.453  16.818  1.00 27.40     0.618 N 
ENDBRANCH   4   5
ENDBRANCH   3   4
ENDBRANCH   2   3
ENDBRANCH   1   2
END_RES LYS A 131
BEGIN_RES LYS A 135
REMARK  4 active torsions:
REMARK  status: ('A' for Active; 'I' for Inactive)
REMARK    5  A    between atoms: CA   and  CB  
REMARK    6  A    between atoms: CB   and  CG  
REMARK    7  A    between atoms: CG   and  CD  
REMARK    8  A    between atoms: CD   and  CE  
ROOT
ATOM      7  CA  LYS A 135      33.193  34.663   9.290  1.00 25.02     0.186 C 
ENDROOT
BRANCH   7   8
ATOM      8  CB  LYS A 135      32.060  35.360  10.034  1.00 26.63     0.034 C 
BRANCH   8   9
ATOM      9  CG  LYS A 135      30.802  35.505   9.217  1.00 29.45     0.005 C 
BRANCH   9  10
ATOM     10  CD  LYS A 135      30.149  34.150   8.991  1.00 32.00     0.041 C 
BRANCH  10  11
ATOM     11  CE  LYS A 135      28.685  34.318   8.631  1.00 34.25     0.338 C 
ATOM     12  NZ  LYS A 135      27.807  33.669   9.643  1.00 35.99     0.618 N 
ENDBRANCH  10  11
ENDBRANCH   9  10
ENDBRANCH   8   9
ENDBRANCH   7   8
END_RES LYS A 135
