REMARK VINA RESULT:    -4.457      4.323      7.306
REMARK INTER + INTRA:         -13.501
REMARK INTER:                  -6.780
REMARK INTRA:                  -6.721
REMARK UNBOUND:                -5.786
REMARK SMILES CC(=O)N[C@@H]1[C@@H](O)C[C@](O)(C(=O)O)O[C@H]1C(O)[C@H](O)CNC(=O)OCc1cn(C2CCN(C)CC2)nn1
REMARK SMILES IDX 20 1 18 2 16 3 15 4 9 5 8 6 14 7 6 8 5 9 10 10 11 12 12 13
REMARK SMILES IDX 13 14 7 16 4 18 2 19 1 21 3 22 17 23 19 25 21 27 22 28 23 30
REMARK SMILES IDX 24 31 25 32 26 33 27 34 37 35 28 36 36 37 29 38 30 39 35 40
REMARK SMILES IDX 31 41 34 42 32 43 33 44
REMARK H PARENT 10 11 13 15 7 17 4 20 17 24 19 26 21 29
REMARK Flexibility Score: inf
ROOT
ATOM      1  C   UNL     1      29.888  30.974  16.560  1.00  0.00     0.154 C 
ENDROOT
BRANCH   1   2
ATOM      2  C   UNL     1      30.830  32.012  16.050  1.00  0.00     0.165 C 
BRANCH   2   3
ATOM      3  C   UNL     1      30.689  33.334  16.775  1.00  0.00     0.176 C 
BRANCH   3   4
ATOM      4  C   UNL     1      31.250  34.448  15.916  1.00  0.00     0.178 C 
ATOM      5  C   UNL     1      33.066  35.076  14.589  1.00  0.00     0.269 C 
ATOM      6  C   UNL     1      33.099  36.429  15.232  1.00  0.00     0.112 C 
ATOM      7  O   UNL     1      32.397  34.104  15.273  1.00  0.00    -0.332 OA
ATOM      8  C   UNL     1      31.753  36.809  15.788  1.00  0.00     0.145 C 
ATOM      9  C   UNL     1      31.338  35.692  16.742  1.00  0.00     0.142 C 
BRANCH   5  10
ATOM     10  O   UNL     1      34.413  34.688  14.345  1.00  0.00    -0.357 OA
ATOM     11  H   UNL     1      34.806  34.250  15.139  1.00  0.00     0.214 HD
ENDBRANCH   5  10
BRANCH   5  12
ATOM     12  C   UNL     1      32.414  35.210  13.261  1.00  0.00     0.364 C 
ATOM     13  O   UNL     1      32.745  36.148  12.494  1.00  0.00    -0.246 OA
BRANCH  12  14
ATOM     14  O   UNL     1      31.435  34.354  12.780  1.00  0.00    -0.477 OA
ATOM     15  H   UNL     1      31.531  33.339  12.806  1.00  0.00     0.296 HD
ENDBRANCH  12  14
ENDBRANCH   5  12
BRANCH   8  16
ATOM     16  O   UNL     1      31.806  38.018  16.487  1.00  0.00    -0.391 OA
ATOM     17  H   UNL     1      31.240  38.014  17.289  1.00  0.00     0.211 HD
ENDBRANCH   8  16
BRANCH   9  18
ATOM     18  N   UNL     1      30.000  36.079  17.206  1.00  0.00    -0.348 N 
ATOM     19  C   UNL     1      29.681  36.186  18.574  1.00  0.00     0.217 C 
ATOM     20  H   UNL     1      29.299  36.271  16.478  1.00  0.00     0.163 HD
ATOM     21  C   UNL     1      28.304  36.584  19.033  1.00  0.00     0.114 C 
ATOM     22  O   UNL     1      30.580  35.939  19.419  1.00  0.00    -0.275 OA
ENDBRANCH   9  18
ENDBRANCH   3   4
BRANCH   3  23
ATOM     23  O   UNL     1      31.314  33.238  17.996  1.00  0.00    -0.388 OA
ATOM     24  H   UNL     1      30.765  33.658  18.707  1.00  0.00     0.211 HD
ENDBRANCH   3  23
ENDBRANCH   2   3
BRANCH   2  25
ATOM     25  O   UNL     1      30.532  32.242  14.686  1.00  0.00    -0.388 OA
ATOM     26  H   UNL     1      30.350  31.386  14.216  1.00  0.00     0.211 HD
ENDBRANCH   2  25
ENDBRANCH   1   2
BRANCH   1  27
ATOM     27  N   UNL     1      28.700  31.632  17.060  1.00  0.00    -0.319 N 
ATOM     28  C   UNL     1      27.374  31.298  16.673  1.00  0.00     0.407 C 
ATOM     29  H   UNL     1      28.756  32.427  17.766  1.00  0.00     0.167 HD
ATOM     30  O   UNL     1      27.193  30.383  15.856  1.00  0.00    -0.225 OA
BRANCH  28  31
ATOM     31  O   UNL     1      26.263  31.960  17.181  1.00  0.00    -0.443 OA
BRANCH  31  32
ATOM     32  C   UNL     1      25.539  32.871  16.377  1.00  0.00     0.294 C 
BRANCH  32  33
ATOM     33  C   UNL     1      26.463  33.740  15.605  1.00  0.00     0.120 A 
ATOM     34  C   UNL     1      26.618  33.821  14.250  1.00  0.00     0.138 A 
ATOM     35  N   UNL     1      27.334  34.624  16.125  1.00  0.00    -0.132 NA
ATOM     36  N   UNL     1      27.563  34.734  13.971  1.00  0.00    -0.249 N 
ATOM     37  N   UNL     1      27.980  35.208  15.149  1.00  0.00    -0.067 NA
BRANCH  36  38
ATOM     38  C   UNL     1      28.019  35.114  12.653  1.00  0.00     0.111 C 
ATOM     39  C   UNL     1      28.660  36.483  12.662  1.00  0.00     0.043 C 
ATOM     40  C   UNL     1      26.922  35.000  11.637  1.00  0.00     0.043 C 
ATOM     41  C   UNL     1      27.646  37.597  12.552  1.00  0.00     0.086 C 
ATOM     42  C   UNL     1      25.960  36.147  11.647  1.00  0.00     0.086 C 
ATOM     43  N   UNL     1      26.684  37.374  11.514  1.00  0.00    -0.306 NA
ATOM     44  C   UNL     1      27.241  37.472  10.195  1.00  0.00     0.105 C 
ENDBRANCH  36  38
ENDBRANCH  32  33
ENDBRANCH  31  32
ENDBRANCH  28  31
ENDBRANCH   1  27
TORSDOF 15
BEGIN_RES LYS A 131
REMARK  4 active torsions:
REMARK  status: ('A' for Active; 'I' for Inactive)
REMARK    1  A    between atoms: CA   and  CB  
REMARK    2  A    between atoms: CB   and  CG  
REMARK    3  A    between atoms: CG   and  CD  
REMARK    4  A    between atoms: CD   and  CE  
ROOT
ATOM      1  CA  LYS A 131      29.867  25.555  16.977  1.00 20.52     0.186 C 
ENDROOT
BRANCH   1   2
ATOM      2  CB  LYS A 131      28.345  25.722  17.026  1.00 20.94     0.034 C 
BRANCH   2   3
ATOM      3  CG  LYS A 131      27.602  24.398  16.932  1.00 22.96     0.005 C 
BRANCH   3   4
ATOM      4  CD  LYS A 131      26.205  24.493  17.479  1.00 24.33     0.041 C 
BRANCH   4   5
ATOM      5  CE  LYS A 131      25.978  25.886  18.057  1.00 26.91     0.338 C 
ATOM      6  NZ  LYS A 131      24.610  26.361  17.741  1.00 27.40     0.618 N 
ENDBRANCH   4   5
ENDBRANCH   3   4
ENDBRANCH   2   3
ENDBRANCH   1   2
END_RES LYS A 131
BEGIN_RES LYS A 135
REMARK  4 active torsions:
REMARK  status: ('A' for Active; 'I' for Inactive)
REMARK    5  A    between atoms: CA   and  CB  
REMARK    6  A    between atoms: CB   and  CG  
REMARK    7  A    between atoms: CG   and  CD  
REMARK    8  A    between atoms: CD   and  CE  
ROOT
ATOM      7  CA  LYS A 135      33.193  34.663   9.290  1.00 25.02     0.186 C 
ENDROOT
BRANCH   7   8
ATOM      8  CB  LYS A 135      32.060  35.360  10.034  1.00 26.63     0.034 C 
BRANCH   8   9
ATOM      9  CG  LYS A 135      30.690  34.872   9.639  1.00 29.45     0.005 C 
BRANCH   9  10
ATOM     10  CD  LYS A 135      30.648  34.533   8.157  1.00 32.00     0.041 C 
BRANCH  10  11
ATOM     11  CE  LYS A 135      29.348  35.009   7.538  1.00 34.25     0.338 C 
ATOM     12  NZ  LYS A 135      28.175  34.552   8.335  1.00 35.99     0.618 N 
ENDBRANCH  10  11
ENDBRANCH   9  10
ENDBRANCH   8   9
ENDBRANCH   7   8
END_RES LYS A 135
