REMARK VINA RESULT:    -5.207      2.652      6.947
REMARK INTER + INTRA:         -16.750
REMARK INTER:                  -8.859
REMARK INTRA:                  -7.891
REMARK UNBOUND:                -5.759
REMARK SMILES CC(=O)N[C@@H]1[C@@H](O)C[C@](O)(C(=O)O)O[C@H]1C(O)[C@H](O)CNC(=O)OCc1cn(CC(=O)NCC(O)Cn2ccnc2[N+](=O)[O-])nn1
REMARK SMILES IDX 25 1 24 2 22 3 21 4 23 6 20 7 18 8 16 9 15 10 9 11 8 12
REMARK SMILES IDX 14 13 6 14 5 15 10 16 11 18 12 19 13 20 7 22 4 24 2 25 1 27
REMARK SMILES IDX 3 28 17 29 19 31 26 33 27 34 46 35 28 36 45 37 29 38 30 39
REMARK SMILES IDX 31 40 32 41 33 43 34 44 35 45 36 47 37 48 38 49 41 50 39 51
REMARK SMILES IDX 40 52 42 53 43 54 44 55
REMARK H PARENT 21 5 10 17 13 21 7 23 4 26 17 30 19 32 32 42 35 46
REMARK Flexibility Score: inf
ROOT
ATOM      1  C   UNL     1      23.622  39.135   7.188  1.00  0.00     0.294 C 
ENDROOT
BRANCH   1   2
ATOM      2  O   UNL     1      24.623  40.129   7.091  1.00  0.00    -0.443 OA
BRANCH   2   3
ATOM      3  C   UNL     1      25.516  40.162   6.035  1.00  0.00     0.407 C 
ATOM      4  N   UNL     1      26.655  39.287   5.995  1.00  0.00    -0.319 N 
ATOM      5  H   UNL     1      26.767  38.644   6.804  1.00  0.00     0.167 HD
ATOM      6  O   UNL     1      25.313  40.970   5.113  1.00  0.00    -0.225 OA
BRANCH   4   7
ATOM      7  C   UNL     1      27.596  39.276   4.929  1.00  0.00     0.154 C 
BRANCH   7   8
ATOM      8  C   UNL     1      28.698  40.269   5.061  1.00  0.00     0.165 C 
BRANCH   8   9
ATOM      9  C   UNL     1      29.790  39.680   5.939  1.00  0.00     0.176 C 
BRANCH   9  10
ATOM     10  C   UNL     1      30.548  40.721   6.698  1.00  0.00     0.178 C 
ATOM     11  C   UNL     1      32.634  39.896   7.328  1.00  0.00     0.269 C 
ATOM     12  C   UNL     1      32.627  40.513   8.720  1.00  0.00     0.112 C 
ATOM     13  O   UNL     1      31.892  40.626   6.442  1.00  0.00    -0.332 OA
ATOM     14  C   UNL     1      31.421  41.431   8.864  1.00  0.00     0.145 C 
ATOM     15  C   UNL     1      30.262  40.712   8.164  1.00  0.00     0.142 C 
BRANCH  11  16
ATOM     16  O   UNL     1      32.087  38.634   7.467  1.00  0.00    -0.357 OA
ATOM     17  H   UNL     1      31.822  38.466   8.407  1.00  0.00     0.214 HD
ENDBRANCH  11  16
BRANCH  11  18
ATOM     18  C   UNL     1      34.018  39.743   6.811  1.00  0.00     0.364 C 
ATOM     19  O   UNL     1      34.891  40.644   6.966  1.00  0.00    -0.246 OA
BRANCH  18  20
ATOM     20  O   UNL     1      34.407  38.597   6.138  1.00  0.00    -0.477 OA
ATOM     21  H   UNL     1      35.239  38.498   5.585  1.00  0.00     0.296 HD
ENDBRANCH  18  20
ENDBRANCH  11  18
BRANCH  14  22
ATOM     22  O   UNL     1      31.171  41.584  10.216  1.00  0.00    -0.391 OA
ATOM     23  H   UNL     1      30.470  40.982  10.554  1.00  0.00     0.211 HD
ENDBRANCH  14  22
BRANCH  15  24
ATOM     24  N   UNL     1      29.012  41.393   8.473  1.00  0.00    -0.348 N 
ATOM     25  C   UNL     1      27.951  40.666   9.049  1.00  0.00     0.217 C 
ATOM     26  H   UNL     1      28.914  42.390   8.267  1.00  0.00     0.163 HD
ATOM     27  C   UNL     1      26.639  41.332   9.386  1.00  0.00     0.114 C 
ATOM     28  O   UNL     1      28.015  39.443   9.315  1.00  0.00    -0.275 OA
ENDBRANCH  15  24
ENDBRANCH   9  10
BRANCH   9  29
ATOM     29  O   UNL     1      29.274  38.747   6.824  1.00  0.00    -0.388 OA
ATOM     30  H   UNL     1      29.872  38.541   7.565  1.00  0.00     0.211 HD
ENDBRANCH   9  29
ENDBRANCH   8   9
BRANCH   8  31
ATOM     31  O   UNL     1      28.314  41.495   5.578  1.00  0.00    -0.388 OA
ATOM     32  H   UNL     1      27.748  41.407   6.392  1.00  0.00     0.211 HD
ENDBRANCH   8  31
ENDBRANCH   7   8
ENDBRANCH   4   7
ENDBRANCH   2   3
ENDBRANCH   1   2
BRANCH   1  33
ATOM     33  C   UNL     1      24.172  38.098   8.094  1.00  0.00     0.120 A 
ATOM     34  C   UNL     1      23.779  37.928   9.403  1.00  0.00     0.138 A 
ATOM     35  N   UNL     1      25.105  37.154   7.899  1.00  0.00    -0.132 NA
ATOM     36  N   UNL     1      24.476  36.895   9.971  1.00  0.00    -0.243 N 
ATOM     37  N   UNL     1      25.272  36.446   9.032  1.00  0.00    -0.067 NA
BRANCH  36  38
ATOM     38  C   UNL     1      24.272  36.498  11.347  1.00  0.00     0.245 C 
BRANCH  38  39
ATOM     39  C   UNL     1      25.367  35.498  11.664  1.00  0.00     0.241 C 
ATOM     40  O   UNL     1      25.076  34.308  11.909  1.00  0.00    -0.273 OA
ATOM     41  N   UNL     1      26.717  35.858  11.696  1.00  0.00    -0.352 N 
ATOM     42  H   UNL     1      26.878  36.907  11.449  1.00  0.00     0.163 HD
BRANCH  41  43
ATOM     43  C   UNL     1      27.865  35.084  11.996  1.00  0.00     0.151 C 
BRANCH  43  44
ATOM     44  C   UNL     1      28.562  35.250  13.269  1.00  0.00     0.168 C 
BRANCH  44  45
ATOM     45  O   UNL     1      29.393  34.145  13.596  1.00  0.00    -0.388 OA
ATOM     46  H   UNL     1      29.574  34.150  14.567  1.00  0.00     0.211 HD
ENDBRANCH  44  45
BRANCH  44  47
ATOM     47  C   UNL     1      29.092  36.553  13.703  1.00  0.00     0.239 C 
BRANCH  47  48
ATOM     48  N   UNL     1      30.078  37.111  12.797  1.00  0.00    -0.227 N 
ATOM     49  C   UNL     1      29.811  37.923  11.743  1.00  0.00     0.204 A 
ATOM     50  C   UNL     1      31.405  36.900  12.846  1.00  0.00     0.434 A 
ATOM     51  C   UNL     1      31.026  38.202  11.144  1.00  0.00     0.245 A 
ATOM     52  N   UNL     1      31.995  37.578  11.815  1.00  0.00    -0.074 NA
BRANCH  50  53
ATOM     53  N   UNL     1      32.155  36.127  13.767  1.00  0.00    -0.047 N 
ATOM     54  O   UNL     1      32.363  34.911  13.479  1.00  0.00    -0.390 OA
ATOM     55  O   UNL     1      32.676  36.558  14.939  1.00  0.00    -0.390 OA
ENDBRANCH  50  53
ENDBRANCH  47  48
ENDBRANCH  44  47
ENDBRANCH  43  44
ENDBRANCH  41  43
ENDBRANCH  38  39
ENDBRANCH  36  38
ENDBRANCH   1  33
TORSDOF 22
BEGIN_RES LYS A 131
REMARK  4 active torsions:
REMARK  status: ('A' for Active; 'I' for Inactive)
REMARK    1  A    between atoms: CA   and  CB  
REMARK    2  A    between atoms: CB   and  CG  
REMARK    3  A    between atoms: CG   and  CD  
REMARK    4  A    between atoms: CD   and  CE  
ROOT
ATOM      1  CA  LYS A 131      29.867  25.555  16.977  1.00 20.52     0.186 C 
ENDROOT
BRANCH   1   2
ATOM      2  CB  LYS A 131      28.345  25.722  17.026  1.00 20.94     0.034 C 
BRANCH   2   3
ATOM      3  CG  LYS A 131      27.599  24.434  16.714  1.00 22.96     0.005 C 
BRANCH   3   4
ATOM      4  CD  LYS A 131      26.997  23.815  17.945  1.00 24.33     0.041 C 
BRANCH   4   5
ATOM      5  CE  LYS A 131      25.578  23.346  17.637  1.00 26.91     0.338 C 
ATOM      6  NZ  LYS A 131      24.839  24.387  16.884  1.00 27.40     0.618 N 
ENDBRANCH   4   5
ENDBRANCH   3   4
ENDBRANCH   2   3
ENDBRANCH   1   2
END_RES LYS A 131
BEGIN_RES LYS A 135
REMARK  4 active torsions:
REMARK  status: ('A' for Active; 'I' for Inactive)
REMARK    5  A    between atoms: CA   and  CB  
REMARK    6  A    between atoms: CB   and  CG  
REMARK    7  A    between atoms: CG   and  CD  
REMARK    8  A    between atoms: CD   and  CE  
ROOT
ATOM      7  CA  LYS A 135      33.193  34.663   9.290  1.00 25.02     0.186 C 
ENDROOT
BRANCH   7   8
ATOM      8  CB  LYS A 135      32.060  35.360  10.034  1.00 26.63     0.034 C 
BRANCH   8   9
ATOM      9  CG  LYS A 135      30.701  34.778   9.743  1.00 29.45     0.005 C 
BRANCH   9  10
ATOM     10  CD  LYS A 135      30.549  34.484   8.259  1.00 32.00     0.041 C 
BRANCH  10  11
ATOM     11  CE  LYS A 135      29.259  35.080   7.727  1.00 34.25     0.338 C 
ATOM     12  NZ  LYS A 135      28.074  34.483   8.404  1.00 35.99     0.618 N 
ENDBRANCH  10  11
ENDBRANCH   9  10
ENDBRANCH   8   9
ENDBRANCH   7   8
END_RES LYS A 135
