REMARK VINA RESULT:    -4.330      3.933      8.134
REMARK INTER + INTRA:         -14.551
REMARK INTER:                  -8.296
REMARK INTRA:                  -6.256
REMARK UNBOUND:                -6.804
REMARK SMILES CC(=O)N[C@@H]1[C@@H](O)C[C@](O)(C(=O)O)O[C@H]1C(O)[C@H](O)CNC(=O)OCc1cn(-c2ccccc2C(C)=O)nn1
REMARK SMILES IDX 21 1 22 2 23 3 20 5 18 6 16 7 15 8 9 9 8 10 14 11 6 12 5 13
REMARK SMILES IDX 10 14 11 16 12 17 13 18 7 20 4 22 2 23 1 25 3 26 17 27 19 29
REMARK SMILES IDX 24 31 25 32 26 33 27 34 39 35 28 36 38 37 29 38 34 39 30 40
REMARK SMILES IDX 33 41 31 42 32 43 35 44 37 45 36 46
REMARK H PARENT 21 4 10 15 13 19 7 21 4 24 17 28 19 30
REMARK Flexibility Score: inf
ROOT
ATOM      1  N   UNL     1      26.107  30.791  19.229  1.00  0.00    -0.319 N 
ATOM      2  C   UNL     1      26.146  30.173  17.931  1.00  0.00     0.407 C 
ATOM      3  O   UNL     1      26.475  28.965  17.847  1.00  0.00    -0.225 OA
ATOM      4  H   UNL     1      25.823  31.790  19.258  1.00  0.00     0.167 HD
ENDROOT
BRANCH   1   5
ATOM      5  C   UNL     1      26.454  30.031  20.393  1.00  0.00     0.154 C 
BRANCH   5   6
ATOM      6  C   UNL     1      27.830  30.236  20.937  1.00  0.00     0.165 C 
BRANCH   6   7
ATOM      7  C   UNL     1      28.839  29.233  20.462  1.00  0.00     0.176 C 
BRANCH   7   8
ATOM      8  C   UNL     1      29.922  28.914  21.458  1.00  0.00     0.178 C 
ATOM      9  C   UNL     1      32.132  29.310  21.999  1.00  0.00     0.269 C 
ATOM     10  C   UNL     1      32.491  27.837  22.048  1.00  0.00     0.112 C 
ATOM     11  O   UNL     1      31.098  29.511  21.159  1.00  0.00    -0.332 OA
ATOM     12  C   UNL     1      31.480  26.989  21.352  1.00  0.00     0.145 C 
ATOM     13  C   UNL     1      30.079  27.415  21.586  1.00  0.00     0.142 C 
BRANCH   9  14
ATOM     14  O   UNL     1      33.311  29.924  21.453  1.00  0.00    -0.357 OA
ATOM     15  H   UNL     1      33.038  30.472  20.653  1.00  0.00     0.214 HD
ENDBRANCH   9  14
BRANCH   9  16
ATOM     16  C   UNL     1      32.031  29.834  23.365  1.00  0.00     0.364 C 
ATOM     17  O   UNL     1      31.634  29.154  24.339  1.00  0.00    -0.246 OA
BRANCH  16  18
ATOM     18  O   UNL     1      32.382  31.153  23.660  1.00  0.00    -0.477 OA
ATOM     19  H   UNL     1      33.090  31.352  24.357  1.00  0.00     0.296 HD
ENDBRANCH  16  18
ENDBRANCH   9  16
BRANCH  12  20
ATOM     20  O   UNL     1      31.740  27.045  19.972  1.00  0.00    -0.391 OA
ATOM     21  H   UNL     1      31.369  27.856  19.549  1.00  0.00     0.211 HD
ENDBRANCH  12  20
BRANCH  13  22
ATOM     22  N   UNL     1      29.553  26.873  22.799  1.00  0.00    -0.348 N 
ATOM     23  C   UNL     1      28.162  26.668  23.017  1.00  0.00     0.217 C 
ATOM     24  H   UNL     1      30.203  26.610  23.563  1.00  0.00     0.163 HD
ATOM     25  C   UNL     1      27.667  26.101  24.298  1.00  0.00     0.114 C 
ATOM     26  O   UNL     1      27.312  26.957  22.137  1.00  0.00    -0.275 OA
ENDBRANCH  13  22
ENDBRANCH   7   8
BRANCH   7  27
ATOM     27  O   UNL     1      29.262  29.422  19.171  1.00  0.00    -0.388 OA
ATOM     28  H   UNL     1      29.777  28.601  18.908  1.00  0.00     0.211 HD
ENDBRANCH   7  27
ENDBRANCH   6   7
BRANCH   6  29
ATOM     29  O   UNL     1      27.710  29.995  22.368  1.00  0.00    -0.388 OA
ATOM     30  H   UNL     1      26.726  29.983  22.508  1.00  0.00     0.211 HD
ENDBRANCH   6  29
ENDBRANCH   5   6
ENDBRANCH   1   5
BRANCH   2  31
ATOM     31  O   UNL     1      25.842  30.845  16.772  1.00  0.00    -0.443 OA
BRANCH  31  32
ATOM     32  C   UNL     1      26.802  31.023  15.733  1.00  0.00     0.294 C 
BRANCH  32  33
ATOM     33  C   UNL     1      28.157  31.278  16.283  1.00  0.00     0.121 A 
ATOM     34  C   UNL     1      28.568  32.315  17.078  1.00  0.00     0.144 A 
ATOM     35  N   UNL     1      29.263  30.508  16.089  1.00  0.00    -0.131 NA
ATOM     36  N   UNL     1      29.906  32.142  17.341  1.00  0.00    -0.220 N 
ATOM     37  N   UNL     1      30.277  31.038  16.722  1.00  0.00    -0.062 NA
BRANCH  36  38
ATOM     38  C   UNL     1      30.771  32.985  18.082  1.00  0.00     0.077 A 
ATOM     39  C   UNL     1      31.458  34.033  17.573  1.00  0.00     0.043 A 
ATOM     40  C   UNL     1      30.867  32.654  19.452  1.00  0.00     0.029 A 
ATOM     41  C   UNL     1      32.268  34.788  18.428  1.00  0.00     0.014 A 
ATOM     42  C   UNL     1      31.665  33.404  20.279  1.00  0.00     0.002 A 
ATOM     43  C   UNL     1      32.354  34.463  19.748  1.00  0.00     0.001 A 
BRANCH  39  44
ATOM     44  C   UNL     1      31.422  34.432  16.183  1.00  0.00     0.161 C 
ATOM     45  O   UNL     1      30.442  35.205  15.832  1.00  0.00    -0.294 OA
ATOM     46  C   UNL     1      32.357  34.070  15.119  1.00  0.00     0.093 C 
ENDBRANCH  39  44
ENDBRANCH  36  38
ENDBRANCH  32  33
ENDBRANCH  31  32
ENDBRANCH   2  31
TORSDOF 16
BEGIN_RES LYS A 131
REMARK  4 active torsions:
REMARK  status: ('A' for Active; 'I' for Inactive)
REMARK    1  A    between atoms: CA   and  CB  
REMARK    2  A    between atoms: CB   and  CG  
REMARK    3  A    between atoms: CG   and  CD  
REMARK    4  A    between atoms: CD   and  CE  
ROOT
ATOM      1  CA  LYS A 131      29.867  25.555  16.977  1.00 20.52     0.186 C 
ENDROOT
BRANCH   1   2
ATOM      2  CB  LYS A 131      28.345  25.722  17.026  1.00 20.94     0.034 C 
BRANCH   2   3
ATOM      3  CG  LYS A 131      27.601  24.403  16.886  1.00 22.96     0.005 C 
BRANCH   3   4
ATOM      4  CD  LYS A 131      26.415  24.321  17.806  1.00 24.33     0.041 C 
BRANCH   4   5
ATOM      5  CE  LYS A 131      26.404  25.533  18.732  1.00 26.91     0.338 C 
ATOM      6  NZ  LYS A 131      25.397  25.358  19.805  1.00 27.40     0.618 N 
ENDBRANCH   4   5
ENDBRANCH   3   4
ENDBRANCH   2   3
ENDBRANCH   1   2
END_RES LYS A 131
BEGIN_RES LYS A 135
REMARK  4 active torsions:
REMARK  status: ('A' for Active; 'I' for Inactive)
REMARK    5  A    between atoms: CA   and  CB  
REMARK    6  A    between atoms: CB   and  CG  
REMARK    7  A    between atoms: CG   and  CD  
REMARK    8  A    between atoms: CD   and  CE  
ROOT
ATOM      7  CA  LYS A 135      33.193  34.663   9.290  1.00 25.02     0.186 C 
ENDROOT
BRANCH   7   8
ATOM      8  CB  LYS A 135      32.060  35.360  10.034  1.00 26.63     0.034 C 
BRANCH   8   9
ATOM      9  CG  LYS A 135      30.714  34.718   9.820  1.00 29.45     0.005 C 
BRANCH   9  10
ATOM     10  CD  LYS A 135      30.468  34.468   8.340  1.00 32.00     0.041 C 
BRANCH  10  11
ATOM     11  CE  LYS A 135      29.037  34.812   7.972  1.00 34.25     0.338 C 
ATOM     12  NZ  LYS A 135      28.075  34.208   8.936  1.00 35.99     0.618 N 
ENDBRANCH  10  11
ENDBRANCH   9  10
ENDBRANCH   8   9
ENDBRANCH   7   8
END_RES LYS A 135
