REMARK VINA RESULT:    -5.076      6.783     11.461
REMARK INTER + INTRA:         -14.868
REMARK INTER:                  -7.636
REMARK INTRA:                  -7.232
REMARK UNBOUND:                -6.084
REMARK SMILES CC(=O)N[C@@H]1[C@@H](O)C[C@](O)(C(=O)O)O[C@H]1C(O)[C@H](O)CNC(=O)OCc1cn(-c2c3ccccc3nc3ccccc23)nn1
REMARK SMILES IDX 20 1 18 2 16 3 15 4 9 5 8 6 14 7 6 8 5 9 10 10 11 12 12 13
REMARK SMILES IDX 13 14 7 16 4 18 2 19 1 21 3 22 17 23 19 25 21 27 22 28 23 30
REMARK SMILES IDX 24 31 25 32 26 33 27 34 44 35 28 36 43 37 29 38 30 39 42 40
REMARK SMILES IDX 31 41 35 42 37 43 41 44 32 45 34 46 36 47 38 48 40 49 33 50
REMARK SMILES IDX 39 51
REMARK H PARENT 10 11 13 15 7 17 4 20 17 24 19 26 21 29
REMARK Flexibility Score: inf
ROOT
ATOM      1  C   UNL     1      27.191  28.639  22.399  1.00  0.00     0.154 C 
ENDROOT
BRANCH   1   2
ATOM      2  C   UNL     1      27.639  29.853  23.167  1.00  0.00     0.165 C 
BRANCH   2   3
ATOM      3  C   UNL     1      29.120  29.737  23.346  1.00  0.00     0.176 C 
BRANCH   3   4
ATOM      4  C   UNL     1      29.925  30.671  22.454  1.00  0.00     0.178 C 
ATOM      5  C   UNL     1      29.576  32.299  20.917  1.00  0.00     0.269 C 
ATOM      6  C   UNL     1      30.451  31.705  19.844  1.00  0.00     0.112 C 
ATOM      7  O   UNL     1      29.005  31.360  21.713  1.00  0.00    -0.332 OA
ATOM      8  C   UNL     1      30.842  30.285  20.130  1.00  0.00     0.145 C 
ATOM      9  C   UNL     1      30.877  29.940  21.581  1.00  0.00     0.142 C 
BRANCH   5  10
ATOM     10  O   UNL     1      28.475  32.953  20.271  1.00  0.00    -0.357 OA
ATOM     11  H   UNL     1      28.666  33.919  20.199  1.00  0.00     0.214 HD
ENDBRANCH   5  10
BRANCH   5  12
ATOM     12  C   UNL     1      30.287  33.399  21.612  1.00  0.00     0.364 C 
ATOM     13  O   UNL     1      31.506  33.641  21.407  1.00  0.00    -0.246 OA
BRANCH  12  14
ATOM     14  O   UNL     1      29.652  34.239  22.541  1.00  0.00    -0.477 OA
ATOM     15  H   UNL     1      29.216  33.833  23.355  1.00  0.00     0.296 HD
ENDBRANCH  12  14
ENDBRANCH   5  12
BRANCH   8  16
ATOM     16  O   UNL     1      29.978  29.436  19.431  1.00  0.00    -0.391 OA
ATOM     17  H   UNL     1      29.766  29.797  18.534  1.00  0.00     0.211 HD
ENDBRANCH   8  16
BRANCH   9  18
ATOM     18  N   UNL     1      32.268  29.997  22.044  1.00  0.00    -0.348 N 
ATOM     19  C   UNL     1      32.966  28.853  22.518  1.00  0.00     0.217 C 
ATOM     20  H   UNL     1      32.809  30.890  22.043  1.00  0.00     0.163 HD
ATOM     21  C   UNL     1      34.385  28.930  22.983  1.00  0.00     0.114 C 
ATOM     22  O   UNL     1      32.388  27.735  22.555  1.00  0.00    -0.275 OA
ENDBRANCH   9  18
ENDBRANCH   3   4
BRANCH   3  23
ATOM     23  O   UNL     1      29.512  28.437  23.068  1.00  0.00    -0.388 OA
ATOM     24  H   UNL     1      30.151  28.470  22.314  1.00  0.00     0.211 HD
ENDBRANCH   3  23
ENDBRANCH   2   3
BRANCH   2  25
ATOM     25  O   UNL     1      26.950  29.950  24.353  1.00  0.00    -0.388 OA
ATOM     26  H   UNL     1      25.980  29.781  24.156  1.00  0.00     0.211 HD
ENDBRANCH   2  25
ENDBRANCH   1   2
BRANCH   1  27
ATOM     27  N   UNL     1      27.582  28.574  21.033  1.00  0.00    -0.319 N 
ATOM     28  C   UNL     1      27.229  27.540  20.142  1.00  0.00     0.407 C 
ATOM     29  H   UNL     1      28.197  29.346  20.589  1.00  0.00     0.167 HD
ATOM     30  O   UNL     1      26.533  26.570  20.505  1.00  0.00    -0.225 OA
BRANCH  28  31
ATOM     31  O   UNL     1      27.639  27.545  18.800  1.00  0.00    -0.443 OA
BRANCH  31  32
ATOM     32  C   UNL     1      26.774  28.049  17.782  1.00  0.00     0.294 C 
BRANCH  32  33
ATOM     33  C   UNL     1      27.056  29.496  17.630  1.00  0.00     0.121 A 
ATOM     34  C   UNL     1      27.312  30.165  16.451  1.00  0.00     0.144 A 
ATOM     35  N   UNL     1      27.124  30.458  18.582  1.00  0.00    -0.131 NA
ATOM     36  N   UNL     1      27.521  31.468  16.702  1.00  0.00    -0.219 N 
ATOM     37  N   UNL     1      27.403  31.626  18.002  1.00  0.00    -0.062 NA
BRANCH  36  38
ATOM     38  C   UNL     1      27.810  32.489  15.771  1.00  0.00     0.085 A 
ATOM     39  C   UNL     1      29.135  32.851  15.509  1.00  0.00     0.027 A 
ATOM     40  C   UNL     1      26.813  33.161  15.084  1.00  0.00     0.027 A 
ATOM     41  C   UNL     1      30.173  32.219  16.160  1.00  0.00     0.012 A 
ATOM     42  C   UNL     1      29.445  33.826  14.614  1.00  0.00     0.073 A 
ATOM     43  C   UNL     1      27.149  34.146  14.181  1.00  0.00     0.073 A 
ATOM     44  C   UNL     1      25.513  32.807  15.343  1.00  0.00     0.012 A 
ATOM     45  C   UNL     1      31.496  32.539  15.938  1.00  0.00     0.001 A 
ATOM     46  C   UNL     1      30.775  34.159  14.379  1.00  0.00     0.029 A 
ATOM     47  N   UNL     1      28.445  34.456  13.966  1.00  0.00    -0.248 NA
ATOM     48  C   UNL     1      26.125  34.787  13.524  1.00  0.00     0.029 A 
ATOM     49  C   UNL     1      24.496  33.477  14.660  1.00  0.00     0.001 A 
ATOM     50  C   UNL     1      31.826  33.541  15.019  1.00  0.00     0.002 A 
ATOM     51  C   UNL     1      24.787  34.468  13.749  1.00  0.00     0.002 A 
ENDBRANCH  36  38
ENDBRANCH  32  33
ENDBRANCH  31  32
ENDBRANCH  28  31
ENDBRANCH   1  27
TORSDOF 15
BEGIN_RES LYS A 131
REMARK  4 active torsions:
REMARK  status: ('A' for Active; 'I' for Inactive)
REMARK    1  A    between atoms: CA   and  CB  
REMARK    2  A    between atoms: CB   and  CG  
REMARK    3  A    between atoms: CG   and  CD  
REMARK    4  A    between atoms: CD   and  CE  
ROOT
ATOM      1  CA  LYS A 131      29.867  25.555  16.977  1.00 20.52     0.186 C 
ENDROOT
BRANCH   1   2
ATOM      2  CB  LYS A 131      28.345  25.722  17.026  1.00 20.94     0.034 C 
BRANCH   2   3
ATOM      3  CG  LYS A 131      27.601  24.401  16.900  1.00 22.96     0.005 C 
BRANCH   3   4
ATOM      4  CD  LYS A 131      26.604  24.205  18.007  1.00 24.33     0.041 C 
BRANCH   4   5
ATOM      5  CE  LYS A 131      25.202  24.515  17.491  1.00 26.91     0.338 C 
ATOM      6  NZ  LYS A 131      24.272  24.747  18.621  1.00 27.40     0.618 N 
ENDBRANCH   4   5
ENDBRANCH   3   4
ENDBRANCH   2   3
ENDBRANCH   1   2
END_RES LYS A 131
BEGIN_RES LYS A 135
REMARK  4 active torsions:
REMARK  status: ('A' for Active; 'I' for Inactive)
REMARK    5  A    between atoms: CA   and  CB  
REMARK    6  A    between atoms: CB   and  CG  
REMARK    7  A    between atoms: CG   and  CD  
REMARK    8  A    between atoms: CD   and  CE  
ROOT
ATOM      7  CA  LYS A 135      33.193  34.663   9.290  1.00 25.02     0.186 C 
ENDROOT
BRANCH   7   8
ATOM      8  CB  LYS A 135      32.060  35.360  10.034  1.00 26.63     0.034 C 
BRANCH   8   9
ATOM      9  CG  LYS A 135      30.720  34.696   9.849  1.00 29.45     0.005 C 
BRANCH   9  10
ATOM     10  CD  LYS A 135      30.381  34.572   8.372  1.00 32.00     0.041 C 
BRANCH  10  11
ATOM     11  CE  LYS A 135      28.878  34.535   8.171  1.00 34.25     0.338 C 
ATOM     12  NZ  LYS A 135      28.182  34.104   9.415  1.00 35.99     0.618 N 
ENDBRANCH  10  11
ENDBRANCH   9  10
ENDBRANCH   8   9
ENDBRANCH   7   8
END_RES LYS A 135
