REMARK VINA RESULT:    -4.940      4.506      8.459
REMARK INTER + INTRA:         -13.829
REMARK INTER:                  -6.766
REMARK INTRA:                  -7.063
REMARK UNBOUND:                -5.134
REMARK SMILES CC(=O)N[C@@H]1[C@@H](O)C[C@](O)(C(=O)O)O[C@H]1C(O)[C@H](O)CNC(=O)OCc1cn(-c2nc(C)nc(N)n2)nn1
REMARK SMILES IDX 21 1 22 2 23 3 20 5 18 6 16 7 15 8 9 9 8 10 14 11 6 12 5 13
REMARK SMILES IDX 10 14 11 16 12 17 13 18 7 20 4 22 2 23 1 25 3 26 17 27 19 29
REMARK SMILES IDX 24 31 25 32 26 33 27 34 38 35 28 36 37 37 29 38 36 39 30 40
REMARK SMILES IDX 34 41 31 42 33 43 32 44 35 45
REMARK H PARENT 21 4 10 15 13 19 7 21 4 24 17 28 19 30 35 46 35 47
REMARK Flexibility Score: inf
ROOT
ATOM      1  N   UNL     1      31.430  37.482  13.187  1.00  0.00    -0.319 N 
ATOM      2  C   UNL     1      30.905  38.633  12.566  1.00  0.00     0.407 C 
ATOM      3  O   UNL     1      31.154  38.969  11.387  1.00  0.00    -0.225 OA
ATOM      4  H   UNL     1      31.191  37.224  14.191  1.00  0.00     0.167 HD
ENDROOT
BRANCH   1   5
ATOM      5  C   UNL     1      32.324  36.614  12.450  1.00  0.00     0.154 C 
BRANCH   5   6
ATOM      6  C   UNL     1      31.948  35.191  12.721  1.00  0.00     0.165 C 
BRANCH   6   7
ATOM      7  C   UNL     1      30.788  35.132  13.694  1.00  0.00     0.176 C 
BRANCH   7   8
ATOM      8  C   UNL     1      31.044  33.983  14.656  1.00  0.00     0.178 C 
ATOM      9  C   UNL     1      29.076  32.969  15.464  1.00  0.00     0.269 C 
ATOM     10  C   UNL     1      29.195  33.690  16.771  1.00  0.00     0.112 C 
ATOM     11  O   UNL     1      30.042  33.110  14.562  1.00  0.00    -0.332 OA
ATOM     12  C   UNL     1      30.676  33.756  17.122  1.00  0.00     0.145 C 
ATOM     13  C   UNL     1      31.275  34.610  16.005  1.00  0.00     0.142 C 
BRANCH   9  14
ATOM     14  O   UNL     1      27.862  33.410  14.886  1.00  0.00    -0.357 OA
ATOM     15  H   UNL     1      27.818  34.393  14.846  1.00  0.00     0.214 HD
ENDBRANCH   9  14
BRANCH   9  16
ATOM     16  C   UNL     1      28.889  31.529  15.772  1.00  0.00     0.364 C 
ATOM     17  O   UNL     1      29.869  30.808  16.092  1.00  0.00    -0.246 OA
BRANCH  16  18
ATOM     18  O   UNL     1      27.647  30.920  15.721  1.00  0.00    -0.477 OA
ATOM     19  H   UNL     1      27.056  30.800  16.547  1.00  0.00     0.296 HD
ENDBRANCH  16  18
ENDBRANCH   9  16
BRANCH  12  20
ATOM     20  O   UNL     1      30.890  34.404  18.322  1.00  0.00    -0.391 OA
ATOM     21  H   UNL     1      31.809  34.796  18.287  1.00  0.00     0.211 HD
ENDBRANCH  12  20
BRANCH  13  22
ATOM     22  N   UNL     1      32.682  34.851  16.236  1.00  0.00    -0.348 N 
ATOM     23  C   UNL     1      33.210  36.167  16.237  1.00  0.00     0.217 C 
ATOM     24  H   UNL     1      33.272  34.003  16.399  1.00  0.00     0.163 HD
ATOM     25  C   UNL     1      34.658  36.345  16.480  1.00  0.00     0.114 C 
ATOM     26  O   UNL     1      32.493  37.173  16.041  1.00  0.00    -0.275 OA
ENDBRANCH  13  22
ENDBRANCH   7   8
BRANCH   7  27
ATOM     27  O   UNL     1      29.605  34.855  12.957  1.00  0.00    -0.388 OA
ATOM     28  H   UNL     1      29.659  35.477  12.176  1.00  0.00     0.211 HD
ENDBRANCH   7  27
ENDBRANCH   6   7
BRANCH   6  29
ATOM     29  O   UNL     1      33.067  34.514  13.229  1.00  0.00    -0.388 OA
ATOM     30  H   UNL     1      33.670  34.245  12.514  1.00  0.00     0.211 HD
ENDBRANCH   6  29
ENDBRANCH   5   6
ENDBRANCH   1   5
BRANCH   2  31
ATOM     31  O   UNL     1      30.045  39.461  13.307  1.00  0.00    -0.443 OA
BRANCH  31  32
ATOM     32  C   UNL     1      28.692  39.519  12.911  1.00  0.00     0.294 C 
BRANCH  32  33
ATOM     33  C   UNL     1      28.020  38.242  13.316  1.00  0.00     0.121 A 
ATOM     34  C   UNL     1      26.985  37.595  12.667  1.00  0.00     0.148 A 
ATOM     35  N   UNL     1      28.282  37.464  14.391  1.00  0.00    -0.131 NA
ATOM     36  N   UNL     1      26.652  36.475  13.339  1.00  0.00    -0.185 N 
ATOM     37  N   UNL     1      27.456  36.424  14.377  1.00  0.00    -0.059 NA
BRANCH  36  38
ATOM     38  C   UNL     1      25.630  35.538  12.981  1.00  0.00     0.257 A 
ATOM     39  N   UNL     1      25.543  34.327  13.562  1.00  0.00    -0.175 NA
ATOM     40  N   UNL     1      24.712  35.842  12.043  1.00  0.00    -0.196 NA
ATOM     41  C   UNL     1      24.601  33.421  13.256  1.00  0.00     0.225 A 
ATOM     42  C   UNL     1      23.735  34.969  11.689  1.00  0.00     0.133 A 
ATOM     43  N   UNL     1      23.700  33.781  12.301  1.00  0.00    -0.198 NA
ATOM     44  C   UNL     1      22.717  35.293  10.654  1.00  0.00     0.090 C 
BRANCH  41  45
ATOM     45  N   UNL     1      24.507  32.152  13.862  1.00  0.00    -0.368 N 
ATOM     46  H   UNL     1      25.070  31.368  13.506  1.00  0.00     0.159 HD
ATOM     47  H   UNL     1      23.872  32.012  14.661  1.00  0.00     0.159 HD
ENDBRANCH  41  45
ENDBRANCH  36  38
ENDBRANCH  32  33
ENDBRANCH  31  32
ENDBRANCH   2  31
TORSDOF 16
BEGIN_RES LYS A 131
REMARK  4 active torsions:
REMARK  status: ('A' for Active; 'I' for Inactive)
REMARK    1  A    between atoms: CA   and  CB  
REMARK    2  A    between atoms: CB   and  CG  
REMARK    3  A    between atoms: CG   and  CD  
REMARK    4  A    between atoms: CD   and  CE  
ROOT
ATOM      1  CA  LYS A 131      29.867  25.555  16.977  1.00 20.52     0.186 C 
ENDROOT
BRANCH   1   2
ATOM      2  CB  LYS A 131      28.345  25.722  17.026  1.00 20.94     0.034 C 
BRANCH   2   3
ATOM      3  CG  LYS A 131      27.600  24.417  16.794  1.00 22.96     0.005 C 
BRANCH   3   4
ATOM      4  CD  LYS A 131      26.556  24.166  17.847  1.00 24.33     0.041 C 
BRANCH   4   5
ATOM      5  CE  LYS A 131      25.173  24.168  17.203  1.00 26.91     0.338 C 
ATOM      6  NZ  LYS A 131      24.515  22.852  17.382  1.00 27.40     0.618 N 
ENDBRANCH   4   5
ENDBRANCH   3   4
ENDBRANCH   2   3
ENDBRANCH   1   2
END_RES LYS A 131
BEGIN_RES LYS A 135
REMARK  4 active torsions:
REMARK  status: ('A' for Active; 'I' for Inactive)
REMARK    5  A    between atoms: CA   and  CB  
REMARK    6  A    between atoms: CB   and  CG  
REMARK    7  A    between atoms: CG   and  CD  
REMARK    8  A    between atoms: CD   and  CE  
ROOT
ATOM      7  CA  LYS A 135      33.193  34.663   9.290  1.00 25.02     0.186 C 
ENDROOT
BRANCH   7   8
ATOM      8  CB  LYS A 135      32.060  35.360  10.034  1.00 26.63     0.034 C 
BRANCH   8   9
ATOM      9  CG  LYS A 135      30.789  35.467   9.232  1.00 29.45     0.005 C 
BRANCH   9  10
ATOM     10  CD  LYS A 135      30.159  34.096   9.039  1.00 32.00     0.041 C 
BRANCH  10  11
ATOM     11  CE  LYS A 135      28.714  34.103   9.499  1.00 34.25     0.338 C 
ATOM     12  NZ  LYS A 135      27.807  34.564   8.412  1.00 35.99     0.618 N 
ENDBRANCH  10  11
ENDBRANCH   9  10
ENDBRANCH   8   9
ENDBRANCH   7   8
END_RES LYS A 135
