REMARK VINA RESULT:    -4.329      5.680      9.958
REMARK INTER + INTRA:         -14.549
REMARK INTER:                  -8.268
REMARK INTRA:                  -6.281
REMARK UNBOUND:                -6.804
REMARK SMILES CC(=O)N[C@@H]1[C@@H](O)C[C@](O)(C(=O)O)O[C@H]1C(O)[C@H](O)CNC(=O)OCc1cn(-c2ccccc2C(C)=O)nn1
REMARK SMILES IDX 21 1 22 2 23 3 20 5 18 6 16 7 15 8 9 9 8 10 14 11 6 12 5 13
REMARK SMILES IDX 10 14 11 16 12 17 13 18 7 20 4 22 2 23 1 25 3 26 17 27 19 29
REMARK SMILES IDX 24 31 25 32 26 33 27 34 39 35 28 36 38 37 29 38 34 39 30 40
REMARK SMILES IDX 33 41 31 42 32 43 35 44 37 45 36 46
REMARK H PARENT 21 4 10 15 13 19 7 21 4 24 17 28 19 30
REMARK Flexibility Score: inf
ROOT
ATOM      1  N   UNL     1      22.207  37.735  13.116  1.00  0.00    -0.319 N 
ATOM      2  C   UNL     1      22.979  36.580  13.484  1.00  0.00     0.407 C 
ATOM      3  O   UNL     1      22.386  35.585  13.966  1.00  0.00    -0.225 OA
ATOM      4  H   UNL     1      22.733  38.536  12.714  1.00  0.00     0.167 HD
ENDROOT
BRANCH   1   5
ATOM      5  C   UNL     1      20.787  37.740  13.317  1.00  0.00     0.154 C 
BRANCH   5   6
ATOM      6  C   UNL     1      19.948  37.320  12.155  1.00  0.00     0.165 C 
BRANCH   6   7
ATOM      7  C   UNL     1      19.801  38.364  11.089  1.00  0.00     0.176 C 
BRANCH   7   8
ATOM      8  C   UNL     1      20.102  37.880   9.694  1.00  0.00     0.178 C 
ATOM      9  C   UNL     1      20.992  36.129   8.481  1.00  0.00     0.269 C 
ATOM     10  C   UNL     1      21.978  37.009   7.737  1.00  0.00     0.112 C 
ATOM     11  O   UNL     1      20.697  36.667   9.681  1.00  0.00    -0.332 OA
ATOM     12  C   UNL     1      22.177  38.324   8.413  1.00  0.00     0.145 C 
ATOM     13  C   UNL     1      20.930  38.912   8.959  1.00  0.00     0.142 C 
BRANCH   9  14
ATOM     14  O   UNL     1      21.717  34.904   8.676  1.00  0.00    -0.357 OA
ATOM     15  H   UNL     1      22.701  35.115   8.654  1.00  0.00     0.214 HD
ENDBRANCH   9  14
BRANCH   9  16
ATOM     16  C   UNL     1      19.884  35.774   7.587  1.00  0.00     0.364 C 
ATOM     17  O   UNL     1      19.057  36.604   7.147  1.00  0.00    -0.246 OA
BRANCH  16  18
ATOM     18  O   UNL     1      19.690  34.456   7.167  1.00  0.00    -0.477 OA
ATOM     19  H   UNL     1      19.178  34.258   6.314  1.00  0.00     0.296 HD
ENDBRANCH  16  18
ENDBRANCH   9  16
BRANCH  12  20
ATOM     20  O   UNL     1      23.084  38.137   9.471  1.00  0.00    -0.391 OA
ATOM     21  H   UNL     1      23.834  37.543   9.227  1.00  0.00     0.211 HD
ENDBRANCH  12  20
BRANCH  13  22
ATOM     22  N   UNL     1      20.207  39.643   7.968  1.00  0.00    -0.348 N 
ATOM     23  C   UNL     1      19.704  40.956   8.186  1.00  0.00     0.217 C 
ATOM     24  H   UNL     1      20.037  39.212   7.040  1.00  0.00     0.163 HD
ATOM     25  C   UNL     1      18.957  41.674   7.120  1.00  0.00     0.114 C 
ATOM     26  O   UNL     1      19.874  41.548   9.282  1.00  0.00    -0.275 OA
ENDBRANCH  13  22
ENDBRANCH   7   8
BRANCH   7  27
ATOM     27  O   UNL     1      20.327  39.587  11.414  1.00  0.00    -0.388 OA
ATOM     28  H   UNL     1      19.570  40.245  11.402  1.00  0.00     0.211 HD
ENDBRANCH   7  27
ENDBRANCH   6   7
BRANCH   6  29
ATOM     29  O   UNL     1      18.609  37.151  12.699  1.00  0.00    -0.388 OA
ATOM     30  H   UNL     1      18.701  36.339  13.265  1.00  0.00     0.211 HD
ENDBRANCH   6  29
ENDBRANCH   5   6
ENDBRANCH   1   5
BRANCH   2  31
ATOM     31  O   UNL     1      24.344  36.513  13.335  1.00  0.00    -0.443 OA
BRANCH  31  32
ATOM     32  C   UNL     1      24.981  35.382  12.748  1.00  0.00     0.294 C 
BRANCH  32  33
ATOM     33  C   UNL     1      25.138  35.547  11.281  1.00  0.00     0.121 A 
ATOM     34  C   UNL     1      26.261  35.907  10.583  1.00  0.00     0.144 A 
ATOM     35  N   UNL     1      24.169  35.368  10.342  1.00  0.00    -0.131 NA
ATOM     36  N   UNL     1      25.939  35.935   9.248  1.00  0.00    -0.220 N 
ATOM     37  N   UNL     1      24.667  35.602   9.155  1.00  0.00    -0.062 NA
BRANCH  36  38
ATOM     38  C   UNL     1      26.764  36.295   8.153  1.00  0.00     0.077 A 
ATOM     39  C   UNL     1      26.962  37.558   7.712  1.00  0.00     0.043 A 
ATOM     40  C   UNL     1      27.407  35.203   7.530  1.00  0.00     0.029 A 
ATOM     41  C   UNL     1      27.817  37.768   6.625  1.00  0.00     0.014 A 
ATOM     42  C   UNL     1      28.243  35.423   6.464  1.00  0.00     0.002 A 
ATOM     43  C   UNL     1      28.433  36.708   6.030  1.00  0.00     0.001 A 
BRANCH  39  44
ATOM     44  C   UNL     1      26.337  38.728   8.288  1.00  0.00     0.161 C 
ATOM     45  O   UNL     1      25.265  39.158   7.697  1.00  0.00    -0.294 OA
ATOM     46  C   UNL     1      26.764  39.492   9.460  1.00  0.00     0.093 C 
ENDBRANCH  39  44
ENDBRANCH  36  38
ENDBRANCH  32  33
ENDBRANCH  31  32
ENDBRANCH   2  31
TORSDOF 16
BEGIN_RES LYS A 131
REMARK  4 active torsions:
REMARK  status: ('A' for Active; 'I' for Inactive)
REMARK    1  A    between atoms: CA   and  CB  
REMARK    2  A    between atoms: CB   and  CG  
REMARK    3  A    between atoms: CG   and  CD  
REMARK    4  A    between atoms: CD   and  CE  
ROOT
ATOM      1  CA  LYS A 131      29.867  25.555  16.977  1.00 20.52     0.186 C 
ENDROOT
BRANCH   1   2
ATOM      2  CB  LYS A 131      28.345  25.722  17.026  1.00 20.94     0.034 C 
BRANCH   2   3
ATOM      3  CG  LYS A 131      27.608  24.396  17.133  1.00 22.96     0.005 C 
BRANCH   3   4
ATOM      4  CD  LYS A 131      26.118  24.566  17.034  1.00 24.33     0.041 C 
BRANCH   4   5
ATOM      5  CE  LYS A 131      25.510  24.561  18.433  1.00 26.91     0.338 C 
ATOM      6  NZ  LYS A 131      25.818  23.289  19.127  1.00 27.40     0.618 N 
ENDBRANCH   4   5
ENDBRANCH   3   4
ENDBRANCH   2   3
ENDBRANCH   1   2
END_RES LYS A 131
BEGIN_RES LYS A 135
REMARK  4 active torsions:
REMARK  status: ('A' for Active; 'I' for Inactive)
REMARK    5  A    between atoms: CA   and  CB  
REMARK    6  A    between atoms: CB   and  CG  
REMARK    7  A    between atoms: CG   and  CD  
REMARK    8  A    between atoms: CD   and  CE  
ROOT
ATOM      7  CA  LYS A 135      33.193  34.663   9.290  1.00 25.02     0.186 C 
ENDROOT
BRANCH   7   8
ATOM      8  CB  LYS A 135      32.060  35.360  10.034  1.00 26.63     0.034 C 
BRANCH   8   9
ATOM      9  CG  LYS A 135      30.716  35.200   9.372  1.00 29.45     0.005 C 
BRANCH   9  10
ATOM     10  CD  LYS A 135      29.657  34.816  10.393  1.00 32.00     0.041 C 
BRANCH  10  11
ATOM     11  CE  LYS A 135      30.089  35.225  11.788  1.00 34.25     0.338 C 
ATOM     12  NZ  LYS A 135      29.274  34.536  12.826  1.00 35.99     0.618 N 
ENDBRANCH  10  11
ENDBRANCH   9  10
ENDBRANCH   8   9
ENDBRANCH   7   8
END_RES LYS A 135
