REMARK VINA RESULT:    -5.024      9.273     14.116
REMARK INTER + INTRA:         -13.977
REMARK INTER:                  -7.442
REMARK INTRA:                  -6.534
REMARK UNBOUND:                -5.134
REMARK SMILES CC(=O)N[C@@H]1[C@@H](O)C[C@](O)(C(=O)O)O[C@H]1C(O)[C@H](O)CNC(=O)OCc1cn(-c2nc(C)nc(N)n2)nn1
REMARK SMILES IDX 21 1 22 2 23 3 20 5 18 6 16 7 15 8 9 9 8 10 14 11 6 12 5 13
REMARK SMILES IDX 10 14 11 16 12 17 13 18 7 20 4 22 2 23 1 25 3 26 17 27 19 29
REMARK SMILES IDX 24 31 25 32 26 33 27 34 38 35 28 36 37 37 29 38 36 39 30 40
REMARK SMILES IDX 34 41 31 42 33 43 32 44 35 45
REMARK H PARENT 21 4 10 15 13 19 7 21 4 24 17 28 19 30 35 46 35 47
REMARK Flexibility Score: inf
ROOT
ATOM      1  N   UNL     1      16.837  32.982   8.874  1.00  0.00    -0.319 N 
ATOM      2  C   UNL     1      17.003  31.596   8.685  1.00  0.00     0.407 C 
ATOM      3  O   UNL     1      17.448  31.080   7.636  1.00  0.00    -0.225 OA
ATOM      4  H   UNL     1      16.460  33.387   9.783  1.00  0.00     0.167 HD
ENDROOT
BRANCH   1   5
ATOM      5  C   UNL     1      17.183  33.898   7.808  1.00  0.00     0.154 C 
BRANCH   5   6
ATOM      6  C   UNL     1      18.589  34.368   8.012  1.00  0.00     0.165 C 
BRANCH   6   7
ATOM      7  C   UNL     1      18.595  35.719   8.698  1.00  0.00     0.176 C 
BRANCH   7   8
ATOM      8  C   UNL     1      19.946  36.368   8.437  1.00  0.00     0.178 C 
ATOM      9  C   UNL     1      21.584  35.817  10.039  1.00  0.00     0.269 C 
ATOM     10  C   UNL     1      21.420  37.140  10.719  1.00  0.00     0.112 C 
ATOM     11  O   UNL     1      20.904  35.579   8.922  1.00  0.00    -0.332 OA
ATOM     12  C   UNL     1      21.185  38.183   9.634  1.00  0.00     0.145 C 
ATOM     13  C   UNL     1      19.859  37.759   9.005  1.00  0.00     0.142 C 
BRANCH   9  14
ATOM     14  O   UNL     1      21.220  34.840  10.996  1.00  0.00    -0.357 OA
ATOM     15  H   UNL     1      20.301  34.980  11.322  1.00  0.00     0.214 HD
ENDBRANCH   9  14
BRANCH   9  16
ATOM     16  C   UNL     1      23.035  35.629   9.787  1.00  0.00     0.364 C 
ATOM     17  O   UNL     1      23.549  35.986   8.696  1.00  0.00    -0.246 OA
BRANCH  16  18
ATOM     18  O   UNL     1      23.878  35.058  10.726  1.00  0.00    -0.477 OA
ATOM     19  H   UNL     1      23.807  34.079  11.010  1.00  0.00     0.296 HD
ENDBRANCH  16  18
ENDBRANCH   9  16
BRANCH  12  20
ATOM     20  O   UNL     1      21.025  39.448  10.166  1.00  0.00    -0.391 OA
ATOM     21  H   UNL     1      21.879  39.944  10.010  1.00  0.00     0.211 HD
ENDBRANCH  12  20
BRANCH  13  22
ATOM     22  N   UNL     1      19.436  38.709   8.000  1.00  0.00    -0.348 N 
ATOM     23  C   UNL     1      18.174  39.350   8.082  1.00  0.00     0.217 C 
ATOM     24  H   UNL     1      20.113  38.887   7.223  1.00  0.00     0.163 HD
ATOM     25  C   UNL     1      17.802  40.312   7.021  1.00  0.00     0.114 C 
ATOM     26  O   UNL     1      17.374  39.130   9.018  1.00  0.00    -0.275 OA
ENDBRANCH  13  22
ENDBRANCH   7   8
BRANCH   7  27
ATOM     27  O   UNL     1      18.452  35.508  10.095  1.00  0.00    -0.388 OA
ATOM     28  H   UNL     1      17.464  35.434  10.226  1.00  0.00     0.211 HD
ENDBRANCH   7  27
ENDBRANCH   6   7
BRANCH   6  29
ATOM     29  O   UNL     1      19.234  34.431   6.768  1.00  0.00    -0.388 OA
ATOM     30  H   UNL     1      20.195  34.310   6.862  1.00  0.00     0.211 HD
ENDBRANCH   6  29
ENDBRANCH   5   6
ENDBRANCH   1   5
BRANCH   2  31
ATOM     31  O   UNL     1      16.651  30.730   9.734  1.00  0.00    -0.443 OA
BRANCH  31  32
ATOM     32  C   UNL     1      16.444  31.300  11.008  1.00  0.00     0.294 C 
BRANCH  32  33
ATOM     33  C   UNL     1      17.744  31.865  11.497  1.00  0.00     0.121 A 
ATOM     34  C   UNL     1      18.934  31.190  11.690  1.00  0.00     0.148 A 
ATOM     35  N   UNL     1      18.019  33.143  11.848  1.00  0.00    -0.131 NA
ATOM     36  N   UNL     1      19.877  32.043  12.138  1.00  0.00    -0.185 N 
ATOM     37  N   UNL     1      19.292  33.216  12.224  1.00  0.00    -0.059 NA
BRANCH  36  38
ATOM     38  C   UNL     1      21.236  31.722  12.453  1.00  0.00     0.257 A 
ATOM     39  N   UNL     1      22.126  32.670  12.800  1.00  0.00    -0.175 NA
ATOM     40  N   UNL     1      21.673  30.448  12.412  1.00  0.00    -0.196 NA
ATOM     41  C   UNL     1      23.409  32.411  13.102  1.00  0.00     0.225 A 
ATOM     42  C   UNL     1      22.957  30.122  12.706  1.00  0.00     0.133 A 
ATOM     43  N   UNL     1      23.795  31.107  13.044  1.00  0.00    -0.198 NA
ATOM     44  C   UNL     1      23.451  28.720  12.663  1.00  0.00     0.090 C 
BRANCH  41  45
ATOM     45  N   UNL     1      24.344  33.401  13.466  1.00  0.00    -0.368 N 
ATOM     46  H   UNL     1      24.088  34.124  14.152  1.00  0.00     0.159 HD
ATOM     47  H   UNL     1      25.282  33.399  13.043  1.00  0.00     0.159 HD
ENDBRANCH  41  45
ENDBRANCH  36  38
ENDBRANCH  32  33
ENDBRANCH  31  32
ENDBRANCH   2  31
TORSDOF 16
BEGIN_RES LYS A 131
REMARK  4 active torsions:
REMARK  status: ('A' for Active; 'I' for Inactive)
REMARK    1  A    between atoms: CA   and  CB  
REMARK    2  A    between atoms: CB   and  CG  
REMARK    3  A    between atoms: CG   and  CD  
REMARK    4  A    between atoms: CD   and  CE  
ROOT
ATOM      1  CA  LYS A 131      29.867  25.555  16.977  1.00 20.52     0.186 C 
ENDROOT
BRANCH   1   2
ATOM      2  CB  LYS A 131      28.345  25.722  17.026  1.00 20.94     0.034 C 
BRANCH   2   3
ATOM      3  CG  LYS A 131      27.601  24.403  16.885  1.00 22.96     0.005 C 
BRANCH   3   4
ATOM      4  CD  LYS A 131      26.148  24.530  17.251  1.00 24.33     0.041 C 
BRANCH   4   5
ATOM      5  CE  LYS A 131      26.003  24.522  18.769  1.00 26.91     0.338 C 
ATOM      6  NZ  LYS A 131      25.539  23.195  19.239  1.00 27.40     0.618 N 
ENDBRANCH   4   5
ENDBRANCH   3   4
ENDBRANCH   2   3
ENDBRANCH   1   2
END_RES LYS A 131
BEGIN_RES LYS A 135
REMARK  4 active torsions:
REMARK  status: ('A' for Active; 'I' for Inactive)
REMARK    5  A    between atoms: CA   and  CB  
REMARK    6  A    between atoms: CB   and  CG  
REMARK    7  A    between atoms: CG   and  CD  
REMARK    8  A    between atoms: CD   and  CE  
ROOT
ATOM      7  CA  LYS A 135      33.193  34.663   9.290  1.00 25.02     0.186 C 
ENDROOT
BRANCH   7   8
ATOM      8  CB  LYS A 135      32.060  35.360  10.034  1.00 26.63     0.034 C 
BRANCH   8   9
ATOM      9  CG  LYS A 135      30.702  34.768   9.756  1.00 29.45     0.005 C 
BRANCH   9  10
ATOM     10  CD  LYS A 135      30.531  34.493   8.270  1.00 32.00     0.041 C 
BRANCH  10  11
ATOM     11  CE  LYS A 135      29.314  35.220   7.731  1.00 34.25     0.338 C 
ATOM     12  NZ  LYS A 135      28.058  34.659   8.302  1.00 35.99     0.618 N 
ENDBRANCH  10  11
ENDBRANCH   9  10
ENDBRANCH   8   9
ENDBRANCH   7   8
END_RES LYS A 135
