REMARK VINA RESULT:    -5.248      8.032     11.889
REMARK INTER + INTRA:         -14.709
REMARK INTER:                  -8.445
REMARK INTRA:                  -6.263
REMARK UNBOUND:                -5.011
REMARK SMILES CC(=O)N[C@@H]1[C@@H](O)C[C@](O)(C(=O)O)O[C@H]1C(O)[C@H](O)CNC(=O)OCc1cn(CS(=O)(=O)c2ccccc2)nn1
REMARK SMILES IDX 21 1 22 2 23 3 20 5 18 6 16 7 15 8 9 9 8 10 14 11 6 12 5 13
REMARK SMILES IDX 10 14 11 16 12 17 13 18 7 20 4 22 2 23 1 25 3 26 17 27 19 29
REMARK SMILES IDX 24 31 25 32 26 33 27 34 40 35 28 36 39 37 29 38 30 39 31 40
REMARK SMILES IDX 32 41 33 42 34 43 38 44 35 45 37 46 36 47
REMARK H PARENT 21 4 10 15 13 19 7 21 4 24 17 28 19 30
REMARK Flexibility Score: inf
ROOT
ATOM      1  N   UNL     1      24.887  36.997   9.404  1.00  0.00    -0.319 N 
ATOM      2  C   UNL     1      25.832  36.002   9.844  1.00  0.00     0.407 C 
ATOM      3  O   UNL     1      25.801  34.876   9.327  1.00  0.00    -0.225 OA
ATOM      4  H   UNL     1      24.984  37.913   9.881  1.00  0.00     0.167 HD
ENDROOT
BRANCH   1   5
ATOM      5  C   UNL     1      23.913  36.683   8.375  1.00  0.00     0.154 C 
BRANCH   5   6
ATOM      6  C   UNL     1      22.576  36.329   8.935  1.00  0.00     0.165 C 
BRANCH   6   7
ATOM      7  C   UNL     1      21.421  36.882   8.172  1.00  0.00     0.176 C 
BRANCH   7   8
ATOM      8  C   UNL     1      20.258  35.981   7.961  1.00  0.00     0.178 C 
ATOM      9  C   UNL     1      18.662  37.689   8.039  1.00  0.00     0.269 C 
ATOM     10  C   UNL     1      18.593  37.527   9.522  1.00  0.00     0.112 C 
ATOM     11  O   UNL     1      19.219  36.657   7.327  1.00  0.00    -0.332 OA
ATOM     12  C   UNL     1      18.940  36.198  10.069  1.00  0.00     0.145 C 
ATOM     13  C   UNL     1      19.654  35.283   9.114  1.00  0.00     0.142 C 
BRANCH   9  14
ATOM     14  O   UNL     1      19.359  38.845   7.685  1.00  0.00    -0.357 OA
ATOM     15  H   UNL     1      18.953  39.668   8.001  1.00  0.00     0.214 HD
ENDBRANCH   9  14
BRANCH   9  16
ATOM     16  C   UNL     1      17.281  37.850   7.515  1.00  0.00     0.364 C 
ATOM     17  O   UNL     1      16.863  38.994   7.235  1.00  0.00    -0.246 OA
BRANCH  16  18
ATOM     18  O   UNL     1      16.415  36.782   7.316  1.00  0.00    -0.477 OA
ATOM     19  H   UNL     1      15.407  36.877   7.504  1.00  0.00     0.296 HD
ENDBRANCH  16  18
ENDBRANCH   9  16
BRANCH  12  20
ATOM     20  O   UNL     1      19.666  36.360  11.247  1.00  0.00    -0.391 OA
ATOM     21  H   UNL     1      19.837  37.295  11.463  1.00  0.00     0.211 HD
ENDBRANCH  12  20
BRANCH  13  22
ATOM     22  N   UNL     1      18.757  34.244   8.599  1.00  0.00    -0.348 N 
ATOM     23  C   UNL     1      18.083  33.347   9.456  1.00  0.00     0.217 C 
ATOM     24  H   UNL     1      18.603  34.155   7.576  1.00  0.00     0.163 HD
ATOM     25  C   UNL     1      17.166  32.284   8.947  1.00  0.00     0.114 C 
ATOM     26  O   UNL     1      18.283  33.472  10.690  1.00  0.00    -0.275 OA
ENDBRANCH  13  22
ENDBRANCH   7   8
BRANCH   7  27
ATOM     27  O   UNL     1      21.968  36.985   6.818  1.00  0.00    -0.388 OA
ATOM     28  H   UNL     1      22.826  37.433   6.919  1.00  0.00     0.211 HD
ENDBRANCH   7  27
ENDBRANCH   6   7
BRANCH   6  29
ATOM     29  O   UNL     1      22.444  36.458  10.303  1.00  0.00    -0.388 OA
ATOM     30  H   UNL     1      23.155  35.983  10.799  1.00  0.00     0.211 HD
ENDBRANCH   6  29
ENDBRANCH   5   6
ENDBRANCH   1   5
BRANCH   2  31
ATOM     31  O   UNL     1      26.766  36.283  10.823  1.00  0.00    -0.443 OA
BRANCH  31  32
ATOM     32  C   UNL     1      26.757  35.654  12.092  1.00  0.00     0.294 C 
BRANCH  32  33
ATOM     33  C   UNL     1      25.398  35.564  12.647  1.00  0.00     0.120 A 
ATOM     34  C   UNL     1      24.739  34.512  13.216  1.00  0.00     0.139 A 
ATOM     35  N   UNL     1      24.525  36.593  12.679  1.00  0.00    -0.132 NA
ATOM     36  N   UNL     1      23.498  34.927  13.573  1.00  0.00    -0.237 N 
ATOM     37  N   UNL     1      23.397  36.202  13.232  1.00  0.00    -0.066 NA
BRANCH  36  38
ATOM     38  C   UNL     1      22.506  34.098  14.205  1.00  0.00     0.287 C 
BRANCH  38  39
ATOM     39  S   UNL     1      21.479  33.308  12.974  1.00  0.00     0.198 S 
ATOM     40  O   UNL     1      21.642  34.066  11.682  1.00  0.00    -0.222 OA
ATOM     41  O   UNL     1      20.073  33.391  13.438  1.00  0.00    -0.222 OA
BRANCH  39  42
ATOM     42  C   UNL     1      22.009  31.646  12.789  1.00  0.00     0.069 A 
ATOM     43  C   UNL     1      21.063  30.698  12.415  1.00  0.00     0.020 A 
ATOM     44  C   UNL     1      23.322  31.307  13.011  1.00  0.00     0.020 A 
ATOM     45  C   UNL     1      21.480  29.397  12.270  1.00  0.00     0.001 A 
ATOM     46  C   UNL     1      23.689  29.988  12.853  1.00  0.00     0.001 A 
ATOM     47  C   UNL     1      22.799  29.008  12.485  1.00  0.00     0.000 A 
ENDBRANCH  39  42
ENDBRANCH  38  39
ENDBRANCH  36  38
ENDBRANCH  32  33
ENDBRANCH  31  32
ENDBRANCH   2  31
TORSDOF 17
BEGIN_RES LYS A 131
REMARK  4 active torsions:
REMARK  status: ('A' for Active; 'I' for Inactive)
REMARK    1  A    between atoms: CA   and  CB  
REMARK    2  A    between atoms: CB   and  CG  
REMARK    3  A    between atoms: CG   and  CD  
REMARK    4  A    between atoms: CD   and  CE  
ROOT
ATOM      1  CA  LYS A 131      29.867  25.555  16.977  1.00 20.52     0.186 C 
ENDROOT
BRANCH   1   2
ATOM      2  CB  LYS A 131      28.345  25.722  17.026  1.00 20.94     0.034 C 
BRANCH   2   3
ATOM      3  CG  LYS A 131      27.601  24.403  16.881  1.00 22.96     0.005 C 
BRANCH   3   4
ATOM      4  CD  LYS A 131      26.692  24.134  18.048  1.00 24.33     0.041 C 
BRANCH   4   5
ATOM      5  CE  LYS A 131      25.549  23.228  17.605  1.00 26.91     0.338 C 
ATOM      6  NZ  LYS A 131      24.497  24.017  16.920  1.00 27.40     0.618 N 
ENDBRANCH   4   5
ENDBRANCH   3   4
ENDBRANCH   2   3
ENDBRANCH   1   2
END_RES LYS A 131
BEGIN_RES LYS A 135
REMARK  4 active torsions:
REMARK  status: ('A' for Active; 'I' for Inactive)
REMARK    5  A    between atoms: CA   and  CB  
REMARK    6  A    between atoms: CB   and  CG  
REMARK    7  A    between atoms: CG   and  CD  
REMARK    8  A    between atoms: CD   and  CE  
ROOT
ATOM      7  CA  LYS A 135      33.193  34.663   9.290  1.00 25.02     0.186 C 
ENDROOT
BRANCH   7   8
ATOM      8  CB  LYS A 135      32.060  35.360  10.034  1.00 26.63     0.034 C 
BRANCH   8   9
ATOM      9  CG  LYS A 135      30.932  35.802   9.137  1.00 29.45     0.005 C 
BRANCH   9  10
ATOM     10  CD  LYS A 135      30.516  34.675   8.204  1.00 32.00     0.041 C 
BRANCH  10  11
ATOM     11  CE  LYS A 135      29.027  34.412   8.317  1.00 34.25     0.338 C 
ATOM     12  NZ  LYS A 135      28.704  33.695   9.582  1.00 35.99     0.618 N 
ENDBRANCH  10  11
ENDBRANCH   9  10
ENDBRANCH   8   9
ENDBRANCH   7   8
END_RES LYS A 135
