REMARK VINA RESULT:    -4.795      2.038      3.126
REMARK INTER + INTRA:         -14.583
REMARK INTER:                  -8.580
REMARK INTRA:                  -6.003
REMARK UNBOUND:                -6.003
REMARK SMILES CC(=O)N[C@@H]1[C@@H](O)C[C@](O)(C(=O)O)O[C@H]1C(O)[C@H](O)CNC(=O)OCc1cn(Cc2ccc3c(c2)OCO3)nn1
REMARK SMILES IDX 21 1 22 2 23 3 20 5 18 6 16 7 15 8 9 9 8 10 14 11 6 12 5 13
REMARK SMILES IDX 10 14 11 16 12 17 13 18 7 20 4 22 2 23 1 25 3 26 17 27 19 29
REMARK SMILES IDX 24 31 25 32 26 33 27 34 40 35 28 36 39 37 29 38 30 39 31 40
REMARK SMILES IDX 35 41 32 42 34 43 33 44 36 45 38 46 37 47
REMARK H PARENT 21 4 10 15 13 19 7 21 4 24 17 28 19 30
REMARK Flexibility Score: inf
ROOT
ATOM      1  N   UNL     1      27.236  37.677  11.038  1.00  0.00    -0.319 N 
ATOM      2  C   UNL     1      28.247  36.820  11.556  1.00  0.00     0.407 C 
ATOM      3  O   UNL     1      28.000  35.580  11.710  1.00  0.00    -0.225 OA
ATOM      4  H   UNL     1      27.465  38.675  10.924  1.00  0.00     0.167 HD
ENDROOT
BRANCH   1   5
ATOM      5  C   UNL     1      25.966  37.081  10.710  1.00  0.00     0.154 C 
BRANCH   5   6
ATOM      6  C   UNL     1      25.754  36.893   9.241  1.00  0.00     0.165 C 
BRANCH   6   7
ATOM      7  C   UNL     1      25.123  38.099   8.583  1.00  0.00     0.176 C 
BRANCH   7   8
ATOM      8  C   UNL     1      25.987  38.594   7.427  1.00  0.00     0.178 C 
ATOM      9  C   UNL     1      28.191  39.224   7.789  1.00  0.00     0.269 C 
ATOM     10  C   UNL     1      28.143  40.345   6.777  1.00  0.00     0.112 C 
ATOM     11  O   UNL     1      27.292  38.222   7.556  1.00  0.00    -0.332 OA
ATOM     12  C   UNL     1      26.782  40.466   6.123  1.00  0.00     0.145 C 
ATOM     13  C   UNL     1      25.762  40.059   7.162  1.00  0.00     0.142 C 
BRANCH   9  14
ATOM     14  O   UNL     1      28.060  39.732   9.096  1.00  0.00    -0.357 OA
ATOM     15  H   UNL     1      27.154  40.034   9.291  1.00  0.00     0.214 HD
ENDBRANCH   9  14
BRANCH   9  16
ATOM     16  C   UNL     1      29.557  38.638   7.714  1.00  0.00     0.364 C 
ATOM     17  O   UNL     1      30.098  38.141   8.748  1.00  0.00    -0.246 OA
BRANCH  16  18
ATOM     18  O   UNL     1      30.308  38.597   6.552  1.00  0.00    -0.477 OA
ATOM     19  H   UNL     1      29.895  38.999   5.705  1.00  0.00     0.296 HD
ENDBRANCH  16  18
ENDBRANCH   9  16
BRANCH  12  20
ATOM     20  O   UNL     1      26.562  41.748   5.631  1.00  0.00    -0.391 OA
ATOM     21  H   UNL     1      25.589  41.847   5.489  1.00  0.00     0.211 HD
ENDBRANCH  12  20
BRANCH  13  22
ATOM     22  N   UNL     1      24.417  40.294   6.773  1.00  0.00    -0.348 N 
ATOM     23  C   UNL     1      23.700  41.452   7.171  1.00  0.00     0.217 C 
ATOM     24  H   UNL     1      23.953  39.560   6.160  1.00  0.00     0.163 HD
ATOM     25  C   UNL     1      22.282  41.671   6.741  1.00  0.00     0.114 C 
ATOM     26  O   UNL     1      24.317  42.275   7.895  1.00  0.00    -0.275 OA
ENDBRANCH  13  22
ENDBRANCH   7   8
BRANCH   7  27
ATOM     27  O   UNL     1      25.084  39.124   9.528  1.00  0.00    -0.388 OA
ATOM     28  H   UNL     1      24.148  39.410   9.671  1.00  0.00     0.211 HD
ENDBRANCH   7  27
ENDBRANCH   6   7
BRANCH   6  29
ATOM     29  O   UNL     1      24.933  35.778   9.072  1.00  0.00    -0.388 OA
ATOM     30  H   UNL     1      24.820  35.267   9.909  1.00  0.00     0.211 HD
ENDBRANCH   6  29
ENDBRANCH   5   6
ENDBRANCH   1   5
BRANCH   2  31
ATOM     31  O   UNL     1      29.512  37.277  11.908  1.00  0.00    -0.443 OA
BRANCH  31  32
ATOM     32  C   UNL     1      29.674  37.919  13.168  1.00  0.00     0.294 C 
BRANCH  32  33
ATOM     33  C   UNL     1      30.751  37.267  13.947  1.00  0.00     0.120 A 
ATOM     34  C   UNL     1      31.089  35.947  13.857  1.00  0.00     0.138 A 
ATOM     35  N   UNL     1      31.569  37.804  14.852  1.00  0.00    -0.132 NA
ATOM     36  N   UNL     1      32.099  35.722  14.709  1.00  0.00    -0.248 N 
ATOM     37  N   UNL     1      32.380  36.857  15.305  1.00  0.00    -0.067 NA
BRANCH  36  38
ATOM     38  C   UNL     1      32.749  34.446  14.916  1.00  0.00     0.181 C 
BRANCH  38  39
ATOM     39  C   UNL     1      31.872  33.655  15.825  1.00  0.00    -0.023 A 
ATOM     40  C   UNL     1      31.771  34.036  17.143  1.00  0.00     0.010 A 
ATOM     41  C   UNL     1      31.167  32.562  15.389  1.00  0.00     0.056 A 
ATOM     42  C   UNL     1      30.959  33.312  18.009  1.00  0.00     0.051 A 
ATOM     43  C   UNL     1      30.362  31.845  16.252  1.00  0.00     0.166 A 
ATOM     44  C   UNL     1      30.252  32.213  17.565  1.00  0.00     0.165 A 
ATOM     45  O   UNL     1      29.575  30.730  16.033  1.00  0.00    -0.454 OA
ATOM     46  O   UNL     1      29.396  31.346  18.212  1.00  0.00    -0.454 OA
ATOM     47  C   UNL     1      28.799  30.549  17.198  1.00  0.00     0.468 C 
ENDBRANCH  38  39
ENDBRANCH  36  38
ENDBRANCH  32  33
ENDBRANCH  31  32
ENDBRANCH   2  31
TORSDOF 16
BEGIN_RES LYS A 131
REMARK  4 active torsions:
REMARK  status: ('A' for Active; 'I' for Inactive)
REMARK    1  A    between atoms: CA   and  CB  
REMARK    2  A    between atoms: CB   and  CG  
REMARK    3  A    between atoms: CG   and  CD  
REMARK    4  A    between atoms: CD   and  CE  
ROOT
ATOM      1  CA  LYS A 131      29.867  25.555  16.977  1.00 20.52     0.186 C 
ENDROOT
BRANCH   1   2
ATOM      2  CB  LYS A 131      28.345  25.722  17.026  1.00 20.94     0.034 C 
BRANCH   2   3
ATOM      3  CG  LYS A 131      27.599  24.441  16.685  1.00 22.96     0.005 C 
BRANCH   3   4
ATOM      4  CD  LYS A 131      27.020  23.781  17.905  1.00 24.33     0.041 C 
BRANCH   4   5
ATOM      5  CE  LYS A 131      25.627  23.249  17.583  1.00 26.91     0.338 C 
ATOM      6  NZ  LYS A 131      24.772  24.329  17.036  1.00 27.40     0.618 N 
ENDBRANCH   4   5
ENDBRANCH   3   4
ENDBRANCH   2   3
ENDBRANCH   1   2
END_RES LYS A 131
BEGIN_RES LYS A 135
REMARK  4 active torsions:
REMARK  status: ('A' for Active; 'I' for Inactive)
REMARK    5  A    between atoms: CA   and  CB  
REMARK    6  A    between atoms: CB   and  CG  
REMARK    7  A    between atoms: CG   and  CD  
REMARK    8  A    between atoms: CD   and  CE  
ROOT
ATOM      7  CA  LYS A 135      33.193  34.663   9.290  1.00 25.02     0.186 C 
ENDROOT
BRANCH   7   8
ATOM      8  CB  LYS A 135      32.060  35.360  10.034  1.00 26.63     0.034 C 
BRANCH   8   9
ATOM      9  CG  LYS A 135      30.707  34.747   9.782  1.00 29.45     0.005 C 
BRANCH   9  10
ATOM     10  CD  LYS A 135      30.463  34.578   8.290  1.00 32.00     0.041 C 
BRANCH  10  11
ATOM     11  CE  LYS A 135      29.013  34.863   7.952  1.00 34.25     0.338 C 
ATOM     12  NZ  LYS A 135      28.884  35.441   6.586  1.00 35.99     0.618 N 
ENDBRANCH  10  11
ENDBRANCH   9  10
ENDBRANCH   8   9
ENDBRANCH   7   8
END_RES LYS A 135
