REMARK VINA RESULT:    -4.204      7.087     11.958
REMARK INTER + INTRA:         -13.830
REMARK INTER:                  -8.660
REMARK INTRA:                  -5.170
REMARK UNBOUND:                -6.555
REMARK SMILES CC(=O)N[C@@H]1[C@@H](O)C[C@](O)(C(=O)O)O[C@H]1C(O)[C@H](O)CNC(=O)OCc1cn([C@H]2C[C@H]3CC[C@@H](C2)N3C)nn1
REMARK SMILES IDX 20 1 18 2 16 3 15 4 9 5 8 6 14 7 6 8 5 9 10 10 11 12 12 13
REMARK SMILES IDX 13 14 7 16 4 18 2 19 1 21 3 22 17 23 19 25 21 27 22 28 23 30
REMARK SMILES IDX 24 31 25 32 26 33 27 34 39 35 28 36 38 37 29 38 35 39 30 40
REMARK SMILES IDX 34 41 31 42 36 43 33 44 32 45 37 46
REMARK H PARENT 10 11 13 15 7 17 4 20 17 24 19 26 21 29
REMARK Flexibility Score: inf
ROOT
ATOM      1  C   UNL     1      29.212  39.388   5.940  1.00  0.00     0.154 C 
ENDROOT
BRANCH   1   2
ATOM      2  C   UNL     1      28.497  38.217   5.358  1.00  0.00     0.165 C 
BRANCH   2   3
ATOM      3  C   UNL     1      27.325  37.757   6.166  1.00  0.00     0.176 C 
BRANCH   3   4
ATOM      4  C   UNL     1      27.719  37.259   7.538  1.00  0.00     0.178 C 
ATOM      5  C   UNL     1      28.538  35.388   8.621  1.00  0.00     0.269 C 
ATOM      6  C   UNL     1      28.260  36.279   9.802  1.00  0.00     0.112 C 
ATOM      7  O   UNL     1      28.324  36.018   7.405  1.00  0.00    -0.332 OA
ATOM      8  C   UNL     1      26.890  36.885   9.786  1.00  0.00     0.145 C 
ATOM      9  C   UNL     1      26.459  37.054   8.355  1.00  0.00     0.142 C 
BRANCH   5  10
ATOM     10  O   UNL     1      27.840  34.183   8.684  1.00  0.00    -0.357 OA
ATOM     11  H   UNL     1      27.128  34.232   9.364  1.00  0.00     0.214 HD
ENDBRANCH   5  10
BRANCH   5  12
ATOM     12  C   UNL     1      29.993  35.039   8.672  1.00  0.00     0.364 C 
ATOM     13  O   UNL     1      30.372  33.879   9.047  1.00  0.00    -0.246 OA
BRANCH  12  14
ATOM     14  O   UNL     1      30.988  35.924   8.326  1.00  0.00    -0.477 OA
ATOM     15  H   UNL     1      30.919  36.885   8.684  1.00  0.00     0.296 HD
ENDBRANCH  12  14
ENDBRANCH   5  12
BRANCH   8  16
ATOM     16  O   UNL     1      25.977  36.221  10.570  1.00  0.00    -0.391 OA
ATOM     17  H   UNL     1      26.070  36.559  11.499  1.00  0.00     0.211 HD
ENDBRANCH   8  16
BRANCH   9  18
ATOM     18  N   UNL     1      25.503  38.116   8.168  1.00  0.00    -0.348 N 
ATOM     19  C   UNL     1      24.094  37.891   8.189  1.00  0.00     0.217 C 
ATOM     20  H   UNL     1      25.820  39.099   8.008  1.00  0.00     0.163 HD
ATOM     21  C   UNL     1      23.167  39.023   7.991  1.00  0.00     0.114 C 
ATOM     22  O   UNL     1      23.694  36.719   8.379  1.00  0.00    -0.275 OA
ENDBRANCH   9  18
ENDBRANCH   3   4
BRANCH   3  23
ATOM     23  O   UNL     1      26.694  36.709   5.496  1.00  0.00    -0.388 OA
ATOM     24  H   UNL     1      27.055  35.840   5.746  1.00  0.00     0.211 HD
ENDBRANCH   3  23
ENDBRANCH   2   3
BRANCH   2  25
ATOM     25  O   UNL     1      29.373  37.118   5.198  1.00  0.00    -0.388 OA
ATOM     26  H   UNL     1      29.339  36.901   4.224  1.00  0.00     0.211 HD
ENDBRANCH   2  25
ENDBRANCH   1   2
BRANCH   1  27
ATOM     27  N   UNL     1      30.541  39.053   6.392  1.00  0.00    -0.319 N 
ATOM     28  C   UNL     1      31.567  40.033   6.351  1.00  0.00     0.407 C 
ATOM     29  H   UNL     1      30.796  38.105   6.758  1.00  0.00     0.167 HD
ATOM     30  O   UNL     1      31.382  41.208   5.931  1.00  0.00    -0.225 OA
BRANCH  28  31
ATOM     31  O   UNL     1      32.868  39.764   6.777  1.00  0.00    -0.443 OA
BRANCH  31  32
ATOM     32  C   UNL     1      33.328  40.086   8.074  1.00  0.00     0.294 C 
BRANCH  32  33
ATOM     33  C   UNL     1      32.325  39.663   9.089  1.00  0.00     0.120 A 
ATOM     34  C   UNL     1      31.712  40.502   9.995  1.00  0.00     0.138 A 
ATOM     35  N   UNL     1      31.817  38.443   9.336  1.00  0.00    -0.132 NA
ATOM     36  N   UNL     1      30.854  39.777  10.766  1.00  0.00    -0.249 N 
ATOM     37  N   UNL     1      30.958  38.536  10.323  1.00  0.00    -0.067 NA
BRANCH  36  38
ATOM     38  C   UNL     1      30.006  40.272  11.846  1.00  0.00     0.112 C 
ATOM     39  C   UNL     1      30.623  39.876  13.136  1.00  0.00     0.046 C 
ATOM     40  C   UNL     1      28.628  39.763  11.612  1.00  0.00     0.046 C 
ATOM     41  C   UNL     1      29.673  39.588  14.241  1.00  0.00     0.058 C 
ATOM     42  C   UNL     1      27.956  39.212  12.842  1.00  0.00     0.058 C 
ATOM     43  N   UNL     1      28.337  40.062  13.956  1.00  0.00    -0.300 NA
ATOM     44  C   UNL     1      29.468  38.083  14.307  1.00  0.00     0.021 C 
ATOM     45  C   UNL     1      28.543  37.853  13.129  1.00  0.00     0.021 C 
ATOM     46  C   UNL     1      27.486  39.870  15.103  1.00  0.00     0.105 C 
ENDBRANCH  36  38
ENDBRANCH  32  33
ENDBRANCH  31  32
ENDBRANCH  28  31
ENDBRANCH   1  27
TORSDOF 15
BEGIN_RES LYS A 131
REMARK  4 active torsions:
REMARK  status: ('A' for Active; 'I' for Inactive)
REMARK    1  A    between atoms: CA   and  CB  
REMARK    2  A    between atoms: CB   and  CG  
REMARK    3  A    between atoms: CG   and  CD  
REMARK    4  A    between atoms: CD   and  CE  
ROOT
ATOM      1  CA  LYS A 131      29.867  25.555  16.977  1.00 20.52     0.186 C 
ENDROOT
BRANCH   1   2
ATOM      2  CB  LYS A 131      28.345  25.722  17.026  1.00 20.94     0.034 C 
BRANCH   2   3
ATOM      3  CG  LYS A 131      27.600  24.411  16.828  1.00 22.96     0.005 C 
BRANCH   3   4
ATOM      4  CD  LYS A 131      26.809  24.020  18.045  1.00 24.33     0.041 C 
BRANCH   4   5
ATOM      5  CE  LYS A 131      25.594  23.200  17.621  1.00 26.91     0.338 C 
ATOM      6  NZ  LYS A 131      24.614  24.055  16.911  1.00 27.40     0.618 N 
ENDBRANCH   4   5
ENDBRANCH   3   4
ENDBRANCH   2   3
ENDBRANCH   1   2
END_RES LYS A 131
BEGIN_RES LYS A 135
REMARK  4 active torsions:
REMARK  status: ('A' for Active; 'I' for Inactive)
REMARK    5  A    between atoms: CA   and  CB  
REMARK    6  A    between atoms: CB   and  CG  
REMARK    7  A    between atoms: CG   and  CD  
REMARK    8  A    between atoms: CD   and  CE  
ROOT
ATOM      7  CA  LYS A 135      33.193  34.663   9.290  1.00 25.02     0.186 C 
ENDROOT
BRANCH   7   8
ATOM      8  CB  LYS A 135      32.060  35.360  10.034  1.00 26.63     0.034 C 
BRANCH   8   9
ATOM      9  CG  LYS A 135      32.327  35.540  11.506  1.00 29.45     0.005 C 
BRANCH   9  10
ATOM     10  CD  LYS A 135      31.080  35.230  12.320  1.00 32.00     0.041 C 
BRANCH  10  11
ATOM     11  CE  LYS A 135      31.447  34.910  13.756  1.00 34.25     0.338 C 
ATOM     12  NZ  LYS A 135      30.250  34.488  14.535  1.00 35.99     0.618 N 
ENDBRANCH  10  11
ENDBRANCH   9  10
ENDBRANCH   8   9
ENDBRANCH   7   8
END_RES LYS A 135
