REMARK VINA RESULT:    -4.680      4.741      9.057
REMARK INTER + INTRA:         -14.771
REMARK INTER:                  -8.878
REMARK INTRA:                  -5.893
REMARK UNBOUND:                -6.398
REMARK SMILES CC(=O)N[C@@H]1[C@@H](O)C[C@](O)(C(=O)O)O[C@H]1C(O)[C@H](O)CNC(=O)OCc1cn(Cc2ccc(Br)cc2)nn1
REMARK SMILES IDX 21 1 22 2 23 3 20 5 18 6 16 7 15 8 9 9 8 10 14 11 6 12 5 13
REMARK SMILES IDX 10 14 11 16 12 17 13 18 7 20 4 22 2 23 1 25 3 26 17 27 19 29
REMARK SMILES IDX 24 31 25 32 26 33 27 34 38 35 28 36 37 37 29 38 30 39 31 40
REMARK SMILES IDX 36 41 32 42 35 43 33 44 34 45
REMARK H PARENT 21 4 10 15 13 19 7 21 4 24 17 28 19 30
REMARK Flexibility Score: inf
ROOT
ATOM      1  N   UNL     1      25.982  30.372  18.717  1.00  0.00    -0.319 N 
ATOM      2  C   UNL     1      24.934  30.585  17.788  1.00  0.00     0.407 C 
ATOM      3  O   UNL     1      24.020  29.782  17.522  1.00  0.00    -0.225 OA
ATOM      4  H   UNL     1      26.713  31.136  18.870  1.00  0.00     0.167 HD
ENDROOT
BRANCH   1   5
ATOM      5  C   UNL     1      26.060  29.144  19.443  1.00  0.00     0.154 C 
BRANCH   5   6
ATOM      6  C   UNL     1      27.099  28.172  18.942  1.00  0.00     0.165 C 
BRANCH   6   7
ATOM      7  C   UNL     1      27.695  27.335  20.015  1.00  0.00     0.176 C 
BRANCH   7   8
ATOM      8  C   UNL     1      28.285  28.001  21.195  1.00  0.00     0.178 C 
ATOM      9  C   UNL     1      30.577  27.750  21.229  1.00  0.00     0.269 C 
ATOM     10  C   UNL     1      30.726  28.165  22.674  1.00  0.00     0.112 C 
ATOM     11  O   UNL     1      29.518  28.504  20.749  1.00  0.00    -0.332 OA
ATOM     12  C   UNL     1      29.492  27.710  23.376  1.00  0.00     0.145 C 
ATOM     13  C   UNL     1      28.348  27.292  22.472  1.00  0.00     0.142 C 
BRANCH   9  14
ATOM     14  O   UNL     1      30.377  26.388  21.203  1.00  0.00    -0.357 OA
ATOM     15  H   UNL     1      31.191  25.854  21.265  1.00  0.00     0.214 HD
ENDBRANCH   9  14
BRANCH   9  16
ATOM     16  C   UNL     1      31.811  28.161  20.517  1.00  0.00     0.364 C 
ATOM     17  O   UNL     1      32.420  29.226  20.759  1.00  0.00    -0.246 OA
BRANCH  16  18
ATOM     18  O   UNL     1      32.291  27.300  19.534  1.00  0.00    -0.477 OA
ATOM     19  H   UNL     1      31.753  27.030  18.726  1.00  0.00     0.296 HD
ENDBRANCH  16  18
ENDBRANCH   9  16
BRANCH  12  20
ATOM     20  O   UNL     1      29.846  26.563  24.124  1.00  0.00    -0.391 OA
ATOM     21  H   UNL     1      30.284  26.798  24.966  1.00  0.00     0.211 HD
ENDBRANCH  12  20
BRANCH  13  22
ATOM     22  N   UNL     1      27.168  27.586  23.316  1.00  0.00    -0.348 N 
ATOM     23  C   UNL     1      26.461  26.602  24.017  1.00  0.00     0.217 C 
ATOM     24  H   UNL     1      26.903  28.600  23.343  1.00  0.00     0.163 HD
ATOM     25  C   UNL     1      25.278  27.001  24.834  1.00  0.00     0.114 C 
ATOM     26  O   UNL     1      26.809  25.413  23.965  1.00  0.00    -0.275 OA
ENDBRANCH  13  22
ENDBRANCH   7   8
BRANCH   7  27
ATOM     27  O   UNL     1      26.870  26.248  20.262  1.00  0.00    -0.388 OA
ATOM     28  H   UNL     1      27.387  25.402  20.131  1.00  0.00     0.211 HD
ENDBRANCH   7  27
ENDBRANCH   6   7
BRANCH   6  29
ATOM     29  O   UNL     1      28.017  28.711  18.057  1.00  0.00    -0.388 OA
ATOM     30  H   UNL     1      28.542  29.446  18.434  1.00  0.00     0.211 HD
ENDBRANCH   6  29
ENDBRANCH   5   6
ENDBRANCH   1   5
BRANCH   2  31
ATOM     31  O   UNL     1      24.905  31.798  17.102  1.00  0.00    -0.443 OA
BRANCH  31  32
ATOM     32  C   UNL     1      25.456  31.926  15.814  1.00  0.00     0.294 C 
BRANCH  32  33
ATOM     33  C   UNL     1      26.874  31.526  15.779  1.00  0.00     0.120 A 
ATOM     34  C   UNL     1      28.025  32.272  15.886  1.00  0.00     0.138 A 
ATOM     35  N   UNL     1      27.252  30.237  15.617  1.00  0.00    -0.132 NA
ATOM     36  N   UNL     1      29.065  31.413  15.785  1.00  0.00    -0.248 N 
ATOM     37  N   UNL     1      28.558  30.205  15.626  1.00  0.00    -0.067 NA
BRANCH  36  38
ATOM     38  C   UNL     1      30.461  31.792  15.847  1.00  0.00     0.181 C 
BRANCH  38  39
ATOM     39  C   UNL     1      30.726  32.302  17.233  1.00  0.00    -0.026 A 
ATOM     40  C   UNL     1      30.443  31.486  18.318  1.00  0.00     0.007 A 
ATOM     41  C   UNL     1      31.245  33.567  17.407  1.00  0.00     0.007 A 
ATOM     42  C   UNL     1      30.692  31.973  19.575  1.00  0.00     0.016 A 
ATOM     43  C   UNL     1      31.499  34.063  18.685  1.00  0.00     0.016 A 
ATOM     44  C   UNL     1      31.211  33.236  19.742  1.00  0.00     0.017 A 
ATOM     45  Br  UNL     1      31.549  33.888  21.507  1.00  0.00    -0.051 Br
ENDBRANCH  38  39
ENDBRANCH  36  38
ENDBRANCH  32  33
ENDBRANCH  31  32
ENDBRANCH   2  31
TORSDOF 16
BEGIN_RES LYS A 131
REMARK  4 active torsions:
REMARK  status: ('A' for Active; 'I' for Inactive)
REMARK    1  A    between atoms: CA   and  CB  
REMARK    2  A    between atoms: CB   and  CG  
REMARK    3  A    between atoms: CG   and  CD  
REMARK    4  A    between atoms: CD   and  CE  
ROOT
ATOM      1  CA  LYS A 131      29.867  25.555  16.977  1.00 20.52     0.186 C 
ENDROOT
BRANCH   1   2
ATOM      2  CB  LYS A 131      28.345  25.722  17.026  1.00 20.94     0.034 C 
BRANCH   2   3
ATOM      3  CG  LYS A 131      27.601  24.404  16.874  1.00 22.96     0.005 C 
BRANCH   3   4
ATOM      4  CD  LYS A 131      26.165  24.511  17.308  1.00 24.33     0.041 C 
BRANCH   4   5
ATOM      5  CE  LYS A 131      25.830  23.357  18.247  1.00 26.91     0.338 C 
ATOM      6  NZ  LYS A 131      24.991  22.351  17.554  1.00 27.40     0.618 N 
ENDBRANCH   4   5
ENDBRANCH   3   4
ENDBRANCH   2   3
ENDBRANCH   1   2
END_RES LYS A 131
BEGIN_RES LYS A 135
REMARK  4 active torsions:
REMARK  status: ('A' for Active; 'I' for Inactive)
REMARK    5  A    between atoms: CA   and  CB  
REMARK    6  A    between atoms: CB   and  CG  
REMARK    7  A    between atoms: CG   and  CD  
REMARK    8  A    between atoms: CD   and  CE  
ROOT
ATOM      7  CA  LYS A 135      33.193  34.663   9.290  1.00 25.02     0.186 C 
ENDROOT
BRANCH   7   8
ATOM      8  CB  LYS A 135      32.060  35.360  10.034  1.00 26.63     0.034 C 
BRANCH   8   9
ATOM      9  CG  LYS A 135      30.744  34.632   9.946  1.00 29.45     0.005 C 
BRANCH   9  10
ATOM     10  CD  LYS A 135      30.474  34.182   8.519  1.00 32.00     0.041 C 
BRANCH  10  11
ATOM     11  CE  LYS A 135      29.441  35.079   7.863  1.00 34.25     0.338 C 
ATOM     12  NZ  LYS A 135      28.092  34.867   8.457  1.00 35.99     0.618 N 
ENDBRANCH  10  11
ENDBRANCH   9  10
ENDBRANCH   8   9
ENDBRANCH   7   8
END_RES LYS A 135
