REMARK VINA RESULT:    -5.230      1.923      2.675
REMARK INTER + INTRA:         -17.198
REMARK INTER:                 -11.697
REMARK INTRA:                  -5.501
REMARK UNBOUND:                -6.771
REMARK SMILES CC(=O)N[C@@H]1[C@@H](O)C[C@](O)(C(=O)O)O[C@H]1C(O)[C@H](O)CNC(=O)OCc1cn(CC(O)CCc2ccccc2)nn1
REMARK SMILES IDX 24 1 22 2 21 3 23 5 20 6 18 7 16 8 15 9 9 10 8 11 14 12 6 13
REMARK SMILES IDX 5 14 10 15 11 17 12 18 13 19 7 21 4 23 2 24 1 26 3 27 17 28
REMARK SMILES IDX 19 30 25 32 26 33 27 34 41 35 28 36 40 37 29 38 30 39 31 40
REMARK SMILES IDX 32 42 33 43 34 44 35 45 39 46 36 47 38 48 37 49
REMARK H PARENT 21 4 10 16 13 20 7 22 4 25 17 29 19 31 31 41
REMARK Flexibility Score: inf
ROOT
ATOM      1  O   UNL     1      26.230  35.232  12.298  1.00  0.00    -0.443 OA
ENDROOT
BRANCH   1   2
ATOM      2  C   UNL     1      24.927  34.865  12.587  1.00  0.00     0.407 C 
ATOM      3  N   UNL     1      23.860  35.759  12.366  1.00  0.00    -0.319 N 
ATOM      4  H   UNL     1      24.061  36.701  11.983  1.00  0.00     0.167 HD
ATOM      5  O   UNL     1      24.686  33.727  13.050  1.00  0.00    -0.225 OA
BRANCH   3   6
ATOM      6  C   UNL     1      22.476  35.412  12.654  1.00  0.00     0.154 C 
BRANCH   6   7
ATOM      7  C   UNL     1      21.535  36.507  12.185  1.00  0.00     0.165 C 
BRANCH   7   8
ATOM      8  C   UNL     1      20.705  35.957  11.036  1.00  0.00     0.176 C 
BRANCH   8   9
ATOM      9  C   UNL     1      20.821  36.875   9.816  1.00  0.00     0.178 C 
ATOM     10  C   UNL     1      18.709  37.322   8.926  1.00  0.00     0.269 C 
ATOM     11  C   UNL     1      18.795  35.987   8.274  1.00  0.00     0.112 C 
ATOM     12  O   UNL     1      19.773  37.710   9.659  1.00  0.00    -0.332 OA
ATOM     13  C   UNL     1      20.133  35.676   7.704  1.00  0.00     0.145 C 
ATOM     14  C   UNL     1      21.253  36.074   8.628  1.00  0.00     0.142 C 
BRANCH  10  15
ATOM     15  O   UNL     1      17.578  37.292   9.779  1.00  0.00    -0.357 OA
ATOM     16  H   UNL     1      17.635  36.497  10.369  1.00  0.00     0.214 HD
ENDBRANCH  10  15
BRANCH  10  17
ATOM     17  C   UNL     1      18.378  38.330   7.857  1.00  0.00     0.364 C 
ATOM     18  O   UNL     1      18.476  39.567   8.034  1.00  0.00    -0.246 OA
BRANCH  17  19
ATOM     19  O   UNL     1      17.938  37.923   6.593  1.00  0.00    -0.477 OA
ATOM     20  H   UNL     1      16.989  37.542   6.475  1.00  0.00     0.296 HD
ENDBRANCH  17  19
ENDBRANCH  10  17
BRANCH  13  21
ATOM     21  O   UNL     1      20.177  34.297   7.394  1.00  0.00    -0.391 OA
ATOM     22  H   UNL     1      19.337  33.844   7.704  1.00  0.00     0.211 HD
ENDBRANCH  13  21
BRANCH  14  23
ATOM     23  N   UNL     1      22.321  36.767   7.903  1.00  0.00    -0.348 N 
ATOM     24  C   UNL     1      23.630  36.832   8.402  1.00  0.00     0.217 C 
ATOM     25  H   UNL     1      22.045  37.216   6.981  1.00  0.00     0.163 HD
ATOM     26  C   UNL     1      24.670  37.542   7.637  1.00  0.00     0.114 C 
ATOM     27  O   UNL     1      23.922  36.295   9.487  1.00  0.00    -0.275 OA
ENDBRANCH  14  23
ENDBRANCH   8   9
BRANCH   8  28
ATOM     28  O   UNL     1      21.348  34.768  10.651  1.00  0.00    -0.388 OA
ATOM     29  H   UNL     1      21.544  34.757   9.666  1.00  0.00     0.211 HD
ENDBRANCH   8  28
ENDBRANCH   7   8
BRANCH   7  30
ATOM     30  O   UNL     1      22.262  37.613  11.764  1.00  0.00    -0.388 OA
ATOM     31  H   UNL     1      21.881  38.403  12.215  1.00  0.00     0.211 HD
ENDBRANCH   7  30
ENDBRANCH   6   7
ENDBRANCH   3   6
ENDBRANCH   1   2
BRANCH   1  32
ATOM     32  C   UNL     1      26.556  36.616  12.508  1.00  0.00     0.294 C 
BRANCH  32  33
ATOM     33  C   UNL     1      27.387  37.117  11.391  1.00  0.00     0.120 A 
ATOM     34  C   UNL     1      27.014  37.838  10.281  1.00  0.00     0.138 A 
ATOM     35  N   UNL     1      28.715  36.932  11.291  1.00  0.00    -0.132 NA
ATOM     36  N   UNL     1      28.110  38.069   9.544  1.00  0.00    -0.250 N 
ATOM     37  N   UNL     1      29.113  37.525  10.158  1.00  0.00    -0.067 NA
BRANCH  36  38
ATOM     38  C   UNL     1      28.200  38.804   8.263  1.00  0.00     0.177 C 
BRANCH  38  39
ATOM     39  C   UNL     1      29.059  38.010   7.328  1.00  0.00     0.136 C 
BRANCH  39  40
ATOM     40  O   UNL     1      30.344  38.556   7.207  1.00  0.00    -0.391 OA
ATOM     41  H   UNL     1      30.433  38.893   6.269  1.00  0.00     0.211 HD
ENDBRANCH  39  40
BRANCH  39  42
ATOM     42  C   UNL     1      28.440  37.475   6.136  1.00  0.00     0.038 C 
BRANCH  42  43
ATOM     43  C   UNL     1      28.224  36.028   6.016  1.00  0.00     0.038 C 
BRANCH  43  44
ATOM     44  C   UNL     1      28.177  35.296   7.271  1.00  0.00    -0.048 A 
ATOM     45  C   UNL     1      29.383  34.832   7.810  1.00  0.00     0.004 A 
ATOM     46  C   UNL     1      27.048  34.953   7.948  1.00  0.00     0.004 A 
ATOM     47  C   UNL     1      29.404  34.075   8.958  1.00  0.00     0.000 A 
ATOM     48  C   UNL     1      27.048  34.193   9.105  1.00  0.00     0.000 A 
ATOM     49  C   UNL     1      28.246  33.744   9.622  1.00  0.00     0.000 A 
ENDBRANCH  43  44
ENDBRANCH  42  43
ENDBRANCH  39  42
ENDBRANCH  38  39
ENDBRANCH  36  38
ENDBRANCH  32  33
ENDBRANCH   1  32
TORSDOF 20
BEGIN_RES LYS A 131
REMARK  4 active torsions:
REMARK  status: ('A' for Active; 'I' for Inactive)
REMARK    1  A    between atoms: CA   and  CB  
REMARK    2  A    between atoms: CB   and  CG  
REMARK    3  A    between atoms: CG   and  CD  
REMARK    4  A    between atoms: CD   and  CE  
ROOT
ATOM      1  CA  LYS A 131      29.867  25.555  16.977  1.00 20.52     0.186 C 
ENDROOT
BRANCH   1   2
ATOM      2  CB  LYS A 131      28.345  25.722  17.026  1.00 20.94     0.034 C 
BRANCH   2   3
ATOM      3  CG  LYS A 131      27.601  24.402  16.892  1.00 22.96     0.005 C 
BRANCH   3   4
ATOM      4  CD  LYS A 131      26.502  24.265  17.908  1.00 24.33     0.041 C 
BRANCH   4   5
ATOM      5  CE  LYS A 131      25.158  24.553  17.247  1.00 26.91     0.338 C 
ATOM      6  NZ  LYS A 131      24.662  25.892  17.642  1.00 27.40     0.618 N 
ENDBRANCH   4   5
ENDBRANCH   3   4
ENDBRANCH   2   3
ENDBRANCH   1   2
END_RES LYS A 131
BEGIN_RES LYS A 135
REMARK  4 active torsions:
REMARK  status: ('A' for Active; 'I' for Inactive)
REMARK    5  A    between atoms: CA   and  CB  
REMARK    6  A    between atoms: CB   and  CG  
REMARK    7  A    between atoms: CG   and  CD  
REMARK    8  A    between atoms: CD   and  CE  
ROOT
ATOM      7  CA  LYS A 135      33.193  34.663   9.290  1.00 25.02     0.186 C 
ENDROOT
BRANCH   7   8
ATOM      8  CB  LYS A 135      32.060  35.360  10.034  1.00 26.63     0.034 C 
BRANCH   8   9
ATOM      9  CG  LYS A 135      32.209  35.320  11.533  1.00 29.45     0.005 C 
BRANCH   9  10
ATOM     10  CD  LYS A 135      32.284  36.728  12.103  1.00 32.00     0.041 C 
BRANCH  10  11
ATOM     11  CE  LYS A 135      31.543  36.808  13.424  1.00 34.25     0.338 C 
ATOM     12  NZ  LYS A 135      32.466  36.578  14.571  1.00 35.99     0.618 N 
ENDBRANCH  10  11
ENDBRANCH   9  10
ENDBRANCH   8   9
ENDBRANCH   7   8
END_RES LYS A 135
