REMARK VINA RESULT:    -3.770      3.234      6.204
REMARK INTER + INTRA:         -14.170
REMARK INTER:                  -7.811
REMARK INTRA:                  -6.360
REMARK UNBOUND:                -7.426
REMARK SMILES CC(=O)N[C@@H]1[C@@H](O)C[C@](O)(C(=O)O)O[C@H]1C(O)[C@H](O)CNC(=O)OCc1cn(Cc2ccccc2Br)nn1
REMARK SMILES IDX 21 1 22 2 23 3 20 5 18 6 16 7 15 8 9 9 8 10 14 11 6 12 5 13
REMARK SMILES IDX 10 14 11 16 12 17 13 18 7 20 4 22 2 23 1 25 3 26 17 27 19 29
REMARK SMILES IDX 24 31 25 32 26 33 27 34 38 35 28 36 37 37 29 38 30 39 31 40
REMARK SMILES IDX 35 41 32 42 34 43 36 44 33 45
REMARK H PARENT 21 4 10 15 13 19 7 21 4 24 17 28 19 30
REMARK Flexibility Score: inf
ROOT
ATOM      1  N   UNL     1      27.436  32.111  16.200  1.00  0.00    -0.319 N 
ATOM      2  C   UNL     1      26.985  30.827  15.877  1.00  0.00     0.407 C 
ATOM      3  O   UNL     1      25.845  30.688  15.353  1.00  0.00    -0.225 OA
ATOM      4  H   UNL     1      28.397  32.185  16.636  1.00  0.00     0.167 HD
ENDROOT
BRANCH   1   5
ATOM      5  C   UNL     1      26.689  33.331  15.984  1.00  0.00     0.154 C 
BRANCH   5   6
ATOM      6  C   UNL     1      27.633  34.429  15.545  1.00  0.00     0.165 C 
BRANCH   6   7
ATOM      7  C   UNL     1      28.536  34.865  16.679  1.00  0.00     0.176 C 
BRANCH   7   8
ATOM      8  C   UNL     1      29.998  34.606  16.376  1.00  0.00     0.178 C 
ATOM      9  C   UNL     1      31.429  34.426  14.543  1.00  0.00     0.269 C 
ATOM     10  C   UNL     1      31.930  33.103  14.982  1.00  0.00     0.112 C 
ATOM     11  O   UNL     1      30.145  34.634  15.022  1.00  0.00    -0.332 OA
ATOM     12  C   UNL     1      31.215  32.431  16.090  1.00  0.00     0.145 C 
ATOM     13  C   UNL     1      30.476  33.340  17.029  1.00  0.00     0.142 C 
BRANCH   9  14
ATOM     14  O   UNL     1      31.292  34.411  13.131  1.00  0.00    -0.357 OA
ATOM     15  H   UNL     1      31.922  33.763  12.718  1.00  0.00     0.214 HD
ENDBRANCH   9  14
BRANCH   9  16
ATOM     16  C   UNL     1      32.362  35.503  14.882  1.00  0.00     0.364 C 
ATOM     17  O   UNL     1      32.250  36.680  14.442  1.00  0.00    -0.246 OA
BRANCH  16  18
ATOM     18  O   UNL     1      33.430  35.235  15.726  1.00  0.00    -0.477 OA
ATOM     19  H   UNL     1      34.050  35.955  16.077  1.00  0.00     0.296 HD
ENDBRANCH  16  18
ENDBRANCH   9  16
BRANCH  12  20
ATOM     20  O   UNL     1      30.360  31.433  15.585  1.00  0.00    -0.391 OA
ATOM     21  H   UNL     1      29.502  31.556  16.103  1.00  0.00     0.211 HD
ENDBRANCH  12  20
BRANCH  13  22
ATOM     22  N   UNL     1      31.239  33.593  18.231  1.00  0.00    -0.348 N 
ATOM     23  C   UNL     1      30.856  33.090  19.500  1.00  0.00     0.217 C 
ATOM     24  H   UNL     1      32.104  34.165  18.177  1.00  0.00     0.163 HD
ATOM     25  C   UNL     1      31.631  33.342  20.749  1.00  0.00     0.114 C 
ATOM     26  O   UNL     1      29.789  32.390  19.541  1.00  0.00    -0.275 OA
ENDBRANCH  13  22
ENDBRANCH   7   8
BRANCH   7  27
ATOM     27  O   UNL     1      28.131  34.259  17.864  1.00  0.00    -0.388 OA
ATOM     28  H   UNL     1      27.603  34.929  18.400  1.00  0.00     0.211 HD
ENDBRANCH   7  27
ENDBRANCH   6   7
BRANCH   6  29
ATOM     29  O   UNL     1      26.798  35.500  15.147  1.00  0.00    -0.388 OA
ATOM     30  H   UNL     1      27.200  36.036  14.445  1.00  0.00     0.211 HD
ENDBRANCH   6  29
ENDBRANCH   5   6
ENDBRANCH   1   5
BRANCH   2  31
ATOM     31  O   UNL     1      27.710  29.663  16.089  1.00  0.00    -0.443 OA
BRANCH  31  32
ATOM     32  C   UNL     1      27.177  28.630  16.900  1.00  0.00     0.294 C 
BRANCH  32  33
ATOM     33  C   UNL     1      27.173  29.008  18.328  1.00  0.00     0.120 A 
ATOM     34  C   UNL     1      28.292  29.193  19.154  1.00  0.00     0.138 A 
ATOM     35  N   UNL     1      26.137  29.252  19.138  1.00  0.00    -0.132 NA
ATOM     36  N   UNL     1      27.926  29.525  20.380  1.00  0.00    -0.248 N 
ATOM     37  N   UNL     1      26.573  29.555  20.342  1.00  0.00    -0.067 NA
BRANCH  36  38
ATOM     38  C   UNL     1      28.636  29.813  21.603  1.00  0.00     0.182 C 
BRANCH  38  39
ATOM     39  C   UNL     1      29.891  29.098  21.794  1.00  0.00    -0.012 A 
ATOM     40  C   UNL     1      31.097  29.624  21.323  1.00  0.00     0.007 A 
ATOM     41  C   UNL     1      29.958  27.909  22.460  1.00  0.00     0.023 A 
ATOM     42  C   UNL     1      32.270  28.955  21.539  1.00  0.00     0.000 A 
ATOM     43  C   UNL     1      31.146  27.235  22.676  1.00  0.00     0.016 A 
ATOM     44  Br  UNL     1      28.362  27.046  23.119  1.00  0.00    -0.050 Br
ATOM     45  C   UNL     1      32.326  27.760  22.212  1.00  0.00     0.001 A 
ENDBRANCH  38  39
ENDBRANCH  36  38
ENDBRANCH  32  33
ENDBRANCH  31  32
ENDBRANCH   2  31
TORSDOF 16
BEGIN_RES LYS A 131
REMARK  4 active torsions:
REMARK  status: ('A' for Active; 'I' for Inactive)
REMARK    1  A    between atoms: CA   and  CB  
REMARK    2  A    between atoms: CB   and  CG  
REMARK    3  A    between atoms: CG   and  CD  
REMARK    4  A    between atoms: CD   and  CE  
ROOT
ATOM      1  CA  LYS A 131      29.867  25.555  16.977  1.00 20.52     0.186 C 
ENDROOT
BRANCH   1   2
ATOM      2  CB  LYS A 131      28.345  25.722  17.026  1.00 20.94     0.034 C 
BRANCH   2   3
ATOM      3  CG  LYS A 131      27.602  24.398  16.931  1.00 22.96     0.005 C 
BRANCH   3   4
ATOM      4  CD  LYS A 131      26.670  24.187  18.092  1.00 24.33     0.041 C 
BRANCH   4   5
ATOM      5  CE  LYS A 131      25.903  25.476  18.370  1.00 26.91     0.338 C 
ATOM      6  NZ  LYS A 131      25.924  25.791  19.818  1.00 27.40     0.618 N 
ENDBRANCH   4   5
ENDBRANCH   3   4
ENDBRANCH   2   3
ENDBRANCH   1   2
END_RES LYS A 131
BEGIN_RES LYS A 135
REMARK  4 active torsions:
REMARK  status: ('A' for Active; 'I' for Inactive)
REMARK    5  A    between atoms: CA   and  CB  
REMARK    6  A    between atoms: CB   and  CG  
REMARK    7  A    between atoms: CG   and  CD  
REMARK    8  A    between atoms: CD   and  CE  
ROOT
ATOM      7  CA  LYS A 135      33.193  34.663   9.290  1.00 25.02     0.186 C 
ENDROOT
BRANCH   7   8
ATOM      8  CB  LYS A 135      32.060  35.360  10.034  1.00 26.63     0.034 C 
BRANCH   8   9
ATOM      9  CG  LYS A 135      30.703  34.767   9.757  1.00 29.45     0.005 C 
BRANCH   9  10
ATOM     10  CD  LYS A 135      30.517  34.525   8.267  1.00 32.00     0.041 C 
BRANCH  10  11
ATOM     11  CE  LYS A 135      29.107  34.885   7.840  1.00 34.25     0.338 C 
ATOM     12  NZ  LYS A 135      28.102  34.337   8.792  1.00 35.99     0.618 N 
ENDBRANCH  10  11
ENDBRANCH   9  10
ENDBRANCH   8   9
ENDBRANCH   7   8
END_RES LYS A 135
