REMARK VINA RESULT:    -4.126      8.027     11.071
REMARK INTER + INTRA:         -14.653
REMARK INTER:                  -7.865
REMARK INTRA:                  -6.788
REMARK UNBOUND:                -6.788
REMARK SMILES CC(=O)N[C@@H]1[C@@H](O)C[C@](O)(C(=O)O)O[C@H]1C(O)[C@H](O)CNC(=O)OCc1cn(CC(=O)NCc2cccs2)nn1
REMARK SMILES IDX 21 1 22 2 23 3 20 5 18 6 16 7 15 8 9 9 8 10 14 11 6 12 5 13
REMARK SMILES IDX 10 14 11 16 12 17 13 18 7 20 4 22 2 23 1 25 3 26 17 27 19 29
REMARK SMILES IDX 24 31 25 32 26 33 27 34 40 35 28 36 39 37 29 38 30 39 31 40
REMARK SMILES IDX 32 41 33 43 34 44 35 45 38 46 36 47 37 48
REMARK H PARENT 21 4 10 15 13 19 7 21 4 24 17 28 19 30 32 42
REMARK Flexibility Score: inf
ROOT
ATOM      1  N   UNL     1      15.101  30.688   6.031  1.00  0.00    -0.319 N 
ATOM      2  C   UNL     1      15.923  29.669   5.506  1.00  0.00     0.407 C 
ATOM      3  O   UNL     1      16.881  29.997   4.764  1.00  0.00    -0.225 OA
ATOM      4  H   UNL     1      14.311  30.392   6.645  1.00  0.00     0.167 HD
ENDROOT
BRANCH   1   5
ATOM      5  C   UNL     1      15.273  32.106   5.786  1.00  0.00     0.154 C 
BRANCH   5   6
ATOM      6  C   UNL     1      15.657  32.827   7.047  1.00  0.00     0.165 C 
BRANCH   6   7
ATOM      7  C   UNL     1      17.121  32.857   7.329  1.00  0.00     0.176 C 
BRANCH   7   8
ATOM      8  C   UNL     1      17.626  33.859   8.297  1.00  0.00     0.178 C 
ATOM      9  C   UNL     1      19.488  35.261   8.497  1.00  0.00     0.269 C 
ATOM     10  C   UNL     1      18.616  35.837   9.598  1.00  0.00     0.112 C 
ATOM     11  O   UNL     1      18.874  34.303   7.747  1.00  0.00    -0.332 OA
ATOM     12  C   UNL     1      18.201  34.718  10.489  1.00  0.00     0.145 C 
ATOM     13  C   UNL     1      17.950  33.435   9.671  1.00  0.00     0.142 C 
BRANCH   9  14
ATOM     14  O   UNL     1      20.638  34.778   9.151  1.00  0.00    -0.357 OA
ATOM     15  H   UNL     1      21.075  35.540   9.622  1.00  0.00     0.214 HD
ENDBRANCH   9  14
BRANCH   9  16
ATOM     16  C   UNL     1      19.929  36.336   7.571  1.00  0.00     0.364 C 
ATOM     17  O   UNL     1      19.103  37.200   7.210  1.00  0.00    -0.246 OA
BRANCH  16  18
ATOM     18  O   UNL     1      21.235  36.410   7.094  1.00  0.00    -0.477 OA
ATOM     19  H   UNL     1      21.973  36.301   7.791  1.00  0.00     0.296 HD
ENDBRANCH  16  18
ENDBRANCH   9  16
BRANCH  12  20
ATOM     20  O   UNL     1      19.073  34.474  11.527  1.00  0.00    -0.391 OA
ATOM     21  H   UNL     1      19.599  33.651  11.371  1.00  0.00     0.211 HD
ENDBRANCH  12  20
BRANCH  13  22
ATOM     22  N   UNL     1      16.993  32.698  10.409  1.00  0.00    -0.348 N 
ATOM     23  C   UNL     1      17.407  31.691  11.306  1.00  0.00     0.217 C 
ATOM     24  H   UNL     1      15.983  32.872  10.316  1.00  0.00     0.163 HD
ATOM     25  C   UNL     1      16.434  30.885  12.106  1.00  0.00     0.114 C 
ATOM     26  O   UNL     1      18.638  31.404  11.491  1.00  0.00    -0.275 OA
ENDBRANCH  13  22
ENDBRANCH   7   8
BRANCH   7  27
ATOM     27  O   UNL     1      17.747  31.619   7.345  1.00  0.00    -0.388 OA
ATOM     28  H   UNL     1      18.116  31.342   6.497  1.00  0.00     0.211 HD
ENDBRANCH   7  27
ENDBRANCH   6   7
BRANCH   6  29
ATOM     29  O   UNL     1      14.889  32.491   8.155  1.00  0.00    -0.388 OA
ATOM     30  H   UNL     1      15.390  31.988   8.837  1.00  0.00     0.211 HD
ENDBRANCH   6  29
ENDBRANCH   5   6
ENDBRANCH   1   5
BRANCH   2  31
ATOM     31  O   UNL     1      15.710  28.312   5.782  1.00  0.00    -0.443 OA
BRANCH  31  32
ATOM     32  C   UNL     1      15.093  27.911   6.992  1.00  0.00     0.294 C 
BRANCH  32  33
ATOM     33  C   UNL     1      16.115  27.977   8.074  1.00  0.00     0.120 A 
ATOM     34  C   UNL     1      16.762  26.933   8.701  1.00  0.00     0.138 A 
ATOM     35  N   UNL     1      16.609  29.081   8.658  1.00  0.00    -0.132 NA
ATOM     36  N   UNL     1      17.605  27.426   9.621  1.00  0.00    -0.243 N 
ATOM     37  N   UNL     1      17.492  28.736   9.574  1.00  0.00    -0.067 NA
BRANCH  36  38
ATOM     38  C   UNL     1      18.472  26.610  10.486  1.00  0.00     0.245 C 
BRANCH  38  39
ATOM     39  C   UNL     1      18.724  27.410  11.708  1.00  0.00     0.242 C 
ATOM     40  O   UNL     1      17.922  27.281  12.691  1.00  0.00    -0.273 OA
ATOM     41  N   UNL     1      19.794  28.319  11.881  1.00  0.00    -0.350 N 
ATOM     42  H   UNL     1      20.444  28.423  11.082  1.00  0.00     0.163 HD
BRANCH  41  43
ATOM     43  C   UNL     1      20.002  29.077  13.093  1.00  0.00     0.162 C 
BRANCH  43  44
ATOM     44  C   UNL     1      21.420  29.610  13.028  1.00  0.00     0.024 A 
ATOM     45  C   UNL     1      21.853  30.844  12.799  1.00  0.00     0.017 A 
ATOM     46  S   UNL     1      22.865  28.680  13.248  1.00  0.00    -0.147 S 
ATOM     47  C   UNL     1      23.175  31.117  12.780  1.00  0.00     0.012 A 
ATOM     48  C   UNL     1      24.024  30.026  13.016  1.00  0.00     0.065 A 
ENDBRANCH  43  44
ENDBRANCH  41  43
ENDBRANCH  38  39
ENDBRANCH  36  38
ENDBRANCH  32  33
ENDBRANCH  31  32
ENDBRANCH   2  31
TORSDOF 18
BEGIN_RES LYS A 131
REMARK  4 active torsions:
REMARK  status: ('A' for Active; 'I' for Inactive)
REMARK    1  A    between atoms: CA   and  CB  
REMARK    2  A    between atoms: CB   and  CG  
REMARK    3  A    between atoms: CG   and  CD  
REMARK    4  A    between atoms: CD   and  CE  
ROOT
ATOM      1  CA  LYS A 131      29.867  25.555  16.977  1.00 20.52     0.186 C 
ENDROOT
BRANCH   1   2
ATOM      2  CB  LYS A 131      28.345  25.722  17.026  1.00 20.94     0.034 C 
BRANCH   2   3
ATOM      3  CG  LYS A 131      27.601  24.406  16.859  1.00 22.96     0.005 C 
BRANCH   3   4
ATOM      4  CD  LYS A 131      26.589  24.185  17.950  1.00 24.33     0.041 C 
BRANCH   4   5
ATOM      5  CE  LYS A 131      25.325  23.573  17.355  1.00 26.91     0.338 C 
ATOM      6  NZ  LYS A 131      24.419  24.635  16.858  1.00 27.40     0.618 N 
ENDBRANCH   4   5
ENDBRANCH   3   4
ENDBRANCH   2   3
ENDBRANCH   1   2
END_RES LYS A 131
BEGIN_RES LYS A 135
REMARK  4 active torsions:
REMARK  status: ('A' for Active; 'I' for Inactive)
REMARK    5  A    between atoms: CA   and  CB  
REMARK    6  A    between atoms: CB   and  CG  
REMARK    7  A    between atoms: CG   and  CD  
REMARK    8  A    between atoms: CD   and  CE  
ROOT
ATOM      7  CA  LYS A 135      33.193  34.663   9.290  1.00 25.02     0.186 C 
ENDROOT
BRANCH   7   8
ATOM      8  CB  LYS A 135      32.060  35.360  10.034  1.00 26.63     0.034 C 
BRANCH   8   9
ATOM      9  CG  LYS A 135      30.820  35.552   9.200  1.00 29.45     0.005 C 
BRANCH   9  10
ATOM     10  CD  LYS A 135      30.165  34.213   8.896  1.00 32.00     0.041 C 
BRANCH  10  11
ATOM     11  CE  LYS A 135      28.685  34.396   8.616  1.00 34.25     0.338 C 
ATOM     12  NZ  LYS A 135      27.856  33.665   9.614  1.00 35.99     0.618 N 
ENDBRANCH  10  11
ENDBRANCH   9  10
ENDBRANCH   8   9
ENDBRANCH   7   8
END_RES LYS A 135
