REMARK VINA RESULT:    -4.763     10.902     16.721
REMARK INTER + INTRA:         -13.516
REMARK INTER:                  -8.132
REMARK INTRA:                  -5.383
REMARK UNBOUND:                -5.272
REMARK SMILES CC(=O)N[C@@H]1[C@@H](O)C[C@](O)(C(=O)O)O[C@H]1C(O)[C@H](O)CNC(=O)OCc1cn(-c2ccncc2)nn1
REMARK SMILES IDX 20 1 18 2 16 3 15 4 9 5 8 6 14 7 6 8 5 9 10 10 11 12 12 13
REMARK SMILES IDX 13 14 7 16 4 18 2 19 1 21 3 22 17 23 19 25 21 27 22 28 23 30
REMARK SMILES IDX 24 31 25 32 26 33 27 34 36 35 28 36 35 37 29 38 30 39 34 40
REMARK SMILES IDX 31 41 33 42 32 43
REMARK H PARENT 10 11 13 15 7 17 4 20 17 24 19 26 21 29
REMARK Flexibility Score: inf
ROOT
ATOM      1  C   UNL     1      18.022  39.602   9.489  1.00  0.00     0.154 C 
ENDROOT
BRANCH   1   2
ATOM      2  C   UNL     1      17.676  39.437   8.051  1.00  0.00     0.165 C 
BRANCH   2   3
ATOM      3  C   UNL     1      17.109  38.062   7.739  1.00  0.00     0.176 C 
BRANCH   3   4
ATOM      4  C   UNL     1      17.913  36.945   8.299  1.00  0.00     0.178 C 
ATOM      5  C   UNL     1      19.697  35.532   7.920  1.00  0.00     0.269 C 
ATOM      6  C   UNL     1      19.267  34.901   9.220  1.00  0.00     0.112 C 
ATOM      7  O   UNL     1      19.114  36.746   7.677  1.00  0.00    -0.332 OA
ATOM      8  C   UNL     1      17.775  34.747   9.326  1.00  0.00     0.145 C 
ATOM      9  C   UNL     1      17.149  35.632   8.266  1.00  0.00     0.142 C 
BRANCH   5  10
ATOM     10  O   UNL     1      19.536  34.661   6.842  1.00  0.00    -0.357 OA
ATOM     11  H   UNL     1      19.059  35.095   6.084  1.00  0.00     0.214 HD
ENDBRANCH   5  10
BRANCH   5  12
ATOM     12  C   UNL     1      21.178  35.773   8.040  1.00  0.00     0.364 C 
ATOM     13  O   UNL     1      21.859  35.375   8.997  1.00  0.00    -0.246 OA
BRANCH  12  14
ATOM     14  O   UNL     1      21.761  36.484   6.994  1.00  0.00    -0.477 OA
ATOM     15  H   UNL     1      22.596  37.041   7.154  1.00  0.00     0.296 HD
ENDBRANCH  12  14
ENDBRANCH   5  12
BRANCH   8  16
ATOM     16  O   UNL     1      17.372  33.423   9.151  1.00  0.00    -0.391 OA
ATOM     17  H   UNL     1      16.424  33.330   9.413  1.00  0.00     0.211 HD
ENDBRANCH   8  16
BRANCH   9  18
ATOM     18  N   UNL     1      15.735  35.820   8.491  1.00  0.00    -0.348 N 
ATOM     19  C   UNL     1      14.775  35.053   7.776  1.00  0.00     0.217 C 
ATOM     20  H   UNL     1      15.380  36.514   9.174  1.00  0.00     0.163 HD
ATOM     21  C   UNL     1      13.302  35.222   7.985  1.00  0.00     0.114 C 
ATOM     22  O   UNL     1      15.178  34.204   6.941  1.00  0.00    -0.275 OA
ENDBRANCH   9  18
ENDBRANCH   3   4
BRANCH   3  23
ATOM     23  O   UNL     1      16.760  37.957   6.418  1.00  0.00    -0.388 OA
ATOM     24  H   UNL     1      15.768  37.942   6.343  1.00  0.00     0.211 HD
ENDBRANCH   3  23
ENDBRANCH   2   3
BRANCH   2  25
ATOM     25  O   UNL     1      18.762  39.595   7.209  1.00  0.00    -0.388 OA
ATOM     26  H   UNL     1      19.267  38.767   7.051  1.00  0.00     0.211 HD
ENDBRANCH   2  25
ENDBRANCH   1   2
BRANCH   1  27
ATOM     27  N   UNL     1      19.416  39.891   9.662  1.00  0.00    -0.319 N 
ATOM     28  C   UNL     1      20.397  39.092  10.260  1.00  0.00     0.407 C 
ATOM     29  H   UNL     1      19.774  40.839   9.290  1.00  0.00     0.167 HD
ATOM     30  O   UNL     1      20.115  37.990  10.733  1.00  0.00    -0.225 OA
BRANCH  28  31
ATOM     31  O   UNL     1      21.744  39.490  10.358  1.00  0.00    -0.443 OA
BRANCH  31  32
ATOM     32  C   UNL     1      22.472  39.792   9.162  1.00  0.00     0.294 C 
BRANCH  32  33
ATOM     33  C   UNL     1      23.434  38.732   8.847  1.00  0.00     0.121 A 
ATOM     34  C   UNL     1      24.163  37.929   9.696  1.00  0.00     0.144 A 
ATOM     35  N   UNL     1      23.777  38.352   7.599  1.00  0.00    -0.131 NA
ATOM     36  N   UNL     1      24.908  37.107   8.922  1.00  0.00    -0.220 N 
ATOM     37  N   UNL     1      24.669  37.370   7.662  1.00  0.00    -0.062 NA
BRANCH  36  38
ATOM     38  C   UNL     1      25.818  36.103   9.376  1.00  0.00     0.069 A 
ATOM     39  C   UNL     1      26.291  36.175  10.665  1.00  0.00     0.048 A 
ATOM     40  C   UNL     1      26.216  35.078   8.526  1.00  0.00     0.048 A 
ATOM     41  C   UNL     1      27.168  35.199  11.086  1.00  0.00     0.113 A 
ATOM     42  C   UNL     1      27.086  34.135   8.991  1.00  0.00     0.113 A 
ATOM     43  N   UNL     1      27.542  34.215  10.258  1.00  0.00    -0.265 NA
ENDBRANCH  36  38
ENDBRANCH  32  33
ENDBRANCH  31  32
ENDBRANCH  28  31
ENDBRANCH   1  27
TORSDOF 15
BEGIN_RES LYS A 131
REMARK  4 active torsions:
REMARK  status: ('A' for Active; 'I' for Inactive)
REMARK    1  A    between atoms: CA   and  CB  
REMARK    2  A    between atoms: CB   and  CG  
REMARK    3  A    between atoms: CG   and  CD  
REMARK    4  A    between atoms: CD   and  CE  
ROOT
ATOM      1  CA  LYS A 131      29.867  25.555  16.977  1.00 20.52     0.186 C 
ENDROOT
BRANCH   1   2
ATOM      2  CB  LYS A 131      28.345  25.722  17.026  1.00 20.94     0.034 C 
BRANCH   2   3
ATOM      3  CG  LYS A 131      27.599  24.439  16.693  1.00 22.96     0.005 C 
BRANCH   3   4
ATOM      4  CD  LYS A 131      26.811  23.922  17.865  1.00 24.33     0.041 C 
BRANCH   4   5
ATOM      5  CE  LYS A 131      25.355  23.729  17.454  1.00 26.91     0.338 C 
ATOM      6  NZ  LYS A 131      24.908  22.349  17.759  1.00 27.40     0.618 N 
ENDBRANCH   4   5
ENDBRANCH   3   4
ENDBRANCH   2   3
ENDBRANCH   1   2
END_RES LYS A 131
BEGIN_RES LYS A 135
REMARK  4 active torsions:
REMARK  status: ('A' for Active; 'I' for Inactive)
REMARK    5  A    between atoms: CA   and  CB  
REMARK    6  A    between atoms: CB   and  CG  
REMARK    7  A    between atoms: CG   and  CD  
REMARK    8  A    between atoms: CD   and  CE  
ROOT
ATOM      7  CA  LYS A 135      33.193  34.663   9.290  1.00 25.02     0.186 C 
ENDROOT
BRANCH   7   8
ATOM      8  CB  LYS A 135      32.060  35.360  10.034  1.00 26.63     0.034 C 
BRANCH   8   9
ATOM      9  CG  LYS A 135      30.771  35.414   9.255  1.00 29.45     0.005 C 
BRANCH   9  10
ATOM     10  CD  LYS A 135      30.201  36.824   9.258  1.00 32.00     0.041 C 
BRANCH  10  11
ATOM     11  CE  LYS A 135      29.317  37.043   8.045  1.00 34.25     0.338 C 
ATOM     12  NZ  LYS A 135      28.499  38.279   8.194  1.00 35.99     0.618 N 
ENDBRANCH  10  11
ENDBRANCH   9  10
ENDBRANCH   8   9
ENDBRANCH   7   8
END_RES LYS A 135
