REMARK VINA RESULT:    -3.995      4.988      9.644
REMARK INTER + INTRA:         -15.520
REMARK INTER:                  -8.152
REMARK INTRA:                  -7.367
REMARK UNBOUND:                -7.438
REMARK SMILES CC(=O)N[C@@H]1[C@@H](O)C[C@](O)(C(=O)O)O[C@H]1C(O)[C@H](O)CNC(=O)OCc1cn([C@@H](CCC(=O)O)C(=O)O)nn1
REMARK SMILES IDX 24 1 22 2 21 3 23 5 20 6 18 7 16 8 15 9 9 10 8 11 14 12 6 13
REMARK SMILES IDX 5 14 10 15 11 17 12 18 13 19 7 21 4 23 2 24 1 26 3 27 17 28
REMARK SMILES IDX 19 30 25 32 26 33 27 34 39 35 28 36 38 37 29 38 30 39 31 40
REMARK SMILES IDX 32 41 33 42 34 43 35 45 36 46 37 47
REMARK H PARENT 21 4 10 16 13 20 7 22 4 25 17 29 19 31 34 44 37 48
REMARK Flexibility Score: inf
ROOT
ATOM      1  O   UNL     1      29.071  35.187  19.296  1.00  0.00    -0.443 OA
ENDROOT
BRANCH   1   2
ATOM      2  C   UNL     1      29.546  36.436  18.874  1.00  0.00     0.407 C 
ATOM      3  N   UNL     1      30.751  36.590  18.175  1.00  0.00    -0.319 N 
ATOM      4  H   UNL     1      31.296  35.682  17.992  1.00  0.00     0.167 HD
ATOM      5  O   UNL     1      28.842  37.420  19.151  1.00  0.00    -0.225 OA
BRANCH   3   6
ATOM      6  C   UNL     1      31.322  37.813  17.689  1.00  0.00     0.154 C 
BRANCH   6   7
ATOM      7  C   UNL     1      30.717  38.230  16.406  1.00  0.00     0.165 C 
BRANCH   7   8
ATOM      8  C   UNL     1      31.369  37.585  15.197  1.00  0.00     0.176 C 
BRANCH   8   9
ATOM      9  C   UNL     1      30.434  36.537  14.586  1.00  0.00     0.178 C 
ATOM     10  C   UNL     1      31.242  34.430  15.208  1.00  0.00     0.269 C 
ATOM     11  C   UNL     1      32.250  34.643  14.115  1.00  0.00     0.112 C 
ATOM     12  O   UNL     1      30.313  35.416  15.338  1.00  0.00    -0.332 OA
ATOM     13  C   UNL     1      31.726  35.259  12.868  1.00  0.00     0.145 C 
ATOM     14  C   UNL     1      30.716  36.339  13.126  1.00  0.00     0.142 C 
BRANCH  10  15
ATOM     15  O   UNL     1      31.969  34.368  16.397  1.00  0.00    -0.357 OA
ATOM     16  H   UNL     1      32.095  33.447  16.703  1.00  0.00     0.214 HD
ENDBRANCH  10  15
BRANCH  10  17
ATOM     17  C   UNL     1      30.575  33.116  15.026  1.00  0.00     0.364 C 
ATOM     18  O   UNL     1      29.340  33.062  14.820  1.00  0.00    -0.246 OA
BRANCH  17  19
ATOM     19  O   UNL     1      31.279  31.916  15.077  1.00  0.00    -0.477 OA
ATOM     20  H   UNL     1      31.714  31.615  14.204  1.00  0.00     0.296 HD
ENDBRANCH  17  19
ENDBRANCH  10  17
BRANCH  13  21
ATOM     21  O   UNL     1      32.804  35.806  12.174  1.00  0.00    -0.391 OA
ATOM     22  H   UNL     1      33.568  35.988  12.782  1.00  0.00     0.211 HD
ENDBRANCH  13  21
BRANCH  14  23
ATOM     23  N   UNL     1      29.469  36.107  12.457  1.00  0.00    -0.348 N 
ATOM     24  C   UNL     1      28.820  37.178  11.792  1.00  0.00     0.217 C 
ATOM     25  H   UNL     1      29.032  35.140  12.460  1.00  0.00     0.163 HD
ATOM     26  C   UNL     1      27.535  36.943  11.103  1.00  0.00     0.114 C 
ATOM     27  O   UNL     1      29.299  38.344  11.763  1.00  0.00    -0.275 OA
ENDBRANCH  14  23
ENDBRANCH   8   9
BRANCH   8  28
ATOM     28  O   UNL     1      31.640  38.558  14.254  1.00  0.00    -0.388 OA
ATOM     29  H   UNL     1      31.028  38.434  13.486  1.00  0.00     0.211 HD
ENDBRANCH   8  28
ENDBRANCH   7   8
BRANCH   7  30
ATOM     30  O   UNL     1      30.577  39.574  16.290  1.00  0.00    -0.388 OA
ATOM     31  H   UNL     1      29.698  39.886  15.976  1.00  0.00     0.211 HD
ENDBRANCH   7  30
ENDBRANCH   6   7
ENDBRANCH   3   6
ENDBRANCH   1   2
BRANCH   1  32
ATOM     32  C   UNL     1      29.997  34.186  19.709  1.00  0.00     0.294 C 
BRANCH  32  33
ATOM     33  C   UNL     1      29.826  32.941  18.972  1.00  0.00     0.120 A 
ATOM     34  C   UNL     1      28.675  32.241  18.734  1.00  0.00     0.139 A 
ATOM     35  N   UNL     1      30.797  32.235  18.373  1.00  0.00    -0.132 NA
ATOM     36  N   UNL     1      28.948  31.146  18.011  1.00  0.00    -0.238 N 
ATOM     37  N   UNL     1      30.251  31.172  17.808  1.00  0.00    -0.066 NA
BRANCH  36  38
ATOM     38  C   UNL     1      28.086  30.091  17.508  1.00  0.00     0.219 C 
BRANCH  38  39
ATOM     39  C   UNL     1      26.947  29.866  18.433  1.00  0.00     0.051 C 
BRANCH  39  40
ATOM     40  C   UNL     1      26.752  28.476  18.910  1.00  0.00     0.125 C 
BRANCH  40  41
ATOM     41  C   UNL     1      25.476  27.887  18.512  1.00  0.00     0.303 C 
ATOM     42  O   UNL     1      24.965  28.115  17.361  1.00  0.00    -0.252 OA
BRANCH  41  43
ATOM     43  O   UNL     1      24.785  27.056  19.398  1.00  0.00    -0.481 OA
ATOM     44  H   UNL     1      24.579  26.117  19.087  1.00  0.00     0.296 HD
ENDBRANCH  41  43
ENDBRANCH  40  41
ENDBRANCH  39  40
ENDBRANCH  38  39
BRANCH  38  45
ATOM     45  C   UNL     1      27.788  30.205  16.091  1.00  0.00     0.328 C 
ATOM     46  O   UNL     1      26.678  30.384  15.594  1.00  0.00    -0.250 OA
BRANCH  45  47
ATOM     47  O   UNL     1      28.876  30.092  15.204  1.00  0.00    -0.480 OA
ATOM     48  H   UNL     1      29.125  29.181  14.860  1.00  0.00     0.296 HD
ENDBRANCH  45  47
ENDBRANCH  38  45
ENDBRANCH  36  38
ENDBRANCH  32  33
ENDBRANCH   1  32
TORSDOF 21
BEGIN_RES LYS A 131
REMARK  4 active torsions:
REMARK  status: ('A' for Active; 'I' for Inactive)
REMARK    1  A    between atoms: CA   and  CB  
REMARK    2  A    between atoms: CB   and  CG  
REMARK    3  A    between atoms: CG   and  CD  
REMARK    4  A    between atoms: CD   and  CE  
ROOT
ATOM      1  CA  LYS A 131      29.867  25.555  16.977  1.00 20.52     0.186 C 
ENDROOT
BRANCH   1   2
ATOM      2  CB  LYS A 131      28.345  25.722  17.026  1.00 20.94     0.034 C 
BRANCH   2   3
ATOM      3  CG  LYS A 131      27.602  24.398  16.929  1.00 22.96     0.005 C 
BRANCH   3   4
ATOM      4  CD  LYS A 131      26.513  24.283  17.960  1.00 24.33     0.041 C 
BRANCH   4   5
ATOM      5  CE  LYS A 131      25.275  23.660  17.325  1.00 26.91     0.338 C 
ATOM      6  NZ  LYS A 131      24.335  24.715  16.876  1.00 27.40     0.618 N 
ENDBRANCH   4   5
ENDBRANCH   3   4
ENDBRANCH   2   3
ENDBRANCH   1   2
END_RES LYS A 131
BEGIN_RES LYS A 135
REMARK  4 active torsions:
REMARK  status: ('A' for Active; 'I' for Inactive)
REMARK    5  A    between atoms: CA   and  CB  
REMARK    6  A    between atoms: CB   and  CG  
REMARK    7  A    between atoms: CG   and  CD  
REMARK    8  A    between atoms: CD   and  CE  
ROOT
ATOM      7  CA  LYS A 135      33.193  34.663   9.290  1.00 25.02     0.186 C 
ENDROOT
BRANCH   7   8
ATOM      8  CB  LYS A 135      32.060  35.360  10.034  1.00 26.63     0.034 C 
BRANCH   8   9
ATOM      9  CG  LYS A 135      30.811  35.530   9.208  1.00 29.45     0.005 C 
BRANCH   9  10
ATOM     10  CD  LYS A 135      30.072  34.207   9.074  1.00 32.00     0.041 C 
BRANCH  10  11
ATOM     11  CE  LYS A 135      28.651  34.437   8.596  1.00 34.25     0.338 C 
ATOM     12  NZ  LYS A 135      27.676  33.683   9.432  1.00 35.99     0.618 N 
ENDBRANCH  10  11
ENDBRANCH   9  10
ENDBRANCH   8   9
ENDBRANCH   7   8
END_RES LYS A 135
