REMARK VINA RESULT:    -4.171      3.506      5.783
REMARK INTER + INTRA:         -13.947
REMARK INTER:                  -7.642
REMARK INTRA:                  -6.304
REMARK UNBOUND:                -6.362
REMARK SMILES CC(=O)N[C@@H]1[C@@H](O)C[C@](O)(C(=O)O)O[C@H]1C(O)[C@H](O)CNC(=O)OCc1cn(CC(=O)O)nn1
REMARK SMILES IDX 21 1 22 2 23 3 20 5 18 6 16 7 15 8 9 9 8 10 14 11 6 12 5 13
REMARK SMILES IDX 10 14 11 16 12 17 13 18 7 20 4 22 2 23 1 25 3 26 17 27 19 29
REMARK SMILES IDX 24 31 25 32 26 33 27 34 34 35 28 36 33 37 29 38 30 39 31 40
REMARK SMILES IDX 32 41
REMARK H PARENT 21 4 10 15 13 19 7 21 4 24 17 28 19 30 32 42
REMARK Flexibility Score: inf
ROOT
ATOM      1  N   UNL     1      25.496  28.220  17.920  1.00  0.00    -0.319 N 
ATOM      2  C   UNL     1      24.730  29.392  17.775  1.00  0.00     0.407 C 
ATOM      3  O   UNL     1      24.324  30.036  18.742  1.00  0.00    -0.225 OA
ATOM      4  H   UNL     1      25.792  27.762  17.005  1.00  0.00     0.167 HD
ENDROOT
BRANCH   1   5
ATOM      5  C   UNL     1      25.901  27.603  19.156  1.00  0.00     0.154 C 
BRANCH   5   6
ATOM      6  C   UNL     1      27.375  27.555  19.408  1.00  0.00     0.165 C 
BRANCH   6   7
ATOM      7  C   UNL     1      27.738  27.239  20.810  1.00  0.00     0.176 C 
BRANCH   7   8
ATOM      8  C   UNL     1      29.045  27.814  21.285  1.00  0.00     0.178 C 
ATOM      9  C   UNL     1      31.261  28.127  20.560  1.00  0.00     0.269 C 
ATOM     10  C   UNL     1      31.801  27.921  21.937  1.00  0.00     0.112 C 
ATOM     11  O   UNL     1      30.020  27.666  20.288  1.00  0.00    -0.332 OA
ATOM     12  C   UNL     1      30.735  28.122  22.967  1.00  0.00     0.145 C 
ATOM     13  C   UNL     1      29.583  27.191  22.545  1.00  0.00     0.142 C 
BRANCH   9  14
ATOM     14  O   UNL     1      32.216  27.549  19.671  1.00  0.00    -0.357 OA
ATOM     15  H   UNL     1      32.324  28.217  18.941  1.00  0.00     0.214 HD
ENDBRANCH   9  14
BRANCH   9  16
ATOM     16  C   UNL     1      31.326  29.587  20.251  1.00  0.00     0.364 C 
ATOM     17  O   UNL     1      31.952  30.427  20.930  1.00  0.00    -0.246 OA
BRANCH  16  18
ATOM     18  O   UNL     1      30.651  30.053  19.143  1.00  0.00    -0.477 OA
ATOM     19  H   UNL     1      29.657  30.270  19.150  1.00  0.00     0.296 HD
ENDBRANCH  16  18
ENDBRANCH   9  16
BRANCH  12  20
ATOM     20  O   UNL     1      31.163  27.806  24.252  1.00  0.00    -0.391 OA
ATOM     21  H   UNL     1      30.371  27.465  24.745  1.00  0.00     0.211 HD
ENDBRANCH  12  20
BRANCH  13  22
ATOM     22  N   UNL     1      28.677  27.055  23.639  1.00  0.00    -0.348 N 
ATOM     23  C   UNL     1      28.674  25.911  24.493  1.00  0.00     0.217 C 
ATOM     24  H   UNL     1      27.997  27.808  23.846  1.00  0.00     0.163 HD
ATOM     25  C   UNL     1      27.750  25.735  25.637  1.00  0.00     0.114 C 
ATOM     26  O   UNL     1      29.507  25.005  24.258  1.00  0.00    -0.275 OA
ENDBRANCH  13  22
ENDBRANCH   7   8
BRANCH   7  27
ATOM     27  O   UNL     1      26.683  27.470  21.678  1.00  0.00    -0.388 OA
ATOM     28  H   UNL     1      26.027  26.727  21.675  1.00  0.00     0.211 HD
ENDBRANCH   7  27
ENDBRANCH   6   7
BRANCH   6  29
ATOM     29  O   UNL     1      27.932  28.776  18.994  1.00  0.00    -0.388 OA
ATOM     30  H   UNL     1      28.090  29.383  19.752  1.00  0.00     0.211 HD
ENDBRANCH   6  29
ENDBRANCH   5   6
ENDBRANCH   1   5
BRANCH   2  31
ATOM     31  O   UNL     1      24.399  29.877  16.512  1.00  0.00    -0.443 OA
BRANCH  31  32
ATOM     32  C   UNL     1      25.279  29.979  15.437  1.00  0.00     0.294 C 
BRANCH  32  33
ATOM     33  C   UNL     1      26.630  30.480  15.791  1.00  0.00     0.120 A 
ATOM     34  C   UNL     1      27.114  31.751  15.806  1.00  0.00     0.139 A 
ATOM     35  N   UNL     1      27.676  29.697  16.185  1.00  0.00    -0.132 NA
ATOM     36  N   UNL     1      28.401  31.718  16.195  1.00  0.00    -0.241 N 
ATOM     37  N   UNL     1      28.726  30.473  16.421  1.00  0.00    -0.066 NA
BRANCH  36  38
ATOM     38  C   UNL     1      29.263  32.873  16.335  1.00  0.00     0.268 C 
BRANCH  38  39
ATOM     39  C   UNL     1      30.677  32.447  16.305  1.00  0.00     0.325 C 
ATOM     40  O   UNL     1      31.388  32.597  17.338  1.00  0.00    -0.250 OA
BRANCH  39  41
ATOM     41  O   UNL     1      31.218  31.889  15.166  1.00  0.00    -0.480 OA
ATOM     42  H   UNL     1      31.573  30.932  15.247  1.00  0.00     0.296 HD
ENDBRANCH  39  41
ENDBRANCH  38  39
ENDBRANCH  36  38
ENDBRANCH  32  33
ENDBRANCH  31  32
ENDBRANCH   2  31
TORSDOF 17
BEGIN_RES LYS A 131
REMARK  4 active torsions:
REMARK  status: ('A' for Active; 'I' for Inactive)
REMARK    1  A    between atoms: CA   and  CB  
REMARK    2  A    between atoms: CB   and  CG  
REMARK    3  A    between atoms: CG   and  CD  
REMARK    4  A    between atoms: CD   and  CE  
ROOT
ATOM      1  CA  LYS A 131      29.867  25.555  16.977  1.00 20.52     0.186 C 
ENDROOT
BRANCH   1   2
ATOM      2  CB  LYS A 131      28.345  25.722  17.026  1.00 20.94     0.034 C 
BRANCH   2   3
ATOM      3  CG  LYS A 131      27.601  24.401  16.897  1.00 22.96     0.005 C 
BRANCH   3   4
ATOM      4  CD  LYS A 131      26.150  24.530  17.271  1.00 24.33     0.041 C 
BRANCH   4   5
ATOM      5  CE  LYS A 131      25.776  23.419  18.247  1.00 26.91     0.338 C 
ATOM      6  NZ  LYS A 131      25.519  23.978  19.595  1.00 27.40     0.618 N 
ENDBRANCH   4   5
ENDBRANCH   3   4
ENDBRANCH   2   3
ENDBRANCH   1   2
END_RES LYS A 131
BEGIN_RES LYS A 135
REMARK  4 active torsions:
REMARK  status: ('A' for Active; 'I' for Inactive)
REMARK    5  A    between atoms: CA   and  CB  
REMARK    6  A    between atoms: CB   and  CG  
REMARK    7  A    between atoms: CG   and  CD  
REMARK    8  A    between atoms: CD   and  CE  
ROOT
ATOM      7  CA  LYS A 135      33.193  34.663   9.290  1.00 25.02     0.186 C 
ENDROOT
BRANCH   7   8
ATOM      8  CB  LYS A 135      32.060  35.360  10.034  1.00 26.63     0.034 C 
BRANCH   8   9
ATOM      9  CG  LYS A 135      30.797  35.490   9.223  1.00 29.45     0.005 C 
BRANCH   9  10
ATOM     10  CD  LYS A 135      30.159  34.127   9.000  1.00 32.00     0.041 C 
BRANCH  10  11
ATOM     11  CE  LYS A 135      28.688  34.276   8.664  1.00 34.25     0.338 C 
ATOM     12  NZ  LYS A 135      27.835  33.602   9.681  1.00 35.99     0.618 N 
ENDBRANCH  10  11
ENDBRANCH   9  10
ENDBRANCH   8   9
ENDBRANCH   7   8
END_RES LYS A 135
