REMARK VINA RESULT:    -4.139      2.927      5.577
REMARK INTER + INTRA:         -14.677
REMARK INTER:                  -9.832
REMARK INTRA:                  -4.845
REMARK UNBOUND:                -6.788
REMARK SMILES CC(=O)N[C@@H]1[C@@H](O)C[C@](O)(C(=O)O)O[C@H]1C(O)[C@H](O)CNC(=O)OCc1cn(CC(=O)NCc2cccs2)nn1
REMARK SMILES IDX 21 1 22 2 23 3 20 5 18 6 16 7 15 8 9 9 8 10 14 11 6 12 5 13
REMARK SMILES IDX 10 14 11 16 12 17 13 18 7 20 4 22 2 23 1 25 3 26 17 27 19 29
REMARK SMILES IDX 24 31 25 32 26 33 27 34 40 35 28 36 39 37 29 38 30 39 31 40
REMARK SMILES IDX 32 41 33 43 34 44 35 45 38 46 36 47 37 48
REMARK H PARENT 21 4 10 15 13 19 7 21 4 24 17 28 19 30 32 42
REMARK Flexibility Score: inf
ROOT
ATOM      1  N   UNL     1      24.584  39.771   7.512  1.00  0.00    -0.319 N 
ATOM      2  C   UNL     1      23.178  39.869   7.577  1.00  0.00     0.407 C 
ATOM      3  O   UNL     1      22.629  40.900   7.118  1.00  0.00    -0.225 OA
ATOM      4  H   UNL     1      25.019  38.905   7.900  1.00  0.00     0.167 HD
ENDROOT
BRANCH   1   5
ATOM      5  C   UNL     1      25.463  40.774   6.946  1.00  0.00     0.154 C 
BRANCH   5   6
ATOM      6  C   UNL     1      26.258  40.209   5.802  1.00  0.00     0.165 C 
BRANCH   6   7
ATOM      7  C   UNL     1      27.046  38.987   6.133  1.00  0.00     0.176 C 
BRANCH   7   8
ATOM      8  C   UNL     1      28.302  39.152   6.902  1.00  0.00     0.178 C 
ATOM      9  C   UNL     1      30.435  40.038   6.531  1.00  0.00     0.269 C 
ATOM     10  C   UNL     1      30.494  39.853   8.037  1.00  0.00     0.112 C 
ATOM     11  O   UNL     1      29.212  39.779   5.988  1.00  0.00    -0.332 OA
ATOM     12  C   UNL     1      30.118  38.445   8.342  1.00  0.00     0.145 C 
ATOM     13  C   UNL     1      29.016  37.954   7.382  1.00  0.00     0.142 C 
BRANCH   9  14
ATOM     14  O   UNL     1      31.442  39.199   6.016  1.00  0.00    -0.357 OA
ATOM     15  H   UNL     1      31.006  38.406   5.597  1.00  0.00     0.214 HD
ENDBRANCH   9  14
BRANCH   9  16
ATOM     16  C   UNL     1      30.797  41.432   6.167  1.00  0.00     0.364 C 
ATOM     17  O   UNL     1      31.942  41.851   6.439  1.00  0.00    -0.246 OA
BRANCH  16  18
ATOM     18  O   UNL     1      29.900  42.286   5.532  1.00  0.00    -0.477 OA
ATOM     19  H   UNL     1      29.825  42.183   4.518  1.00  0.00     0.296 HD
ENDBRANCH  16  18
ENDBRANCH   9  16
BRANCH  12  20
ATOM     20  O   UNL     1      31.182  37.570   8.355  1.00  0.00    -0.391 OA
ATOM     21  H   UNL     1      31.701  37.645   9.195  1.00  0.00     0.211 HD
ENDBRANCH  12  20
BRANCH  13  22
ATOM     22  N   UNL     1      28.301  36.967   8.101  1.00  0.00    -0.348 N 
ATOM     23  C   UNL     1      27.983  35.735   7.493  1.00  0.00     0.217 C 
ATOM     24  H   UNL     1      27.996  37.116   9.073  1.00  0.00     0.163 HD
ATOM     25  C   UNL     1      27.228  34.661   8.211  1.00  0.00     0.114 C 
ATOM     26  O   UNL     1      28.319  35.457   6.293  1.00  0.00    -0.275 OA
ENDBRANCH  13  22
ENDBRANCH   7   8
BRANCH   7  27
ATOM     27  O   UNL     1      26.294  37.857   6.420  1.00  0.00    -0.388 OA
ATOM     28  H   UNL     1      26.686  37.026   6.124  1.00  0.00     0.211 HD
ENDBRANCH   7  27
ENDBRANCH   6   7
BRANCH   6  29
ATOM     29  O   UNL     1      26.982  41.155   5.087  1.00  0.00    -0.388 OA
ATOM     30  H   UNL     1      26.777  41.153   4.124  1.00  0.00     0.211 HD
ENDBRANCH   6  29
ENDBRANCH   5   6
ENDBRANCH   1   5
BRANCH   2  31
ATOM     31  O   UNL     1      22.378  38.862   8.134  1.00  0.00    -0.443 OA
BRANCH  31  32
ATOM     32  C   UNL     1      22.529  37.514   7.727  1.00  0.00     0.294 C 
BRANCH  32  33
ATOM     33  C   UNL     1      23.072  36.743   8.880  1.00  0.00     0.120 A 
ATOM     34  C   UNL     1      23.755  37.220   9.979  1.00  0.00     0.138 A 
ATOM     35  N   UNL     1      23.002  35.416   9.074  1.00  0.00    -0.132 NA
ATOM     36  N   UNL     1      24.068  36.192  10.782  1.00  0.00    -0.243 N 
ATOM     37  N   UNL     1      23.598  35.106  10.208  1.00  0.00    -0.067 NA
BRANCH  36  38
ATOM     38  C   UNL     1      24.794  36.316  12.056  1.00  0.00     0.245 C 
BRANCH  38  39
ATOM     39  C   UNL     1      25.183  34.943  12.457  1.00  0.00     0.242 C 
ATOM     40  O   UNL     1      26.403  34.596  12.325  1.00  0.00    -0.273 OA
ATOM     41  N   UNL     1      24.303  33.967  12.980  1.00  0.00    -0.350 N 
ATOM     42  H   UNL     1      23.312  34.249  13.086  1.00  0.00     0.163 HD
BRANCH  41  43
ATOM     43  C   UNL     1      24.726  32.639  13.360  1.00  0.00     0.162 C 
BRANCH  43  44
ATOM     44  C   UNL     1      23.569  31.712  13.041  1.00  0.00     0.024 A 
ATOM     45  C   UNL     1      23.561  30.396  12.860  1.00  0.00     0.017 A 
ATOM     46  S   UNL     1      21.917  32.186  12.826  1.00  0.00    -0.147 S 
ATOM     47  C   UNL     1      22.411  29.747  12.579  1.00  0.00     0.012 A 
ATOM     48  C   UNL     1      21.265  30.551  12.495  1.00  0.00     0.065 A 
ENDBRANCH  43  44
ENDBRANCH  41  43
ENDBRANCH  38  39
ENDBRANCH  36  38
ENDBRANCH  32  33
ENDBRANCH  31  32
ENDBRANCH   2  31
TORSDOF 18
BEGIN_RES LYS A 131
REMARK  4 active torsions:
REMARK  status: ('A' for Active; 'I' for Inactive)
REMARK    1  A    between atoms: CA   and  CB  
REMARK    2  A    between atoms: CB   and  CG  
REMARK    3  A    between atoms: CG   and  CD  
REMARK    4  A    between atoms: CD   and  CE  
ROOT
ATOM      1  CA  LYS A 131      29.867  25.555  16.977  1.00 20.52     0.186 C 
ENDROOT
BRANCH   1   2
ATOM      2  CB  LYS A 131      28.345  25.722  17.026  1.00 20.94     0.034 C 
BRANCH   2   3
ATOM      3  CG  LYS A 131      27.601  24.402  16.890  1.00 22.96     0.005 C 
BRANCH   3   4
ATOM      4  CD  LYS A 131      26.150  24.529  17.263  1.00 24.33     0.041 C 
BRANCH   4   5
ATOM      5  CE  LYS A 131      25.631  23.180  17.750  1.00 26.91     0.338 C 
ATOM      6  NZ  LYS A 131      25.502  23.176  19.227  1.00 27.40     0.618 N 
ENDBRANCH   4   5
ENDBRANCH   3   4
ENDBRANCH   2   3
ENDBRANCH   1   2
END_RES LYS A 131
BEGIN_RES LYS A 135
REMARK  4 active torsions:
REMARK  status: ('A' for Active; 'I' for Inactive)
REMARK    5  A    between atoms: CA   and  CB  
REMARK    6  A    between atoms: CB   and  CG  
REMARK    7  A    between atoms: CG   and  CD  
REMARK    8  A    between atoms: CD   and  CE  
ROOT
ATOM      7  CA  LYS A 135      33.193  34.663   9.290  1.00 25.02     0.186 C 
ENDROOT
BRANCH   7   8
ATOM      8  CB  LYS A 135      32.060  35.360  10.034  1.00 26.63     0.034 C 
BRANCH   8   9
ATOM      9  CG  LYS A 135      30.742  34.636   9.939  1.00 29.45     0.005 C 
BRANCH   9  10
ATOM     10  CD  LYS A 135      29.749  35.194  10.947  1.00 32.00     0.041 C 
BRANCH  10  11
ATOM     11  CE  LYS A 135      30.433  35.468  12.273  1.00 34.25     0.338 C 
ATOM     12  NZ  LYS A 135      30.256  34.327  13.213  1.00 35.99     0.618 N 
ENDBRANCH  10  11
ENDBRANCH   9  10
ENDBRANCH   8   9
ENDBRANCH   7   8
END_RES LYS A 135
