REMARK VINA RESULT:    -4.233      3.132      4.789
REMARK INTER + INTRA:         -13.611
REMARK INTER:                  -8.975
REMARK INTRA:                  -4.636
REMARK UNBOUND:                -6.285
REMARK SMILES CC(=O)N[C@@H]1[C@@H](O)C[C@](O)(C(=O)O)O[C@H]1C(O)[C@H](O)CNC(=O)OCc1cn(-c2ccccc2I)nn1
REMARK SMILES IDX 20 1 18 2 16 3 15 4 9 5 8 6 14 7 6 8 5 9 10 10 11 12 12 13
REMARK SMILES IDX 13 14 7 16 4 18 2 19 1 21 3 22 17 23 19 25 21 27 22 28 23 30
REMARK SMILES IDX 24 31 25 32 26 33 27 34 37 35 28 36 36 37 29 38 30 39 34 40
REMARK SMILES IDX 31 41 33 42 35 43 32 44
REMARK H PARENT 10 11 13 15 7 17 4 20 17 24 19 26 21 29
REMARK Flexibility Score: inf
ROOT
ATOM      1  C   UNL     1      32.039  34.433  14.462  1.00  0.00     0.154 C 
ENDROOT
BRANCH   1   2
ATOM      2  C   UNL     1      31.966  34.044  15.920  1.00  0.00     0.165 C 
BRANCH   2   3
ATOM      3  C   UNL     1      31.162  32.804  16.098  1.00  0.00     0.176 C 
BRANCH   3   4
ATOM      4  C   UNL     1      29.820  32.979  16.760  1.00  0.00     0.178 C 
ATOM      5  C   UNL     1      29.459  31.359  18.433  1.00  0.00     0.269 C 
ATOM      6  C   UNL     1      28.147  30.953  17.794  1.00  0.00     0.112 C 
ATOM      7  O   UNL     1      29.941  32.556  18.041  1.00  0.00    -0.332 OA
ATOM      8  C   UNL     1      28.324  31.085  16.303  1.00  0.00     0.145 C 
ATOM      9  C   UNL     1      28.639  32.528  15.998  1.00  0.00     0.142 C 
BRANCH   5  10
ATOM     10  O   UNL     1      30.375  30.371  18.074  1.00  0.00    -0.357 OA
ATOM     11  H   UNL     1      31.174  30.496  18.668  1.00  0.00     0.214 HD
ENDBRANCH   5  10
BRANCH   5  12
ATOM     12  C   UNL     1      29.264  31.265  19.914  1.00  0.00     0.364 C 
ATOM     13  O   UNL     1      28.929  30.209  20.494  1.00  0.00    -0.246 OA
BRANCH  12  14
ATOM     14  O   UNL     1      29.463  32.399  20.671  1.00  0.00    -0.477 OA
ATOM     15  H   UNL     1      28.919  33.255  20.545  1.00  0.00     0.296 HD
ENDBRANCH  12  14
ENDBRANCH   5  12
BRANCH   8  16
ATOM     16  O   UNL     1      29.358  30.218  15.944  1.00  0.00    -0.391 OA
ATOM     17  H   UNL     1      29.481  30.168  14.965  1.00  0.00     0.211 HD
ENDBRANCH   8  16
BRANCH   9  18
ATOM     18  N   UNL     1      27.453  33.306  16.400  1.00  0.00    -0.348 N 
ATOM     19  C   UNL     1      26.387  33.562  15.504  1.00  0.00     0.217 C 
ATOM     20  H   UNL     1      27.383  33.684  17.366  1.00  0.00     0.163 HD
ATOM     21  C   UNL     1      25.230  34.351  15.984  1.00  0.00     0.114 C 
ATOM     22  O   UNL     1      26.413  33.130  14.313  1.00  0.00    -0.275 OA
ENDBRANCH   9  18
ENDBRANCH   3   4
BRANCH   3  23
ATOM     23  O   UNL     1      31.131  32.013  14.958  1.00  0.00    -0.388 OA
ATOM     24  H   UNL     1      31.107  32.565  14.127  1.00  0.00     0.211 HD
ENDBRANCH   3  23
ENDBRANCH   2   3
BRANCH   2  25
ATOM     25  O   UNL     1      31.361  35.150  16.573  1.00  0.00    -0.388 OA
ATOM     26  H   UNL     1      31.870  35.976  16.349  1.00  0.00     0.211 HD
ENDBRANCH   2  25
ENDBRANCH   1   2
BRANCH   1  27
ATOM     27  N   UNL     1      30.825  34.164  13.725  1.00  0.00    -0.319 N 
ATOM     28  C   UNL     1      29.870  35.217  13.560  1.00  0.00     0.407 C 
ATOM     29  H   UNL     1      30.682  33.219  13.329  1.00  0.00     0.167 HD
ATOM     30  O   UNL     1      30.122  36.326  14.060  1.00  0.00    -0.225 OA
BRANCH  28  31
ATOM     31  O   UNL     1      28.717  34.933  12.849  1.00  0.00    -0.443 OA
BRANCH  31  32
ATOM     32  C   UNL     1      27.765  35.949  12.667  1.00  0.00     0.294 C 
BRANCH  32  33
ATOM     33  C   UNL     1      27.002  35.649  11.430  1.00  0.00     0.121 A 
ATOM     34  C   UNL     1      25.817  36.298  11.063  1.00  0.00     0.144 A 
ATOM     35  N   UNL     1      27.248  34.762  10.460  1.00  0.00    -0.131 NA
ATOM     36  N   UNL     1      25.454  35.743   9.902  1.00  0.00    -0.219 N 
ATOM     37  N   UNL     1      26.311  34.814   9.529  1.00  0.00    -0.062 NA
BRANCH  36  38
ATOM     38  C   UNL     1      24.300  36.101   9.162  1.00  0.00     0.080 A 
ATOM     39  C   UNL     1      23.120  35.388   9.368  1.00  0.00     0.029 A 
ATOM     40  C   UNL     1      24.369  37.133   8.267  1.00  0.00     0.039 A 
ATOM     41  C   UNL     1      21.993  35.729   8.652  1.00  0.00     0.002 A 
ATOM     42  C   UNL     1      23.227  37.459   7.558  1.00  0.00     0.017 A 
ATOM     43  I   UNL     1      26.128  38.238   7.922  1.00  0.00    -0.042 I 
ATOM     44  C   UNL     1      22.045  36.766   7.746  1.00  0.00     0.001 A 
ENDBRANCH  36  38
ENDBRANCH  32  33
ENDBRANCH  31  32
ENDBRANCH  28  31
ENDBRANCH   1  27
TORSDOF 15
BEGIN_RES LYS A 131
REMARK  4 active torsions:
REMARK  status: ('A' for Active; 'I' for Inactive)
REMARK    1  A    between atoms: CA   and  CB  
REMARK    2  A    between atoms: CB   and  CG  
REMARK    3  A    between atoms: CG   and  CD  
REMARK    4  A    between atoms: CD   and  CE  
ROOT
ATOM      1  CA  LYS A 131      29.867  25.555  16.977  1.00 20.52     0.186 C 
ENDROOT
BRANCH   1   2
ATOM      2  CB  LYS A 131      28.345  25.722  17.026  1.00 20.94     0.034 C 
BRANCH   2   3
ATOM      3  CG  LYS A 131      27.599  24.427  16.743  1.00 22.96     0.005 C 
BRANCH   3   4
ATOM      4  CD  LYS A 131      26.976  23.850  17.984  1.00 24.33     0.041 C 
BRANCH   4   5
ATOM      5  CE  LYS A 131      25.617  23.250  17.639  1.00 26.91     0.338 C 
ATOM      6  NZ  LYS A 131      24.783  24.237  16.914  1.00 27.40     0.618 N 
ENDBRANCH   4   5
ENDBRANCH   3   4
ENDBRANCH   2   3
ENDBRANCH   1   2
END_RES LYS A 131
BEGIN_RES LYS A 135
REMARK  4 active torsions:
REMARK  status: ('A' for Active; 'I' for Inactive)
REMARK    5  A    between atoms: CA   and  CB  
REMARK    6  A    between atoms: CB   and  CG  
REMARK    7  A    between atoms: CG   and  CD  
REMARK    8  A    between atoms: CD   and  CE  
ROOT
ATOM      7  CA  LYS A 135      33.193  34.663   9.290  1.00 25.02     0.186 C 
ENDROOT
BRANCH   7   8
ATOM      8  CB  LYS A 135      32.060  35.360  10.034  1.00 26.63     0.034 C 
BRANCH   8   9
ATOM      9  CG  LYS A 135      30.723  34.685   9.865  1.00 29.45     0.005 C 
BRANCH   9  10
ATOM     10  CD  LYS A 135      30.370  34.556   8.391  1.00 32.00     0.041 C 
BRANCH  10  11
ATOM     11  CE  LYS A 135      29.609  35.780   7.916  1.00 34.25     0.338 C 
ATOM     12  NZ  LYS A 135      28.612  35.419   6.870  1.00 35.99     0.618 N 
ENDBRANCH  10  11
ENDBRANCH   9  10
ENDBRANCH   8   9
ENDBRANCH   7   8
END_RES LYS A 135
