REMARK VINA RESULT:    -4.528      2.985      4.274
REMARK INTER + INTRA:         -14.326
REMARK INTER:                  -9.201
REMARK INTRA:                  -5.125
REMARK UNBOUND:                -6.490
REMARK SMILES CC(=O)N[C@@H]1[C@@H](O)C[C@](O)(C(=O)O)O[C@H]1C(O)[C@H](O)CNC(=O)OCc1cn(-c2ccc3[nH]ncc3c2)nn1
REMARK SMILES IDX 20 1 18 2 16 3 15 4 9 5 8 6 14 7 6 8 5 9 10 10 11 12 12 13
REMARK SMILES IDX 13 14 7 16 4 18 2 19 1 21 3 22 17 23 19 25 21 27 22 28 23 30
REMARK SMILES IDX 24 31 25 32 26 33 27 34 39 35 28 36 38 37 29 38 30 39 37 40
REMARK SMILES IDX 31 41 36 42 32 43 35 44 33 45 34 46
REMARK H PARENT 10 11 13 15 7 17 4 20 17 24 19 26 21 29 33 47
REMARK Flexibility Score: inf
ROOT
ATOM      1  C   UNL     1      27.816  33.613  15.130  1.00  0.00     0.154 C 
ENDROOT
BRANCH   1   2
ATOM      2  C   UNL     1      29.130  33.142  15.578  1.00  0.00     0.165 C 
BRANCH   2   3
ATOM      3  C   UNL     1      30.235  33.578  14.590  1.00  0.00     0.176 C 
BRANCH   3   4
ATOM      4  C   UNL     1      30.856  34.862  14.930  1.00  0.00     0.178 C 
ATOM      5  C   UNL     1      30.781  36.175  12.996  1.00  0.00     0.269 C 
ATOM      6  C   UNL     1      32.030  35.454  12.574  1.00  0.00     0.112 C 
ATOM      7  O   UNL     1      30.419  35.987  14.297  1.00  0.00    -0.332 OA
ATOM      8  C   UNL     1      33.011  35.253  13.675  1.00  0.00     0.145 C 
ATOM      9  C   UNL     1      32.388  34.770  14.946  1.00  0.00     0.142 C 
BRANCH   5  10
ATOM     10  O   UNL     1      29.732  35.806  12.155  1.00  0.00    -0.357 OA
ATOM     11  H   UNL     1      29.655  34.824  12.063  1.00  0.00     0.214 HD
ENDBRANCH   5  10
BRANCH   5  12
ATOM     12  C   UNL     1      31.032  37.622  12.803  1.00  0.00     0.364 C 
ATOM     13  O   UNL     1      30.828  38.146  11.697  1.00  0.00    -0.246 OA
BRANCH  12  14
ATOM     14  O   UNL     1      31.493  38.384  13.855  1.00  0.00    -0.477 OA
ATOM     15  H   UNL     1      32.360  38.938  13.812  1.00  0.00     0.296 HD
ENDBRANCH  12  14
ENDBRANCH   5  12
BRANCH   8  16
ATOM     16  O   UNL     1      33.998  34.359  13.217  1.00  0.00    -0.391 OA
ATOM     17  H   UNL     1      34.457  34.831  12.482  1.00  0.00     0.211 HD
ENDBRANCH   8  16
BRANCH   9  18
ATOM     18  N   UNL     1      32.952  35.379  16.121  1.00  0.00    -0.348 N 
ATOM     19  C   UNL     1      32.638  34.936  17.435  1.00  0.00     0.217 C 
ATOM     20  H   UNL     1      33.630  36.193  16.022  1.00  0.00     0.163 HD
ATOM     21  C   UNL     1      33.242  35.594  18.608  1.00  0.00     0.114 C 
ATOM     22  O   UNL     1      31.837  33.976  17.570  1.00  0.00    -0.275 OA
ENDBRANCH   9  18
ENDBRANCH   3   4
BRANCH   3  23
ATOM     23  O   UNL     1      31.234  32.575  14.862  1.00  0.00    -0.388 OA
ATOM     24  H   UNL     1      31.882  32.913  15.521  1.00  0.00     0.211 HD
ENDBRANCH   3  23
ENDBRANCH   2   3
BRANCH   2  25
ATOM     25  O   UNL     1      29.087  31.705  15.419  1.00  0.00    -0.388 OA
ATOM     26  H   UNL     1      29.249  31.484  14.460  1.00  0.00     0.211 HD
ENDBRANCH   2  25
ENDBRANCH   1   2
BRANCH   1  27
ATOM     27  N   UNL     1      27.787  34.392  13.924  1.00  0.00    -0.319 N 
ATOM     28  C   UNL     1      26.583  34.637  13.213  1.00  0.00     0.407 C 
ATOM     29  H   UNL     1      28.647  34.840  13.568  1.00  0.00     0.167 HD
ATOM     30  O   UNL     1      25.516  34.150  13.667  1.00  0.00    -0.225 OA
BRANCH  28  31
ATOM     31  O   UNL     1      26.517  35.377  12.055  1.00  0.00    -0.443 OA
BRANCH  31  32
ATOM     32  C   UNL     1      26.169  36.746  11.992  1.00  0.00     0.294 C 
BRANCH  32  33
ATOM     33  C   UNL     1      26.481  37.232  10.606  1.00  0.00     0.121 A 
ATOM     34  C   UNL     1      27.703  37.590  10.080  1.00  0.00     0.144 A 
ATOM     35  N   UNL     1      25.594  37.414   9.587  1.00  0.00    -0.131 NA
ATOM     36  N   UNL     1      27.488  37.965   8.786  1.00  0.00    -0.220 N 
ATOM     37  N   UNL     1      26.200  37.848   8.515  1.00  0.00    -0.062 NA
BRANCH  36  38
ATOM     38  C   UNL     1      28.502  38.405   7.897  1.00  0.00     0.067 A 
ATOM     39  C   UNL     1      28.278  38.357   6.534  1.00  0.00     0.030 A 
ATOM     40  C   UNL     1      29.722  38.889   8.319  1.00  0.00     0.040 A 
ATOM     41  C   UNL     1      29.226  38.771   5.622  1.00  0.00     0.030 A 
ATOM     42  C   UNL     1      30.675  39.305   7.434  1.00  0.00     0.022 A 
ATOM     43  C   UNL     1      30.447  39.256   6.060  1.00  0.00     0.065 A 
ATOM     44  C   UNL     1      31.944  39.817   7.570  1.00  0.00     0.143 A 
ATOM     45  N   UNL     1      31.539  39.719   5.433  1.00  0.00    -0.278 N 
ATOM     46  N   UNL     1      32.442  40.059   6.323  1.00  0.00    -0.183 NA
ATOM     47  H   UNL     1      31.643  39.795   4.404  1.00  0.00     0.190 HD
ENDBRANCH  36  38
ENDBRANCH  32  33
ENDBRANCH  31  32
ENDBRANCH  28  31
ENDBRANCH   1  27
TORSDOF 15
BEGIN_RES LYS A 131
REMARK  4 active torsions:
REMARK  status: ('A' for Active; 'I' for Inactive)
REMARK    1  A    between atoms: CA   and  CB  
REMARK    2  A    between atoms: CB   and  CG  
REMARK    3  A    between atoms: CG   and  CD  
REMARK    4  A    between atoms: CD   and  CE  
ROOT
ATOM      1  CA  LYS A 131      29.867  25.555  16.977  1.00 20.52     0.186 C 
ENDROOT
BRANCH   1   2
ATOM      2  CB  LYS A 131      28.345  25.722  17.026  1.00 20.94     0.034 C 
BRANCH   2   3
ATOM      3  CG  LYS A 131      27.599  24.478  16.567  1.00 22.96     0.005 C 
BRANCH   3   4
ATOM      4  CD  LYS A 131      27.249  23.572  17.715  1.00 24.33     0.041 C 
BRANCH   4   5
ATOM      5  CE  LYS A 131      25.738  23.376  17.767  1.00 26.91     0.338 C 
ATOM      6  NZ  LYS A 131      25.054  24.388  16.927  1.00 27.40     0.618 N 
ENDBRANCH   4   5
ENDBRANCH   3   4
ENDBRANCH   2   3
ENDBRANCH   1   2
END_RES LYS A 131
BEGIN_RES LYS A 135
REMARK  4 active torsions:
REMARK  status: ('A' for Active; 'I' for Inactive)
REMARK    5  A    between atoms: CA   and  CB  
REMARK    6  A    between atoms: CB   and  CG  
REMARK    7  A    between atoms: CG   and  CD  
REMARK    8  A    between atoms: CD   and  CE  
ROOT
ATOM      7  CA  LYS A 135      33.193  34.663   9.290  1.00 25.02     0.186 C 
ENDROOT
BRANCH   7   8
ATOM      8  CB  LYS A 135      32.060  35.360  10.034  1.00 26.63     0.034 C 
BRANCH   8   9
ATOM      9  CG  LYS A 135      30.887  35.710   9.155  1.00 29.45     0.005 C 
BRANCH   9  10
ATOM     10  CD  LYS A 135      30.272  34.454   8.556  1.00 32.00     0.041 C 
BRANCH  10  11
ATOM     11  CE  LYS A 135      29.018  34.796   7.774  1.00 34.25     0.338 C 
ATOM     12  NZ  LYS A 135      27.793  34.423   8.535  1.00 35.99     0.618 N 
ENDBRANCH  10  11
ENDBRANCH   9  10
ENDBRANCH   8   9
ENDBRANCH   7   8
END_RES LYS A 135
