REMARK VINA RESULT:    -4.729      3.491      6.983
REMARK INTER + INTRA:         -14.102
REMARK INTER:                  -9.894
REMARK INTRA:                  -4.208
REMARK UNBOUND:                -5.917
REMARK SMILES CC(=O)N[C@@H]1[C@@H](O)C[C@](O)(C(=O)O)O[C@H]1C(O)[C@H](O)CNC(=O)OCc1cn(-c2c(C)cc(C)cc2C)nn1
REMARK SMILES IDX 20 1 18 2 16 3 15 4 9 5 8 6 14 7 6 8 5 9 10 10 11 12 12 13
REMARK SMILES IDX 13 14 7 16 4 18 2 19 1 21 3 22 17 23 19 25 21 27 22 28 23 30
REMARK SMILES IDX 24 31 25 32 26 33 27 34 39 35 28 36 38 37 29 38 30 39 36 40
REMARK SMILES IDX 31 41 32 42 35 43 37 44 33 45 34 46
REMARK H PARENT 10 11 13 15 7 17 4 20 17 24 19 26 21 29
REMARK Flexibility Score: inf
ROOT
ATOM      1  C   UNL     1      29.046  33.772  15.166  1.00  0.00     0.154 C 
ENDROOT
BRANCH   1   2
ATOM      2  C   UNL     1      29.646  32.417  15.070  1.00  0.00     0.165 C 
BRANCH   2   3
ATOM      3  C   UNL     1      29.533  31.572  16.298  1.00  0.00     0.176 C 
BRANCH   3   4
ATOM      4  C   UNL     1      28.302  30.756  16.420  1.00  0.00     0.178 C 
ATOM      5  C   UNL     1      26.000  31.115  16.218  1.00  0.00     0.269 C 
ATOM      6  C   UNL     1      25.714  29.806  16.896  1.00  0.00     0.112 C 
ATOM      7  O   UNL     1      27.251  31.232  15.692  1.00  0.00    -0.332 OA
ATOM      8  C   UNL     1      26.869  29.258  17.661  1.00  0.00     0.145 C 
ATOM      9  C   UNL     1      27.919  30.373  17.817  1.00  0.00     0.142 C 
BRANCH   5  10
ATOM     10  O   UNL     1      25.753  32.133  17.136  1.00  0.00    -0.357 OA
ATOM     11  H   UNL     1      25.247  31.733  17.900  1.00  0.00     0.214 HD
ENDBRANCH   5  10
BRANCH   5  12
ATOM     12  C   UNL     1      25.024  31.243  15.103  1.00  0.00     0.364 C 
ATOM     13  O   UNL     1      25.048  30.445  14.145  1.00  0.00    -0.246 OA
BRANCH  12  14
ATOM     14  O   UNL     1      24.060  32.260  15.107  1.00  0.00    -0.477 OA
ATOM     15  H   UNL     1      23.376  32.283  15.877  1.00  0.00     0.296 HD
ENDBRANCH  12  14
ENDBRANCH   5  12
BRANCH   8  16
ATOM     16  O   UNL     1      26.538  28.692  18.876  1.00  0.00    -0.391 OA
ATOM     17  H   UNL     1      26.738  29.374  19.585  1.00  0.00     0.211 HD
ENDBRANCH   8  16
BRANCH   9  18
ATOM     18  N   UNL     1      29.008  29.760  18.532  1.00  0.00    -0.348 N 
ATOM     19  C   UNL     1      29.486  30.395  19.708  1.00  0.00     0.217 C 
ATOM     20  H   UNL     1      29.458  28.865  18.217  1.00  0.00     0.163 HD
ATOM     21  C   UNL     1      30.607  29.845  20.515  1.00  0.00     0.114 C 
ATOM     22  O   UNL     1      28.966  31.466  20.110  1.00  0.00    -0.275 OA
ENDBRANCH   9  18
ENDBRANCH   3   4
BRANCH   3  23
ATOM     23  O   UNL     1      30.650  30.742  16.350  1.00  0.00    -0.388 OA
ATOM     24  H   UNL     1      30.368  29.882  16.750  1.00  0.00     0.211 HD
ENDBRANCH   3  23
ENDBRANCH   2   3
BRANCH   2  25
ATOM     25  O   UNL     1      30.951  32.472  14.575  1.00  0.00    -0.388 OA
ATOM     26  H   UNL     1      31.613  32.632  15.292  1.00  0.00     0.211 HD
ENDBRANCH   2  25
ENDBRANCH   1   2
BRANCH   1  27
ATOM     27  N   UNL     1      27.874  33.936  14.330  1.00  0.00    -0.319 N 
ATOM     28  C   UNL     1      26.650  34.485  14.806  1.00  0.00     0.407 C 
ATOM     29  H   UNL     1      27.863  33.652  13.305  1.00  0.00     0.167 HD
ATOM     30  O   UNL     1      26.546  34.853  15.991  1.00  0.00    -0.225 OA
BRANCH  28  31
ATOM     31  O   UNL     1      25.546  34.625  13.961  1.00  0.00    -0.443 OA
BRANCH  31  32
ATOM     32  C   UNL     1      25.134  35.943  13.565  1.00  0.00     0.294 C 
BRANCH  32  33
ATOM     33  C   UNL     1      25.050  35.976  12.083  1.00  0.00     0.121 A 
ATOM     34  C   UNL     1      26.080  36.329  11.227  1.00  0.00     0.144 A 
ATOM     35  N   UNL     1      24.016  35.687  11.305  1.00  0.00    -0.131 NA
ATOM     36  N   UNL     1      25.653  36.247   9.964  1.00  0.00    -0.220 N 
ATOM     37  N   UNL     1      24.374  35.846  10.063  1.00  0.00    -0.062 NA
BRANCH  36  38
ATOM     38  C   UNL     1      26.339  36.507   8.747  1.00  0.00     0.072 A 
ATOM     39  C   UNL     1      27.020  35.497   8.104  1.00  0.00    -0.025 A 
ATOM     40  C   UNL     1      26.351  37.766   8.168  1.00  0.00    -0.025 A 
ATOM     41  C   UNL     1      27.022  34.143   8.700  1.00  0.00     0.047 C 
ATOM     42  C   UNL     1      27.695  35.758   6.904  1.00  0.00     0.009 A 
ATOM     43  C   UNL     1      27.020  38.013   6.985  1.00  0.00     0.009 A 
ATOM     44  C   UNL     1      25.601  38.858   8.886  1.00  0.00     0.047 C 
ATOM     45  C   UNL     1      27.704  37.012   6.331  1.00  0.00    -0.050 A 
ATOM     46  C   UNL     1      28.432  37.263   5.051  1.00  0.00     0.044 C 
ENDBRANCH  36  38
ENDBRANCH  32  33
ENDBRANCH  31  32
ENDBRANCH  28  31
ENDBRANCH   1  27
TORSDOF 15
BEGIN_RES LYS A 131
REMARK  4 active torsions:
REMARK  status: ('A' for Active; 'I' for Inactive)
REMARK    1  A    between atoms: CA   and  CB  
REMARK    2  A    between atoms: CB   and  CG  
REMARK    3  A    between atoms: CG   and  CD  
REMARK    4  A    between atoms: CD   and  CE  
ROOT
ATOM      1  CA  LYS A 131      29.867  25.555  16.977  1.00 20.52     0.186 C 
ENDROOT
BRANCH   1   2
ATOM      2  CB  LYS A 131      28.345  25.722  17.026  1.00 20.94     0.034 C 
BRANCH   2   3
ATOM      3  CG  LYS A 131      27.604  24.394  16.994  1.00 22.96     0.005 C 
BRANCH   3   4
ATOM      4  CD  LYS A 131      26.126  24.565  17.215  1.00 24.33     0.041 C 
BRANCH   4   5
ATOM      5  CE  LYS A 131      25.772  24.140  18.636  1.00 26.91     0.338 C 
ATOM      6  NZ  LYS A 131      25.828  25.302  19.555  1.00 27.40     0.618 N 
ENDBRANCH   4   5
ENDBRANCH   3   4
ENDBRANCH   2   3
ENDBRANCH   1   2
END_RES LYS A 131
BEGIN_RES LYS A 135
REMARK  4 active torsions:
REMARK  status: ('A' for Active; 'I' for Inactive)
REMARK    5  A    between atoms: CA   and  CB  
REMARK    6  A    between atoms: CB   and  CG  
REMARK    7  A    between atoms: CG   and  CD  
REMARK    8  A    between atoms: CD   and  CE  
ROOT
ATOM      7  CA  LYS A 135      33.193  34.663   9.290  1.00 25.02     0.186 C 
ENDROOT
BRANCH   7   8
ATOM      8  CB  LYS A 135      32.060  35.360  10.034  1.00 26.63     0.034 C 
BRANCH   8   9
ATOM      9  CG  LYS A 135      30.774  35.424   9.250  1.00 29.45     0.005 C 
BRANCH   9  10
ATOM     10  CD  LYS A 135      30.004  36.692   9.587  1.00 32.00     0.041 C 
BRANCH  10  11
ATOM     11  CE  LYS A 135      30.465  37.843   8.714  1.00 34.25     0.338 C 
ATOM     12  NZ  LYS A 135      29.726  39.094   9.041  1.00 35.99     0.618 N 
ENDBRANCH  10  11
ENDBRANCH   9  10
ENDBRANCH   8   9
ENDBRANCH   7   8
END_RES LYS A 135
