REMARK VINA RESULT:    -4.237      4.348      8.461
REMARK INTER + INTRA:         -14.810
REMARK INTER:                  -8.338
REMARK INTRA:                  -6.472
REMARK UNBOUND:                -6.980
REMARK SMILES CC(=O)N[C@@H]1[C@@H](O)C[C@](O)(C(=O)O)O[C@H]1C(O)[C@H](O)CNC(=O)OCc1cn(Cc2ccc(C#N)cc2)nn1
REMARK SMILES IDX 21 1 22 2 23 3 20 5 18 6 16 7 15 8 9 9 8 10 14 11 6 12 5 13
REMARK SMILES IDX 10 14 11 16 12 17 13 18 7 20 4 22 2 23 1 25 3 26 17 27 19 29
REMARK SMILES IDX 24 31 25 32 26 33 27 34 39 35 28 36 38 37 29 38 30 39 31 40
REMARK SMILES IDX 37 41 32 42 36 43 33 44 34 45 35 46
REMARK H PARENT 21 4 10 15 13 19 7 21 4 24 17 28 19 30
REMARK Flexibility Score: inf
ROOT
ATOM      1  N   UNL     1      28.052  34.772  12.937  1.00  0.00    -0.319 N 
ATOM      2  C   UNL     1      27.230  35.803  13.481  1.00  0.00     0.407 C 
ATOM      3  O   UNL     1      27.709  36.985  13.591  1.00  0.00    -0.225 OA
ATOM      4  H   UNL     1      27.640  33.824  12.854  1.00  0.00     0.167 HD
ENDROOT
BRANCH   1   5
ATOM      5  C   UNL     1      29.376  35.074  12.533  1.00  0.00     0.154 C 
BRANCH   5   6
ATOM      6  C   UNL     1      30.479  34.312  13.229  1.00  0.00     0.165 C 
BRANCH   6   7
ATOM      7  C   UNL     1      30.843  34.890  14.581  1.00  0.00     0.176 C 
BRANCH   7   8
ATOM      8  C   UNL     1      30.594  33.941  15.703  1.00  0.00     0.178 C 
ATOM      9  C   UNL     1      28.943  32.557  16.586  1.00  0.00     0.269 C 
ATOM     10  C   UNL     1      30.048  32.191  17.552  1.00  0.00     0.112 C 
ATOM     11  O   UNL     1      29.375  33.279  15.514  1.00  0.00    -0.332 OA
ATOM     12  C   UNL     1      30.799  33.372  18.056  1.00  0.00     0.145 C 
ATOM     13  C   UNL     1      30.556  34.534  17.077  1.00  0.00     0.142 C 
BRANCH   9  14
ATOM     14  O   UNL     1      27.927  33.221  17.307  1.00  0.00    -0.357 OA
ATOM     15  H   UNL     1      28.335  33.550  18.161  1.00  0.00     0.214 HD
ENDBRANCH   9  14
BRANCH   9  16
ATOM     16  C   UNL     1      28.370  31.287  16.094  1.00  0.00     0.364 C 
ATOM     17  O   UNL     1      29.044  30.562  15.329  1.00  0.00    -0.246 OA
BRANCH  16  18
ATOM     18  O   UNL     1      27.105  30.899  16.473  1.00  0.00    -0.477 OA
ATOM     19  H   UNL     1      26.863  30.509  17.365  1.00  0.00     0.296 HD
ENDBRANCH  16  18
ENDBRANCH   9  16
BRANCH  12  20
ATOM     20  O   UNL     1      30.481  33.740  19.348  1.00  0.00    -0.391 OA
ATOM     21  H   UNL     1      29.514  34.018  19.342  1.00  0.00     0.211 HD
ENDBRANCH  12  20
BRANCH  13  22
ATOM     22  N   UNL     1      31.470  35.604  17.329  1.00  0.00    -0.348 N 
ATOM     23  C   UNL     1      31.100  36.719  18.157  1.00  0.00     0.217 C 
ATOM     24  H   UNL     1      32.451  35.619  16.930  1.00  0.00     0.163 HD
ATOM     25  C   UNL     1      32.063  37.831  18.414  1.00  0.00     0.114 C 
ATOM     26  O   UNL     1      29.962  36.782  18.680  1.00  0.00    -0.275 OA
ENDBRANCH  13  22
ENDBRANCH   7   8
BRANCH   7  27
ATOM     27  O   UNL     1      30.315  36.131  14.730  1.00  0.00    -0.388 OA
ATOM     28  H   UNL     1      29.524  36.327  14.224  1.00  0.00     0.211 HD
ENDBRANCH   7  27
ENDBRANCH   6   7
BRANCH   6  29
ATOM     29  O   UNL     1      31.591  34.443  12.357  1.00  0.00    -0.388 OA
ATOM     30  H   UNL     1      31.886  35.368  12.278  1.00  0.00     0.211 HD
ENDBRANCH   6  29
ENDBRANCH   5   6
ENDBRANCH   1   5
BRANCH   2  31
ATOM     31  O   UNL     1      25.928  35.624  13.909  1.00  0.00    -0.443 OA
BRANCH  31  32
ATOM     32  C   UNL     1      25.699  34.992  15.149  1.00  0.00     0.294 C 
BRANCH  32  33
ATOM     33  C   UNL     1      25.262  33.586  14.984  1.00  0.00     0.120 A 
ATOM     34  C   UNL     1      25.125  32.864  13.808  1.00  0.00     0.138 A 
ATOM     35  N   UNL     1      24.920  32.753  15.975  1.00  0.00    -0.132 NA
ATOM     36  N   UNL     1      24.711  31.633  14.121  1.00  0.00    -0.248 N 
ATOM     37  N   UNL     1      24.596  31.598  15.431  1.00  0.00    -0.067 NA
BRANCH  36  38
ATOM     38  C   UNL     1      24.443  30.539  13.214  1.00  0.00     0.181 C 
BRANCH  38  39
ATOM     39  C   UNL     1      23.034  30.406  12.841  1.00  0.00    -0.026 A 
ATOM     40  C   UNL     1      22.221  31.509  12.824  1.00  0.00     0.007 A 
ATOM     41  C   UNL     1      22.521  29.161  12.511  1.00  0.00     0.007 A 
ATOM     42  C   UNL     1      20.887  31.399  12.479  1.00  0.00     0.020 A 
ATOM     43  C   UNL     1      21.184  29.023  12.161  1.00  0.00     0.020 A 
ATOM     44  C   UNL     1      20.376  30.161  12.151  1.00  0.00     0.052 A 
BRANCH  44  45
ATOM     45  C   UNL     1      18.993  30.034  11.794  1.00  0.00     0.099 C 
ATOM     46  N   UNL     1      17.861  29.947  11.508  1.00  0.00    -0.192 NA
ENDBRANCH  44  45
ENDBRANCH  38  39
ENDBRANCH  36  38
ENDBRANCH  32  33
ENDBRANCH  31  32
ENDBRANCH   2  31
TORSDOF 17
BEGIN_RES LYS A 131
REMARK  4 active torsions:
REMARK  status: ('A' for Active; 'I' for Inactive)
REMARK    1  A    between atoms: CA   and  CB  
REMARK    2  A    between atoms: CB   and  CG  
REMARK    3  A    between atoms: CG   and  CD  
REMARK    4  A    between atoms: CD   and  CE  
ROOT
ATOM      1  CA  LYS A 131      29.867  25.555  16.977  1.00 20.52     0.186 C 
ENDROOT
BRANCH   1   2
ATOM      2  CB  LYS A 131      28.345  25.722  17.026  1.00 20.94     0.034 C 
BRANCH   2   3
ATOM      3  CG  LYS A 131      27.601  24.404  16.878  1.00 22.96     0.005 C 
BRANCH   3   4
ATOM      4  CD  LYS A 131      26.154  24.523  17.271  1.00 24.33     0.041 C 
BRANCH   4   5
ATOM      5  CE  LYS A 131      26.037  25.376  18.530  1.00 26.91     0.338 C 
ATOM      6  NZ  LYS A 131      25.491  24.575  19.650  1.00 27.40     0.618 N 
ENDBRANCH   4   5
ENDBRANCH   3   4
ENDBRANCH   2   3
ENDBRANCH   1   2
END_RES LYS A 131
BEGIN_RES LYS A 135
REMARK  4 active torsions:
REMARK  status: ('A' for Active; 'I' for Inactive)
REMARK    5  A    between atoms: CA   and  CB  
REMARK    6  A    between atoms: CB   and  CG  
REMARK    7  A    between atoms: CG   and  CD  
REMARK    8  A    between atoms: CD   and  CE  
ROOT
ATOM      7  CA  LYS A 135      33.193  34.663   9.290  1.00 25.02     0.186 C 
ENDROOT
BRANCH   7   8
ATOM      8  CB  LYS A 135      32.060  35.360  10.034  1.00 26.63     0.034 C 
BRANCH   8   9
ATOM      9  CG  LYS A 135      30.843  35.610   9.181  1.00 29.45     0.005 C 
BRANCH   9  10
ATOM     10  CD  LYS A 135      30.241  34.296   8.708  1.00 32.00     0.041 C 
BRANCH  10  11
ATOM     11  CE  LYS A 135      28.749  34.446   8.480  1.00 34.25     0.338 C 
ATOM     12  NZ  LYS A 135      27.971  33.739   9.535  1.00 35.99     0.618 N 
ENDBRANCH  10  11
ENDBRANCH   9  10
ENDBRANCH   8   9
ENDBRANCH   7   8
END_RES LYS A 135
