REMARK VINA RESULT:    -4.358      3.768      6.898
REMARK INTER + INTRA:         -14.906
REMARK INTER:                  -9.864
REMARK INTRA:                  -5.042
REMARK UNBOUND:                -7.109
REMARK SMILES CC(=O)N[C@@H]1[C@@H](O)C[C@](O)(C(=O)O)O[C@H]1C(O)[C@H](O)CNC(=O)OCc1cn(-c2ncn3c2c(=O)n(C(C)C)c2ccccc23)nn1
REMARK SMILES IDX 21 1 22 2 23 3 20 5 18 6 16 7 15 8 9 9 8 10 14 11 6 12 5 13
REMARK SMILES IDX 10 14 11 16 12 17 13 18 7 20 4 22 2 23 1 25 3 26 17 27 19 29
REMARK SMILES IDX 24 31 25 32 26 33 27 34 47 35 28 36 46 37 29 38 30 39 33 40
REMARK SMILES IDX 31 41 32 42 34 43 45 44 36 45 35 46 44 47 40 48 43 49 41 50
REMARK SMILES IDX 42 51 37 52 38 53 39 54
REMARK H PARENT 21 4 10 15 13 19 7 21 4 24 17 28 19 30
REMARK Flexibility Score: inf
ROOT
ATOM      1  N   UNL     1      24.878  34.530  15.058  1.00  0.00    -0.319 N 
ATOM      2  C   UNL     1      24.044  35.642  15.177  1.00  0.00     0.407 C 
ATOM      3  O   UNL     1      24.236  36.566  15.968  1.00  0.00    -0.225 OA
ATOM      4  H   UNL     1      24.594  33.807  14.286  1.00  0.00     0.167 HD
ENDROOT
BRANCH   1   5
ATOM      5  C   UNL     1      26.031  34.252  15.824  1.00  0.00     0.154 C 
BRANCH   5   6
ATOM      6  C   UNL     1      27.306  34.755  15.311  1.00  0.00     0.165 C 
BRANCH   6   7
ATOM      7  C   UNL     1      28.466  33.888  15.041  1.00  0.00     0.176 C 
BRANCH   7   8
ATOM      8  C   UNL     1      29.638  34.477  15.881  1.00  0.00     0.178 C 
ATOM      9  C   UNL     1      31.332  34.893  14.308  1.00  0.00     0.269 C 
ATOM     10  C   UNL     1      32.252  33.981  15.048  1.00  0.00     0.112 C 
ATOM     11  O   UNL     1      30.323  35.332  15.102  1.00  0.00    -0.332 OA
ATOM     12  C   UNL     1      31.557  32.875  15.802  1.00  0.00     0.145 C 
ATOM     13  C   UNL     1      30.375  33.400  16.585  1.00  0.00     0.142 C 
BRANCH   9  14
ATOM     14  O   UNL     1      30.762  34.211  13.203  1.00  0.00    -0.357 OA
ATOM     15  H   UNL     1      31.333  34.459  12.428  1.00  0.00     0.214 HD
ENDBRANCH   9  14
BRANCH   9  16
ATOM     16  C   UNL     1      32.180  36.019  13.791  1.00  0.00     0.364 C 
ATOM     17  O   UNL     1      32.766  35.897  12.707  1.00  0.00    -0.246 OA
BRANCH  16  18
ATOM     18  O   UNL     1      32.301  37.178  14.520  1.00  0.00    -0.477 OA
ATOM     19  H   UNL     1      31.496  37.568  15.018  1.00  0.00     0.296 HD
ENDBRANCH  16  18
ENDBRANCH   9  16
BRANCH  12  20
ATOM     20  O   UNL     1      31.162  31.826  14.970  1.00  0.00    -0.391 OA
ATOM     21  H   UNL     1      30.210  31.620  15.135  1.00  0.00     0.211 HD
ENDBRANCH  12  20
BRANCH  13  22
ATOM     22  N   UNL     1      30.894  33.851  17.883  1.00  0.00    -0.348 N 
ATOM     23  C   UNL     1      30.960  33.007  19.010  1.00  0.00     0.217 C 
ATOM     24  H   UNL     1      31.238  34.845  18.010  1.00  0.00     0.163 HD
ATOM     25  C   UNL     1      31.485  33.468  20.321  1.00  0.00     0.114 C 
ATOM     26  O   UNL     1      30.562  31.806  18.925  1.00  0.00    -0.275 OA
ENDBRANCH  13  22
ENDBRANCH   7   8
BRANCH   7  27
ATOM     27  O   UNL     1      28.305  32.548  15.402  1.00  0.00    -0.388 OA
ATOM     28  H   UNL     1      27.354  32.255  15.238  1.00  0.00     0.211 HD
ENDBRANCH   7  27
ENDBRANCH   6   7
BRANCH   6  29
ATOM     29  O   UNL     1      27.710  35.793  16.236  1.00  0.00    -0.388 OA
ATOM     30  H   UNL     1      28.331  36.408  15.809  1.00  0.00     0.211 HD
ENDBRANCH   6  29
ENDBRANCH   5   6
ENDBRANCH   1   5
BRANCH   2  31
ATOM     31  O   UNL     1      22.892  35.770  14.367  1.00  0.00    -0.443 OA
BRANCH  31  32
ATOM     32  C   UNL     1      22.953  36.327  13.086  1.00  0.00     0.294 C 
BRANCH  32  33
ATOM     33  C   UNL     1      24.269  36.021  12.469  1.00  0.00     0.121 A 
ATOM     34  C   UNL     1      25.380  36.857  12.411  1.00  0.00     0.146 A 
ATOM     35  N   UNL     1      24.666  34.894  11.852  1.00  0.00    -0.131 NA
ATOM     36  N   UNL     1      26.404  36.225  11.770  1.00  0.00    -0.200 N 
ATOM     37  N   UNL     1      25.915  35.053  11.460  1.00  0.00    -0.060 NA
BRANCH  36  38
ATOM     38  C   UNL     1      27.682  36.817  11.553  1.00  0.00     0.186 A 
ATOM     39  N   UNL     1      28.664  36.957  12.493  1.00  0.00    -0.216 NA
ATOM     40  C   UNL     1      28.198  37.357  10.404  1.00  0.00     0.158 A 
ATOM     41  C   UNL     1      29.719  37.555  11.925  1.00  0.00     0.207 A 
ATOM     42  N   UNL     1      29.467  37.819  10.629  1.00  0.00    -0.291 N 
ATOM     43  C   UNL     1      27.693  37.502   9.151  1.00  0.00     0.279 A 
ATOM     44  C   UNL     1      30.201  38.396   9.661  1.00  0.00     0.071 A 
ATOM     45  N   UNL     1      28.384  38.067   8.164  1.00  0.00    -0.302 N 
ATOM     46  O   UNL     1      26.534  37.103   8.870  1.00  0.00    -0.267 OA
ATOM     47  C   UNL     1      31.477  38.850   9.925  1.00  0.00     0.029 A 
ATOM     48  C   UNL     1      29.633  38.514   8.410  1.00  0.00     0.068 A 
ATOM     49  C   UNL     1      32.256  39.448   8.949  1.00  0.00     0.002 A 
ATOM     50  C   UNL     1      30.432  39.118   7.450  1.00  0.00     0.028 A 
ATOM     51  C   UNL     1      31.711  39.576   7.701  1.00  0.00     0.002 A 
BRANCH  45  52
ATOM     52  C   UNL     1      27.907  38.249   6.811  1.00  0.00     0.085 C 
ATOM     53  C   UNL     1      26.697  39.155   6.883  1.00  0.00     0.031 C 
ATOM     54  C   UNL     1      27.492  36.990   6.120  1.00  0.00     0.031 C 
ENDBRANCH  45  52
ENDBRANCH  36  38
ENDBRANCH  32  33
ENDBRANCH  31  32
ENDBRANCH   2  31
TORSDOF 16
BEGIN_RES LYS A 131
REMARK  4 active torsions:
REMARK  status: ('A' for Active; 'I' for Inactive)
REMARK    1  A    between atoms: CA   and  CB  
REMARK    2  A    between atoms: CB   and  CG  
REMARK    3  A    between atoms: CG   and  CD  
REMARK    4  A    between atoms: CD   and  CE  
ROOT
ATOM      1  CA  LYS A 131      29.867  25.555  16.977  1.00 20.52     0.186 C 
ENDROOT
BRANCH   1   2
ATOM      2  CB  LYS A 131      28.345  25.722  17.026  1.00 20.94     0.034 C 
BRANCH   2   3
ATOM      3  CG  LYS A 131      27.601  24.400  16.908  1.00 22.96     0.005 C 
BRANCH   3   4
ATOM      4  CD  LYS A 131      26.588  24.221  18.004  1.00 24.33     0.041 C 
BRANCH   4   5
ATOM      5  CE  LYS A 131      26.408  25.538  18.752  1.00 26.91     0.338 C 
ATOM      6  NZ  LYS A 131      24.973  25.899  18.828  1.00 27.40     0.618 N 
ENDBRANCH   4   5
ENDBRANCH   3   4
ENDBRANCH   2   3
ENDBRANCH   1   2
END_RES LYS A 131
BEGIN_RES LYS A 135
REMARK  4 active torsions:
REMARK  status: ('A' for Active; 'I' for Inactive)
REMARK    5  A    between atoms: CA   and  CB  
REMARK    6  A    between atoms: CB   and  CG  
REMARK    7  A    between atoms: CG   and  CD  
REMARK    8  A    between atoms: CD   and  CE  
ROOT
ATOM      7  CA  LYS A 135      33.193  34.663   9.290  1.00 25.02     0.186 C 
ENDROOT
BRANCH   7   8
ATOM      8  CB  LYS A 135      32.060  35.360  10.034  1.00 26.63     0.034 C 
BRANCH   8   9
ATOM      9  CG  LYS A 135      30.719  34.701   9.843  1.00 29.45     0.005 C 
BRANCH   9  10
ATOM     10  CD  LYS A 135      30.304  34.740   8.380  1.00 32.00     0.041 C 
BRANCH  10  11
ATOM     11  CE  LYS A 135      28.826  34.432   8.237  1.00 34.25     0.338 C 
ATOM     12  NZ  LYS A 135      28.299  33.753   9.453  1.00 35.99     0.618 N 
ENDBRANCH  10  11
ENDBRANCH   9  10
ENDBRANCH   8   9
ENDBRANCH   7   8
END_RES LYS A 135
