REMARK VINA RESULT:    -4.875      4.396      9.499
REMARK INTER + INTRA:         -14.220
REMARK INTER:                  -9.779
REMARK INTRA:                  -4.441
REMARK UNBOUND:                -5.212
REMARK SMILES CC(=O)N[C@@H]1[C@@H](O)C[C@](O)(C(=O)O)O[C@H]1C(O)[C@H](O)CNC(=O)OCc1cn(Cc2cccc(C#N)c2)nn1
REMARK SMILES IDX 21 1 22 2 23 3 20 5 18 6 16 7 15 8 9 9 8 10 14 11 6 12 5 13
REMARK SMILES IDX 10 14 11 16 12 17 13 18 7 20 4 22 2 23 1 25 3 26 17 27 19 29
REMARK SMILES IDX 24 31 25 32 26 33 27 34 39 35 28 36 38 37 29 38 30 39 31 40
REMARK SMILES IDX 37 41 32 42 34 43 33 44 35 45 36 46
REMARK H PARENT 21 4 10 15 13 19 7 21 4 24 17 28 19 30
REMARK Flexibility Score: inf
ROOT
ATOM      1  N   UNL     1      29.911  30.772  17.438  1.00  0.00    -0.319 N 
ATOM      2  C   UNL     1      28.918  30.720  18.423  1.00  0.00     0.407 C 
ATOM      3  O   UNL     1      27.715  30.870  18.126  1.00  0.00    -0.225 OA
ATOM      4  H   UNL     1      30.913  30.631  17.768  1.00  0.00     0.167 HD
ENDROOT
BRANCH   1   5
ATOM      5  C   UNL     1      29.647  31.001  16.042  1.00  0.00     0.154 C 
BRANCH   5   6
ATOM      6  C   UNL     1      30.292  32.253  15.519  1.00  0.00     0.165 C 
BRANCH   6   7
ATOM      7  C   UNL     1      29.451  33.095  14.642  1.00  0.00     0.176 C 
BRANCH   7   8
ATOM      8  C   UNL     1      30.140  34.354  14.091  1.00  0.00     0.178 C 
ATOM      9  C   UNL     1      31.844  35.797  14.541  1.00  0.00     0.269 C 
ATOM     10  C   UNL     1      30.876  36.949  14.717  1.00  0.00     0.112 C 
ATOM     11  O   UNL     1      31.181  34.646  14.878  1.00  0.00    -0.332 OA
ATOM     12  C   UNL     1      29.693  36.811  13.798  1.00  0.00     0.145 C 
ATOM     13  C   UNL     1      29.162  35.408  13.739  1.00  0.00     0.142 C 
BRANCH   9  14
ATOM     14  O   UNL     1      32.915  35.999  15.448  1.00  0.00    -0.357 OA
ATOM     15  H   UNL     1      33.001  35.123  15.922  1.00  0.00     0.214 HD
ENDBRANCH   9  14
BRANCH   9  16
ATOM     16  C   UNL     1      32.427  35.847  13.196  1.00  0.00     0.364 C 
ATOM     17  O   UNL     1      32.288  36.842  12.447  1.00  0.00    -0.246 OA
BRANCH  16  18
ATOM     18  O   UNL     1      33.183  34.794  12.641  1.00  0.00    -0.477 OA
ATOM     19  H   UNL     1      33.155  34.739  11.620  1.00  0.00     0.296 HD
ENDBRANCH  16  18
ENDBRANCH   9  16
BRANCH  12  20
ATOM     20  O   UNL     1      28.704  37.684  14.251  1.00  0.00    -0.391 OA
ATOM     21  H   UNL     1      29.075  38.491  14.665  1.00  0.00     0.211 HD
ENDBRANCH  12  20
BRANCH  13  22
ATOM     22  N   UNL     1      28.599  35.178  12.423  1.00  0.00    -0.348 N 
ATOM     23  C   UNL     1      27.206  34.859  12.222  1.00  0.00     0.217 C 
ATOM     24  H   UNL     1      29.150  35.222  11.528  1.00  0.00     0.163 HD
ATOM     25  C   UNL     1      26.671  34.627  10.843  1.00  0.00     0.114 C 
ATOM     26  O   UNL     1      26.437  34.774  13.200  1.00  0.00    -0.275 OA
ENDBRANCH  13  22
ENDBRANCH   7   8
BRANCH   7  27
ATOM     27  O   UNL     1      28.276  33.531  15.258  1.00  0.00    -0.388 OA
ATOM     28  H   UNL     1      28.394  34.376  15.757  1.00  0.00     0.211 HD
ENDBRANCH   7  27
ENDBRANCH   6   7
BRANCH   6  29
ATOM     29  O   UNL     1      31.542  31.909  15.005  1.00  0.00    -0.388 OA
ATOM     30  H   UNL     1      32.055  31.468  15.727  1.00  0.00     0.211 HD
ENDBRANCH   6  29
ENDBRANCH   5   6
ENDBRANCH   1   5
BRANCH   2  31
ATOM     31  O   UNL     1      29.203  30.504  19.771  1.00  0.00    -0.443 OA
BRANCH  31  32
ATOM     32  C   UNL     1      30.030  31.423  20.438  1.00  0.00     0.294 C 
BRANCH  32  33
ATOM     33  C   UNL     1      31.174  30.699  21.027  1.00  0.00     0.120 A 
ATOM     34  C   UNL     1      31.837  30.966  22.204  1.00  0.00     0.138 A 
ATOM     35  N   UNL     1      31.780  29.620  20.499  1.00  0.00    -0.132 NA
ATOM     36  N   UNL     1      32.814  30.053  22.356  1.00  0.00    -0.248 N 
ATOM     37  N   UNL     1      32.743  29.255  21.297  1.00  0.00    -0.067 NA
BRANCH  36  38
ATOM     38  C   UNL     1      33.779  29.882  23.410  1.00  0.00     0.181 C 
BRANCH  38  39
ATOM     39  C   UNL     1      35.142  30.316  22.956  1.00  0.00    -0.025 A 
ATOM     40  C   UNL     1      35.269  31.372  22.082  1.00  0.00     0.006 A 
ATOM     41  C   UNL     1      36.279  29.692  23.394  1.00  0.00     0.025 A 
ATOM     42  C   UNL     1      36.538  31.786  21.660  1.00  0.00     0.002 A 
ATOM     43  C   UNL     1      37.545  30.074  23.001  1.00  0.00     0.052 A 
ATOM     44  C   UNL     1      37.671  31.130  22.127  1.00  0.00     0.019 A 
BRANCH  43  45
ATOM     45  C   UNL     1      38.750  29.438  23.446  1.00  0.00     0.099 C 
ATOM     46  N   UNL     1      39.729  28.906  23.795  1.00  0.00    -0.192 NA
ENDBRANCH  43  45
ENDBRANCH  38  39
ENDBRANCH  36  38
ENDBRANCH  32  33
ENDBRANCH  31  32
ENDBRANCH   2  31
TORSDOF 17
BEGIN_RES LYS A 131
REMARK  4 active torsions:
REMARK  status: ('A' for Active; 'I' for Inactive)
REMARK    1  A    between atoms: CA   and  CB  
REMARK    2  A    between atoms: CB   and  CG  
REMARK    3  A    between atoms: CG   and  CD  
REMARK    4  A    between atoms: CD   and  CE  
ROOT
ATOM      1  CA  LYS A 131      29.867  25.555  16.977  1.00 20.52     0.186 C 
ENDROOT
BRANCH   1   2
ATOM      2  CB  LYS A 131      28.345  25.722  17.026  1.00 20.94     0.034 C 
BRANCH   2   3
ATOM      3  CG  LYS A 131      27.601  24.403  16.887  1.00 22.96     0.005 C 
BRANCH   3   4
ATOM      4  CD  LYS A 131      26.174  24.506  17.349  1.00 24.33     0.041 C 
BRANCH   4   5
ATOM      5  CE  LYS A 131      25.808  23.262  18.153  1.00 26.91     0.338 C 
ATOM      6  NZ  LYS A 131      25.503  23.624  19.557  1.00 27.40     0.618 N 
ENDBRANCH   4   5
ENDBRANCH   3   4
ENDBRANCH   2   3
ENDBRANCH   1   2
END_RES LYS A 131
BEGIN_RES LYS A 135
REMARK  4 active torsions:
REMARK  status: ('A' for Active; 'I' for Inactive)
REMARK    5  A    between atoms: CA   and  CB  
REMARK    6  A    between atoms: CB   and  CG  
REMARK    7  A    between atoms: CG   and  CD  
REMARK    8  A    between atoms: CD   and  CE  
ROOT
ATOM      7  CA  LYS A 135      33.193  34.663   9.290  1.00 25.02     0.186 C 
ENDROOT
BRANCH   7   8
ATOM      8  CB  LYS A 135      32.060  35.360  10.034  1.00 26.63     0.034 C 
BRANCH   8   9
ATOM      9  CG  LYS A 135      30.706  34.752   9.775  1.00 29.45     0.005 C 
BRANCH   9  10
ATOM     10  CD  LYS A 135      30.496  34.523   8.286  1.00 32.00     0.041 C 
BRANCH  10  11
ATOM     11  CE  LYS A 135      29.083  34.900   7.883  1.00 34.25     0.338 C 
ATOM     12  NZ  LYS A 135      28.830  36.350   8.108  1.00 35.99     0.618 N 
ENDBRANCH  10  11
ENDBRANCH   9  10
ENDBRANCH   8   9
ENDBRANCH   7   8
END_RES LYS A 135
