REMARK VINA RESULT:    -4.958      4.338      7.794
REMARK INTER + INTRA:         -15.072
REMARK INTER:                  -9.034
REMARK INTRA:                  -6.038
REMARK UNBOUND:                -6.490
REMARK SMILES CC(=O)N[C@@H]1[C@@H](O)C[C@](O)(C(=O)O)O[C@H]1C(O)[C@H](O)CNC(=O)OCc1cn(-c2ccc3[nH]ncc3c2)nn1
REMARK SMILES IDX 20 1 18 2 16 3 15 4 9 5 8 6 14 7 6 8 5 9 10 10 11 12 12 13
REMARK SMILES IDX 13 14 7 16 4 18 2 19 1 21 3 22 17 23 19 25 21 27 22 28 23 30
REMARK SMILES IDX 24 31 25 32 26 33 27 34 39 35 28 36 38 37 29 38 30 39 37 40
REMARK SMILES IDX 31 41 36 42 32 43 35 44 33 45 34 46
REMARK H PARENT 10 11 13 15 7 17 4 20 17 24 19 26 21 29 33 47
REMARK Flexibility Score: inf
ROOT
ATOM      1  C   UNL     1      25.841  28.418  20.355  1.00  0.00     0.154 C 
ENDROOT
BRANCH   1   2
ATOM      2  C   UNL     1      26.889  27.534  20.873  1.00  0.00     0.165 C 
BRANCH   2   3
ATOM      3  C   UNL     1      28.280  27.975  20.366  1.00  0.00     0.176 C 
BRANCH   3   4
ATOM      4  C   UNL     1      29.022  28.800  21.324  1.00  0.00     0.178 C 
ATOM      5  C   UNL     1      29.510  30.813  20.236  1.00  0.00     0.269 C 
ATOM      6  C   UNL     1      30.686  30.094  19.640  1.00  0.00     0.112 C 
ATOM      7  O   UNL     1      28.890  30.156  21.258  1.00  0.00    -0.332 OA
ATOM      8  C   UNL     1      31.405  29.212  20.600  1.00  0.00     0.145 C 
ATOM      9  C   UNL     1      30.491  28.370  21.432  1.00  0.00     0.142 C 
BRANCH   5  10
ATOM     10  O   UNL     1      28.588  31.099  19.230  1.00  0.00    -0.357 OA
ATOM     11  H   UNL     1      28.975  30.991  18.327  1.00  0.00     0.214 HD
ENDBRANCH   5  10
BRANCH   5  12
ATOM     12  C   UNL     1      30.016  32.099  20.770  1.00  0.00     0.364 C 
ATOM     13  O   UNL     1      30.392  32.990  19.992  1.00  0.00    -0.246 OA
BRANCH  12  14
ATOM     14  O   UNL     1      30.067  32.303  22.132  1.00  0.00    -0.477 OA
ATOM     15  H   UNL     1      29.373  32.865  22.645  1.00  0.00     0.296 HD
ENDBRANCH  12  14
ENDBRANCH   5  12
BRANCH   8  16
ATOM     16  O   UNL     1      32.306  28.418  19.866  1.00  0.00    -0.391 OA
ATOM     17  H   UNL     1      32.746  27.837  20.532  1.00  0.00     0.211 HD
ENDBRANCH   8  16
BRANCH   9  18
ATOM     18  N   UNL     1      30.919  28.253  22.801  1.00  0.00    -0.348 N 
ATOM     19  C   UNL     1      30.729  27.067  23.560  1.00  0.00     0.217 C 
ATOM     20  H   UNL     1      31.396  29.076  23.279  1.00  0.00     0.163 HD
ATOM     21  C   UNL     1      31.185  26.997  24.961  1.00  0.00     0.114 C 
ATOM     22  O   UNL     1      30.167  26.085  23.011  1.00  0.00    -0.275 OA
ENDBRANCH   9  18
ENDBRANCH   3   4
BRANCH   3  23
ATOM     23  O   UNL     1      28.959  26.703  20.336  1.00  0.00    -0.388 OA
ATOM     24  H   UNL     1      29.425  26.590  19.476  1.00  0.00     0.211 HD
ENDBRANCH   3  23
ENDBRANCH   2   3
BRANCH   2  25
ATOM     25  O   UNL     1      26.676  26.268  20.206  1.00  0.00    -0.388 OA
ATOM     26  H   UNL     1      26.749  25.536  20.879  1.00  0.00     0.211 HD
ENDBRANCH   2  25
ENDBRANCH   1   2
BRANCH   1  27
ATOM     27  N   UNL     1      26.081  29.018  19.072  1.00  0.00    -0.319 N 
ATOM     28  C   UNL     1      25.457  28.541  17.889  1.00  0.00     0.407 C 
ATOM     29  H   UNL     1      26.682  29.852  18.987  1.00  0.00     0.167 HD
ATOM     30  O   UNL     1      24.673  27.562  17.984  1.00  0.00    -0.225 OA
BRANCH  28  31
ATOM     31  O   UNL     1      25.663  29.088  16.644  1.00  0.00    -0.443 OA
BRANCH  31  32
ATOM     32  C   UNL     1      25.740  30.475  16.375  1.00  0.00     0.294 C 
BRANCH  32  33
ATOM     33  C   UNL     1      27.188  30.821  16.175  1.00  0.00     0.121 A 
ATOM     34  C   UNL     1      27.726  31.971  15.641  1.00  0.00     0.144 A 
ATOM     35  N   UNL     1      28.262  30.044  16.490  1.00  0.00    -0.131 NA
ATOM     36  N   UNL     1      29.083  31.825  15.663  1.00  0.00    -0.220 N 
ATOM     37  N   UNL     1      29.378  30.647  16.183  1.00  0.00    -0.062 NA
BRANCH  36  38
ATOM     38  C   UNL     1      30.003  32.797  15.196  1.00  0.00     0.067 A 
ATOM     39  C   UNL     1      31.288  32.816  15.705  1.00  0.00     0.030 A 
ATOM     40  C   UNL     1      29.689  33.744  14.244  1.00  0.00     0.040 A 
ATOM     41  C   UNL     1      32.226  33.738  15.290  1.00  0.00     0.030 A 
ATOM     42  C   UNL     1      30.601  34.665  13.817  1.00  0.00     0.022 A 
ATOM     43  C   UNL     1      31.896  34.682  14.332  1.00  0.00     0.065 A 
ATOM     44  C   UNL     1      30.563  35.695  12.907  1.00  0.00     0.143 A 
ATOM     45  N   UNL     1      32.574  35.680  13.744  1.00  0.00    -0.278 N 
ATOM     46  N   UNL     1      31.789  36.294  12.888  1.00  0.00    -0.183 NA
ATOM     47  H   UNL     1      33.563  35.921  13.939  1.00  0.00     0.190 HD
ENDBRANCH  36  38
ENDBRANCH  32  33
ENDBRANCH  31  32
ENDBRANCH  28  31
ENDBRANCH   1  27
TORSDOF 15
BEGIN_RES LYS A 131
REMARK  4 active torsions:
REMARK  status: ('A' for Active; 'I' for Inactive)
REMARK    1  A    between atoms: CA   and  CB  
REMARK    2  A    between atoms: CB   and  CG  
REMARK    3  A    between atoms: CG   and  CD  
REMARK    4  A    between atoms: CD   and  CE  
ROOT
ATOM      1  CA  LYS A 131      29.867  25.555  16.977  1.00 20.52     0.186 C 
ENDROOT
BRANCH   1   2
ATOM      2  CB  LYS A 131      28.345  25.722  17.026  1.00 20.94     0.034 C 
BRANCH   2   3
ATOM      3  CG  LYS A 131      27.601  24.403  16.888  1.00 22.96     0.005 C 
BRANCH   3   4
ATOM      4  CD  LYS A 131      26.149  24.530  17.257  1.00 24.33     0.041 C 
BRANCH   4   5
ATOM      5  CE  LYS A 131      25.595  23.157  17.622  1.00 26.91     0.338 C 
ATOM      6  NZ  LYS A 131      25.041  23.169  18.997  1.00 27.40     0.618 N 
ENDBRANCH   4   5
ENDBRANCH   3   4
ENDBRANCH   2   3
ENDBRANCH   1   2
END_RES LYS A 131
BEGIN_RES LYS A 135
REMARK  4 active torsions:
REMARK  status: ('A' for Active; 'I' for Inactive)
REMARK    5  A    between atoms: CA   and  CB  
REMARK    6  A    between atoms: CB   and  CG  
REMARK    7  A    between atoms: CG   and  CD  
REMARK    8  A    between atoms: CD   and  CE  
ROOT
ATOM      7  CA  LYS A 135      33.193  34.663   9.290  1.00 25.02     0.186 C 
ENDROOT
BRANCH   7   8
ATOM      8  CB  LYS A 135      32.060  35.360  10.034  1.00 26.63     0.034 C 
BRANCH   8   9
ATOM      9  CG  LYS A 135      30.797  35.490   9.223  1.00 29.45     0.005 C 
BRANCH   9  10
ATOM     10  CD  LYS A 135      29.905  34.273   9.420  1.00 32.00     0.041 C 
BRANCH  10  11
ATOM     11  CE  LYS A 135      28.567  34.477   8.737  1.00 34.25     0.338 C 
ATOM     12  NZ  LYS A 135      27.487  33.726   9.435  1.00 35.99     0.618 N 
ENDBRANCH  10  11
ENDBRANCH   9  10
ENDBRANCH   8   9
ENDBRANCH   7   8
END_RES LYS A 135
