REMARK VINA RESULT:    -4.279      6.187     10.664
REMARK INTER + INTRA:         -14.460
REMARK INTER:                  -8.050
REMARK INTRA:                  -6.409
REMARK UNBOUND:                -6.804
REMARK SMILES CC(=O)N[C@@H]1[C@@H](O)C[C@](O)(C(=O)O)O[C@H]1C(O)[C@H](O)CNC(=O)OCc1cn(-c2ccccc2C(C)=O)nn1
REMARK SMILES IDX 21 1 22 2 23 3 20 5 18 6 16 7 15 8 9 9 8 10 14 11 6 12 5 13
REMARK SMILES IDX 10 14 11 16 12 17 13 18 7 20 4 22 2 23 1 25 3 26 17 27 19 29
REMARK SMILES IDX 24 31 25 32 26 33 27 34 39 35 28 36 38 37 29 38 34 39 30 40
REMARK SMILES IDX 33 41 31 42 32 43 35 44 37 45 36 46
REMARK H PARENT 21 4 10 15 13 19 7 21 4 24 17 28 19 30
REMARK Flexibility Score: inf
ROOT
ATOM      1  N   UNL     1      21.478  37.834  11.955  1.00  0.00    -0.319 N 
ATOM      2  C   UNL     1      21.315  36.958  13.083  1.00  0.00     0.407 C 
ATOM      3  O   UNL     1      20.576  37.321  14.029  1.00  0.00    -0.225 OA
ATOM      4  H   UNL     1      22.092  37.495  11.188  1.00  0.00     0.167 HD
ENDROOT
BRANCH   1   5
ATOM      5  C   UNL     1      20.813  39.104  11.934  1.00  0.00     0.154 C 
BRANCH   5   6
ATOM      6  C   UNL     1      19.635  39.225  11.025  1.00  0.00     0.165 C 
BRANCH   6   7
ATOM      7  C   UNL     1      19.878  38.734   9.628  1.00  0.00     0.176 C 
BRANCH   7   8
ATOM      8  C   UNL     1      19.245  37.405   9.313  1.00  0.00     0.178 C 
ATOM      9  C   UNL     1      19.304  35.149   9.803  1.00  0.00     0.269 C 
ATOM     10  C   UNL     1      19.466  34.733   8.353  1.00  0.00     0.112 C 
ATOM     11  O   UNL     1      19.810  36.383   9.995  1.00  0.00    -0.332 OA
ATOM     12  C   UNL     1      19.920  35.864   7.492  1.00  0.00     0.145 C 
ATOM     13  C   UNL     1      19.278  37.160   7.820  1.00  0.00     0.142 C 
BRANCH   9  14
ATOM     14  O   UNL     1      20.105  34.194  10.518  1.00  0.00    -0.357 OA
ATOM     15  H   UNL     1      19.694  34.058  11.427  1.00  0.00     0.214 HD
ENDBRANCH   9  14
BRANCH   9  16
ATOM     16  C   UNL     1      17.927  34.887  10.235  1.00  0.00     0.364 C 
ATOM     17  O   UNL     1      16.997  34.603   9.447  1.00  0.00    -0.246 OA
BRANCH  16  18
ATOM     18  O   UNL     1      17.572  34.940  11.585  1.00  0.00    -0.477 OA
ATOM     19  H   UNL     1      16.671  35.311  11.865  1.00  0.00     0.296 HD
ENDBRANCH  16  18
ENDBRANCH   9  16
BRANCH  12  20
ATOM     20  O   UNL     1      21.310  36.000   7.648  1.00  0.00    -0.391 OA
ATOM     21  H   UNL     1      21.787  36.030   6.784  1.00  0.00     0.211 HD
ENDBRANCH  12  20
BRANCH  13  22
ATOM     22  N   UNL     1      18.012  37.306   7.175  1.00  0.00    -0.348 N 
ATOM     23  C   UNL     1      17.480  38.567   6.788  1.00  0.00     0.217 C 
ATOM     24  H   UNL     1      17.445  36.463   6.970  1.00  0.00     0.163 HD
ATOM     25  C   UNL     1      16.157  38.664   6.119  1.00  0.00     0.114 C 
ATOM     26  O   UNL     1      18.110  39.635   6.997  1.00  0.00    -0.275 OA
ENDBRANCH  13  22
ENDBRANCH   7   8
BRANCH   7  27
ATOM     27  O   UNL     1      21.167  38.893   9.187  1.00  0.00    -0.388 OA
ATOM     28  H   UNL     1      21.121  39.055   8.198  1.00  0.00     0.211 HD
ENDBRANCH   7  27
ENDBRANCH   6   7
BRANCH   6  29
ATOM     29  O   UNL     1      19.413  40.657  10.883  1.00  0.00    -0.388 OA
ATOM     30  H   UNL     1      18.774  40.707  10.123  1.00  0.00     0.211 HD
ENDBRANCH   6  29
ENDBRANCH   5   6
ENDBRANCH   1   5
BRANCH   2  31
ATOM     31  O   UNL     1      21.936  35.735  13.176  1.00  0.00    -0.443 OA
BRANCH  31  32
ATOM     32  C   UNL     1      23.340  35.588  12.975  1.00  0.00     0.294 C 
BRANCH  32  33
ATOM     33  C   UNL     1      23.680  35.547  11.531  1.00  0.00     0.121 A 
ATOM     34  C   UNL     1      24.850  35.920  10.924  1.00  0.00     0.144 A 
ATOM     35  N   UNL     1      22.869  35.119  10.525  1.00  0.00    -0.131 NA
ATOM     36  N   UNL     1      24.713  35.709   9.574  1.00  0.00    -0.220 N 
ATOM     37  N   UNL     1      23.501  35.225   9.384  1.00  0.00    -0.062 NA
BRANCH  36  38
ATOM     38  C   UNL     1      25.643  35.990   8.542  1.00  0.00     0.077 A 
ATOM     39  C   UNL     1      25.661  37.120   7.799  1.00  0.00     0.043 A 
ATOM     40  C   UNL     1      26.603  34.974   8.337  1.00  0.00     0.029 A 
ATOM     41  C   UNL     1      26.649  37.268   6.820  1.00  0.00     0.014 A 
ATOM     42  C   UNL     1      27.567  35.133   7.373  1.00  0.00     0.002 A 
ATOM     43  C   UNL     1      27.571  36.283   6.629  1.00  0.00     0.001 A 
BRANCH  39  44
ATOM     44  C   UNL     1      24.711  38.201   7.939  1.00  0.00     0.161 C 
ATOM     45  O   UNL     1      23.534  38.002   7.433  1.00  0.00    -0.294 OA
ATOM     46  C   UNL     1      24.914  39.499   8.584  1.00  0.00     0.093 C 
ENDBRANCH  39  44
ENDBRANCH  36  38
ENDBRANCH  32  33
ENDBRANCH  31  32
ENDBRANCH   2  31
TORSDOF 16
BEGIN_RES LYS A 131
REMARK  4 active torsions:
REMARK  status: ('A' for Active; 'I' for Inactive)
REMARK    1  A    between atoms: CA   and  CB  
REMARK    2  A    between atoms: CB   and  CG  
REMARK    3  A    between atoms: CG   and  CD  
REMARK    4  A    between atoms: CD   and  CE  
ROOT
ATOM      1  CA  LYS A 131      29.867  25.555  16.977  1.00 20.52     0.186 C 
ENDROOT
BRANCH   1   2
ATOM      2  CB  LYS A 131      28.345  25.722  17.026  1.00 20.94     0.034 C 
BRANCH   2   3
ATOM      3  CG  LYS A 131      27.601  24.402  16.893  1.00 22.96     0.005 C 
BRANCH   3   4
ATOM      4  CD  LYS A 131      26.249  24.445  17.550  1.00 24.33     0.041 C 
BRANCH   4   5
ATOM      5  CE  LYS A 131      25.651  23.042  17.575  1.00 26.91     0.338 C 
ATOM      6  NZ  LYS A 131      24.261  23.062  17.061  1.00 27.40     0.618 N 
ENDBRANCH   4   5
ENDBRANCH   3   4
ENDBRANCH   2   3
ENDBRANCH   1   2
END_RES LYS A 131
BEGIN_RES LYS A 135
REMARK  4 active torsions:
REMARK  status: ('A' for Active; 'I' for Inactive)
REMARK    5  A    between atoms: CA   and  CB  
REMARK    6  A    between atoms: CB   and  CG  
REMARK    7  A    between atoms: CG   and  CD  
REMARK    8  A    between atoms: CD   and  CE  
ROOT
ATOM      7  CA  LYS A 135      33.193  34.663   9.290  1.00 25.02     0.186 C 
ENDROOT
BRANCH   7   8
ATOM      8  CB  LYS A 135      32.060  35.360  10.034  1.00 26.63     0.034 C 
BRANCH   8   9
ATOM      9  CG  LYS A 135      30.706  35.146   9.408  1.00 29.45     0.005 C 
BRANCH   9  10
ATOM     10  CD  LYS A 135      29.677  34.779  10.466  1.00 32.00     0.041 C 
BRANCH  10  11
ATOM     11  CE  LYS A 135      30.136  35.238  11.837  1.00 34.25     0.338 C 
ATOM     12  NZ  LYS A 135      29.411  34.512  12.916  1.00 35.99     0.618 N 
ENDBRANCH  10  11
ENDBRANCH   9  10
ENDBRANCH   8   9
ENDBRANCH   7   8
END_RES LYS A 135
