REMARK VINA RESULT:    -4.118      3.395      6.634
REMARK INTER + INTRA:         -13.850
REMARK INTER:                  -6.555
REMARK INTRA:                  -7.295
REMARK UNBOUND:                -6.362
REMARK SMILES CC(=O)N[C@@H]1[C@@H](O)C[C@](O)(C(=O)O)O[C@H]1C(O)[C@H](O)CNC(=O)OCc1cn(CC(=O)O)nn1
REMARK SMILES IDX 21 1 22 2 23 3 20 5 18 6 16 7 15 8 9 9 8 10 14 11 6 12 5 13
REMARK SMILES IDX 10 14 11 16 12 17 13 18 7 20 4 22 2 23 1 25 3 26 17 27 19 29
REMARK SMILES IDX 24 31 25 32 26 33 27 34 34 35 28 36 33 37 29 38 30 39 31 40
REMARK SMILES IDX 32 41
REMARK H PARENT 21 4 10 15 13 19 7 21 4 24 17 28 19 30 32 42
REMARK Flexibility Score: inf
ROOT
ATOM      1  N   UNL     1      29.704  33.868  18.350  1.00  0.00    -0.319 N 
ATOM      2  C   UNL     1      30.368  33.686  17.122  1.00  0.00     0.407 C 
ATOM      3  O   UNL     1      31.475  33.155  17.047  1.00  0.00    -0.225 OA
ATOM      4  H   UNL     1      28.748  34.333  18.278  1.00  0.00     0.167 HD
ENDROOT
BRANCH   1   5
ATOM      5  C   UNL     1      30.187  33.498  19.655  1.00  0.00     0.154 C 
BRANCH   5   6
ATOM      6  C   UNL     1      29.811  32.128  20.123  1.00  0.00     0.165 C 
BRANCH   6   7
ATOM      7  C   UNL     1      30.768  31.069  19.722  1.00  0.00     0.176 C 
BRANCH   7   8
ATOM      8  C   UNL     1      31.051  30.025  20.768  1.00  0.00     0.178 C 
ATOM      9  C   UNL     1      29.924  28.525  22.189  1.00  0.00     0.269 C 
ATOM     10  C   UNL     1      30.941  28.693  23.268  1.00  0.00     0.112 C 
ATOM     11  O   UNL     1      29.846  29.479  21.234  1.00  0.00    -0.332 OA
ATOM     12  C   UNL     1      32.219  29.246  22.720  1.00  0.00     0.145 C 
ATOM     13  C   UNL     1      31.816  30.526  21.963  1.00  0.00     0.142 C 
BRANCH   9  14
ATOM     14  O   UNL     1      28.669  28.374  22.849  1.00  0.00    -0.357 OA
ATOM     15  H   UNL     1      28.315  29.300  22.944  1.00  0.00     0.214 HD
ENDBRANCH   9  14
BRANCH   9  16
ATOM     16  C   UNL     1      30.149  27.197  21.544  1.00  0.00     0.364 C 
ATOM     17  O   UNL     1      30.769  26.250  22.071  1.00  0.00    -0.246 OA
BRANCH  16  18
ATOM     18  O   UNL     1      29.642  26.988  20.279  1.00  0.00    -0.477 OA
ATOM     19  H   UNL     1      29.502  27.740  19.607  1.00  0.00     0.296 HD
ENDBRANCH  16  18
ENDBRANCH   9  16
BRANCH  12  20
ATOM     20  O   UNL     1      33.145  29.547  23.714  1.00  0.00    -0.391 OA
ATOM     21  H   UNL     1      32.764  29.222  24.571  1.00  0.00     0.211 HD
ENDBRANCH  12  20
BRANCH  13  22
ATOM     22  N   UNL     1      32.988  31.297  21.706  1.00  0.00    -0.348 N 
ATOM     23  C   UNL     1      33.100  32.671  22.079  1.00  0.00     0.217 C 
ATOM     24  H   UNL     1      33.806  30.860  21.244  1.00  0.00     0.163 HD
ATOM     25  C   UNL     1      34.299  33.502  21.829  1.00  0.00     0.114 C 
ATOM     26  O   UNL     1      32.120  33.200  22.655  1.00  0.00    -0.275 OA
ENDBRANCH  13  22
ENDBRANCH   7   8
BRANCH   7  27
ATOM     27  O   UNL     1      30.458  30.540  18.481  1.00  0.00    -0.388 OA
ATOM     28  H   UNL     1      31.192  29.981  18.119  1.00  0.00     0.211 HD
ENDBRANCH   7  27
ENDBRANCH   6   7
BRANCH   6  29
ATOM     29  O   UNL     1      28.512  31.848  19.668  1.00  0.00    -0.388 OA
ATOM     30  H   UNL     1      27.874  32.551  19.925  1.00  0.00     0.211 HD
ENDBRANCH   6  29
ENDBRANCH   5   6
ENDBRANCH   1   5
BRANCH   2  31
ATOM     31  O   UNL     1      29.787  34.103  15.927  1.00  0.00    -0.443 OA
BRANCH  31  32
ATOM     32  C   UNL     1      28.971  33.318  15.116  1.00  0.00     0.294 C 
BRANCH  32  33
ATOM     33  C   UNL     1      28.283  32.209  15.821  1.00  0.00     0.120 A 
ATOM     34  C   UNL     1      28.386  30.864  15.644  1.00  0.00     0.139 A 
ATOM     35  N   UNL     1      27.376  32.366  16.829  1.00  0.00    -0.132 NA
ATOM     36  N   UNL     1      27.568  30.251  16.517  1.00  0.00    -0.241 N 
ATOM     37  N   UNL     1      26.965  31.168  17.226  1.00  0.00    -0.066 NA
BRANCH  36  38
ATOM     38  C   UNL     1      27.396  28.818  16.639  1.00  0.00     0.268 C 
BRANCH  38  39
ATOM     39  C   UNL     1      27.253  28.451  18.061  1.00  0.00     0.325 C 
ATOM     40  O   UNL     1      26.305  27.692  18.410  1.00  0.00    -0.250 OA
BRANCH  39  41
ATOM     41  O   UNL     1      28.142  28.927  19.002  1.00  0.00    -0.480 OA
ATOM     42  H   UNL     1      29.126  28.672  18.876  1.00  0.00     0.296 HD
ENDBRANCH  39  41
ENDBRANCH  38  39
ENDBRANCH  36  38
ENDBRANCH  32  33
ENDBRANCH  31  32
ENDBRANCH   2  31
TORSDOF 17
BEGIN_RES LYS A 131
REMARK  4 active torsions:
REMARK  status: ('A' for Active; 'I' for Inactive)
REMARK    1  A    between atoms: CA   and  CB  
REMARK    2  A    between atoms: CB   and  CG  
REMARK    3  A    between atoms: CG   and  CD  
REMARK    4  A    between atoms: CD   and  CE  
ROOT
ATOM      1  CA  LYS A 131      29.867  25.555  16.977  1.00 20.52     0.186 C 
ENDROOT
BRANCH   1   2
ATOM      2  CB  LYS A 131      28.345  25.722  17.026  1.00 20.94     0.034 C 
BRANCH   2   3
ATOM      3  CG  LYS A 131      27.601  24.401  16.904  1.00 22.96     0.005 C 
BRANCH   3   4
ATOM      4  CD  LYS A 131      26.675  24.163  18.064  1.00 24.33     0.041 C 
BRANCH   4   5
ATOM      5  CE  LYS A 131      25.537  23.246  17.627  1.00 26.91     0.338 C 
ATOM      6  NZ  LYS A 131      24.498  24.018  16.904  1.00 27.40     0.618 N 
ENDBRANCH   4   5
ENDBRANCH   3   4
ENDBRANCH   2   3
ENDBRANCH   1   2
END_RES LYS A 131
BEGIN_RES LYS A 135
REMARK  4 active torsions:
REMARK  status: ('A' for Active; 'I' for Inactive)
REMARK    5  A    between atoms: CA   and  CB  
REMARK    6  A    between atoms: CB   and  CG  
REMARK    7  A    between atoms: CG   and  CD  
REMARK    8  A    between atoms: CD   and  CE  
ROOT
ATOM      7  CA  LYS A 135      33.193  34.663   9.290  1.00 25.02     0.186 C 
ENDROOT
BRANCH   7   8
ATOM      8  CB  LYS A 135      32.060  35.360  10.034  1.00 26.63     0.034 C 
BRANCH   8   9
ATOM      9  CG  LYS A 135      30.758  34.602   9.996  1.00 29.45     0.005 C 
BRANCH   9  10
ATOM     10  CD  LYS A 135      30.268  34.449   8.564  1.00 32.00     0.041 C 
BRANCH  10  11
ATOM     11  CE  LYS A 135      29.576  35.716   8.100  1.00 34.25     0.338 C 
ATOM     12  NZ  LYS A 135      28.890  35.505   6.795  1.00 35.99     0.618 N 
ENDBRANCH  10  11
ENDBRANCH   9  10
ENDBRANCH   8   9
ENDBRANCH   7   8
END_RES LYS A 135
