REMARK VINA RESULT:    -5.393      2.109      4.582
REMARK INTER + INTRA:         -14.985
REMARK INTER:                  -9.561
REMARK INTRA:                  -5.425
REMARK UNBOUND:                -5.337
REMARK SMILES CC(=O)N[C@@H]1[C@@H](O)C[C@](O)(C(=O)O)O[C@H]1C(O)[C@H](O)CNC(=O)OCc1cn(CC2=CC[C@H]3C[C@@H]2C3(C)C)nn1
REMARK SMILES IDX 21 1 22 2 23 3 20 5 18 6 16 7 15 8 9 9 8 10 14 11 6 12 5 13
REMARK SMILES IDX 10 14 11 16 12 17 13 18 7 20 4 22 2 23 1 25 3 26 17 27 19 29
REMARK SMILES IDX 24 31 25 32 26 33 27 34 40 35 28 36 39 37 29 38 30 39 31 40
REMARK SMILES IDX 35 41 32 42 34 43 36 44 33 45 37 46 38 47
REMARK H PARENT 21 4 10 15 13 19 7 21 4 24 17 28 19 30
REMARK Flexibility Score: inf
ROOT
ATOM      1  N   UNL     1      25.956  31.155  17.138  1.00  0.00    -0.319 N 
ATOM      2  C   UNL     1      25.795  32.581  17.232  1.00  0.00     0.407 C 
ATOM      3  O   UNL     1      26.167  33.291  16.263  1.00  0.00    -0.225 OA
ATOM      4  H   UNL     1      25.648  30.562  17.938  1.00  0.00     0.167 HD
ENDROOT
BRANCH   1   5
ATOM      5  C   UNL     1      26.537  30.574  15.947  1.00  0.00     0.154 C 
BRANCH   5   6
ATOM      6  C   UNL     1      27.400  29.417  16.364  1.00  0.00     0.165 C 
BRANCH   6   7
ATOM      7  C   UNL     1      27.407  29.217  17.863  1.00  0.00     0.176 C 
BRANCH   7   8
ATOM      8  C   UNL     1      27.125  27.755  18.121  1.00  0.00     0.178 C 
ATOM      9  C   UNL     1      24.831  27.596  18.401  1.00  0.00     0.269 C 
ATOM     10  C   UNL     1      24.937  27.070  19.815  1.00  0.00     0.112 C 
ATOM     11  O   UNL     1      25.931  27.317  17.627  1.00  0.00    -0.332 OA
ATOM     12  C   UNL     1      26.286  26.413  19.968  1.00  0.00     0.145 C 
ATOM     13  C   UNL     1      27.329  27.443  19.586  1.00  0.00     0.142 C 
BRANCH   9  14
ATOM     14  O   UNL     1      24.524  28.959  18.434  1.00  0.00    -0.357 OA
ATOM     15  H   UNL     1      24.445  29.195  19.398  1.00  0.00     0.214 HD
ENDBRANCH   9  14
BRANCH   9  16
ATOM     16  C   UNL     1      23.661  26.911  17.777  1.00  0.00     0.364 C 
ATOM     17  O   UNL     1      23.332  27.213  16.580  1.00  0.00    -0.246 OA
BRANCH  16  18
ATOM     18  O   UNL     1      22.911  25.959  18.434  1.00  0.00    -0.477 OA
ATOM     19  H   UNL     1      21.910  25.869  18.285  1.00  0.00     0.296 HD
ENDBRANCH  16  18
ENDBRANCH   9  16
BRANCH  12  20
ATOM     20  O   UNL     1      26.530  26.003  21.264  1.00  0.00    -0.391 OA
ATOM     21  H   UNL     1      26.780  26.807  21.787  1.00  0.00     0.211 HD
ENDBRANCH  12  20
BRANCH  13  22
ATOM     22  N   UNL     1      28.662  26.989  19.885  1.00  0.00    -0.348 N 
ATOM     23  C   UNL     1      29.501  27.681  20.795  1.00  0.00     0.217 C 
ATOM     24  H   UNL     1      29.003  26.125  19.410  1.00  0.00     0.163 HD
ATOM     25  C   UNL     1      30.865  27.141  21.045  1.00  0.00     0.114 C 
ATOM     26  O   UNL     1      29.097  28.722  21.370  1.00  0.00    -0.275 OA
ENDBRANCH  13  22
ENDBRANCH   7   8
BRANCH   7  27
ATOM     27  O   UNL     1      28.661  29.507  18.395  1.00  0.00    -0.388 OA
ATOM     28  H   UNL     1      28.778  29.189  19.306  1.00  0.00     0.211 HD
ENDBRANCH   7  27
ENDBRANCH   6   7
BRANCH   6  29
ATOM     29  O   UNL     1      28.714  29.729  15.955  1.00  0.00    -0.388 OA
ATOM     30  H   UNL     1      29.375  29.323  16.582  1.00  0.00     0.211 HD
ENDBRANCH   6  29
ENDBRANCH   5   6
ENDBRANCH   1   5
BRANCH   2  31
ATOM     31  O   UNL     1      25.253  33.199  18.326  1.00  0.00    -0.443 OA
BRANCH  31  32
ATOM     32  C   UNL     1      26.006  33.929  19.278  1.00  0.00     0.294 C 
BRANCH  32  33
ATOM     33  C   UNL     1      27.375  33.384  19.373  1.00  0.00     0.120 A 
ATOM     34  C   UNL     1      28.567  33.987  19.046  1.00  0.00     0.138 A 
ATOM     35  N   UNL     1      27.693  32.157  19.812  1.00  0.00    -0.132 NA
ATOM     36  N   UNL     1      29.589  33.115  19.293  1.00  0.00    -0.248 N 
ATOM     37  N   UNL     1      29.020  32.013  19.757  1.00  0.00    -0.067 NA
BRANCH  36  38
ATOM     38  C   UNL     1      30.987  33.395  19.072  1.00  0.00     0.177 C 
BRANCH  38  39
ATOM     39  C   UNL     1      31.246  33.749  17.632  1.00  0.00    -0.049 C 
ATOM     40  C   UNL     1      32.178  34.636  17.296  1.00  0.00    -0.025 C 
ATOM     41  C   UNL     1      30.474  33.124  16.540  1.00  0.00     0.023 C 
ATOM     42  C   UNL     1      32.557  34.762  15.862  1.00  0.00     0.031 C 
ATOM     43  C   UNL     1      31.509  32.551  15.561  1.00  0.00     0.013 C 
ATOM     44  C   UNL     1      30.176  34.165  15.479  1.00  0.00    -0.026 C 
ATOM     45  C   UNL     1      31.624  33.962  15.007  1.00  0.00    -0.000 C 
ATOM     46  C   UNL     1      29.222  33.698  14.416  1.00  0.00     0.012 C 
ATOM     47  C   UNL     1      29.867  35.536  15.978  1.00  0.00     0.012 C 
ENDBRANCH  38  39
ENDBRANCH  36  38
ENDBRANCH  32  33
ENDBRANCH  31  32
ENDBRANCH   2  31
TORSDOF 16
BEGIN_RES LYS A 131
REMARK  4 active torsions:
REMARK  status: ('A' for Active; 'I' for Inactive)
REMARK    1  A    between atoms: CA   and  CB  
REMARK    2  A    between atoms: CB   and  CG  
REMARK    3  A    between atoms: CG   and  CD  
REMARK    4  A    between atoms: CD   and  CE  
ROOT
ATOM      1  CA  LYS A 131      29.867  25.555  16.977  1.00 20.52     0.186 C 
ENDROOT
BRANCH   1   2
ATOM      2  CB  LYS A 131      28.345  25.722  17.026  1.00 20.94     0.034 C 
BRANCH   2   3
ATOM      3  CG  LYS A 131      27.599  24.477  16.570  1.00 22.96     0.005 C 
BRANCH   3   4
ATOM      4  CD  LYS A 131      27.022  23.708  17.726  1.00 24.33     0.041 C 
BRANCH   4   5
ATOM      5  CE  LYS A 131      25.505  23.634  17.581  1.00 26.91     0.338 C 
ATOM      6  NZ  LYS A 131      24.907  22.933  18.742  1.00 27.40     0.618 N 
ENDBRANCH   4   5
ENDBRANCH   3   4
ENDBRANCH   2   3
ENDBRANCH   1   2
END_RES LYS A 131
BEGIN_RES LYS A 135
REMARK  4 active torsions:
REMARK  status: ('A' for Active; 'I' for Inactive)
REMARK    5  A    between atoms: CA   and  CB  
REMARK    6  A    between atoms: CB   and  CG  
REMARK    7  A    between atoms: CG   and  CD  
REMARK    8  A    between atoms: CD   and  CE  
ROOT
ATOM      7  CA  LYS A 135      33.193  34.663   9.290  1.00 25.02     0.186 C 
ENDROOT
BRANCH   7   8
ATOM      8  CB  LYS A 135      32.060  35.360  10.034  1.00 26.63     0.034 C 
BRANCH   8   9
ATOM      9  CG  LYS A 135      30.711  35.172   9.390  1.00 29.45     0.005 C 
BRANCH   9  10
ATOM     10  CD  LYS A 135      29.856  36.418   9.561  1.00 32.00     0.041 C 
BRANCH  10  11
ATOM     11  CE  LYS A 135      28.625  36.110  10.392  1.00 34.25     0.338 C 
ATOM     12  NZ  LYS A 135      28.579  34.670  10.769  1.00 35.99     0.618 N 
ENDBRANCH  10  11
ENDBRANCH   9  10
ENDBRANCH   8   9
ENDBRANCH   7   8
END_RES LYS A 135
