REMARK VINA RESULT:    -4.157      3.586      8.791
REMARK INTER + INTRA:         -14.711
REMARK INTER:                  -8.786
REMARK INTRA:                  -5.926
REMARK UNBOUND:                -6.788
REMARK SMILES CC(=O)N[C@@H]1[C@@H](O)C[C@](O)(C(=O)O)O[C@H]1C(O)[C@H](O)CNC(=O)OCc1cn(CC(=O)NCc2cccs2)nn1
REMARK SMILES IDX 21 1 22 2 23 3 20 5 18 6 16 7 15 8 9 9 8 10 14 11 6 12 5 13
REMARK SMILES IDX 10 14 11 16 12 17 13 18 7 20 4 22 2 23 1 25 3 26 17 27 19 29
REMARK SMILES IDX 24 31 25 32 26 33 27 34 40 35 28 36 39 37 29 38 30 39 31 40
REMARK SMILES IDX 32 41 33 43 34 44 35 45 38 46 36 47 37 48
REMARK H PARENT 21 4 10 15 13 19 7 21 4 24 17 28 19 30 32 42
REMARK Flexibility Score: inf
ROOT
ATOM      1  N   UNL     1      26.441  29.631  16.165  1.00  0.00    -0.319 N 
ATOM      2  C   UNL     1      25.124  29.503  16.652  1.00  0.00     0.407 C 
ATOM      3  O   UNL     1      24.927  29.626  17.886  1.00  0.00    -0.225 OA
ATOM      4  H   UNL     1      26.582  29.525  15.136  1.00  0.00     0.167 HD
ENDROOT
BRANCH   1   5
ATOM      5  C   UNL     1      27.608  29.900  16.982  1.00  0.00     0.154 C 
BRANCH   5   6
ATOM      6  C   UNL     1      28.546  30.845  16.284  1.00  0.00     0.165 C 
BRANCH   6   7
ATOM      7  C   UNL     1      28.051  32.247  16.173  1.00  0.00     0.176 C 
BRANCH   7   8
ATOM      8  C   UNL     1      29.052  33.336  16.079  1.00  0.00     0.178 C 
ATOM      9  C   UNL     1      30.724  34.003  14.584  1.00  0.00     0.269 C 
ATOM     10  C   UNL     1      30.669  35.234  15.471  1.00  0.00     0.112 C 
ATOM     11  O   UNL     1      29.761  33.078  14.859  1.00  0.00    -0.332 OA
ATOM     12  C   UNL     1      30.816  34.790  16.884  1.00  0.00     0.145 C 
ATOM     13  C   UNL     1      30.101  33.442  17.109  1.00  0.00     0.142 C 
BRANCH   9  14
ATOM     14  O   UNL     1      32.025  33.490  14.743  1.00  0.00    -0.357 OA
ATOM     15  H   UNL     1      32.177  32.796  14.044  1.00  0.00     0.214 HD
ENDBRANCH   9  14
BRANCH   9  16
ATOM     16  C   UNL     1      30.575  34.388  13.156  1.00  0.00     0.364 C 
ATOM     17  O   UNL     1      29.434  34.618  12.707  1.00  0.00    -0.246 OA
BRANCH  16  18
ATOM     18  O   UNL     1      31.670  34.499  12.304  1.00  0.00    -0.477 OA
ATOM     19  H   UNL     1      32.293  35.290  12.477  1.00  0.00     0.296 HD
ENDBRANCH  16  18
ENDBRANCH   9  16
BRANCH  12  20
ATOM     20  O   UNL     1      32.121  34.731  17.321  1.00  0.00    -0.391 OA
ATOM     21  H   UNL     1      32.502  33.825  17.197  1.00  0.00     0.211 HD
ENDBRANCH  12  20
BRANCH  13  22
ATOM     22  N   UNL     1      29.729  33.435  18.475  1.00  0.00    -0.348 N 
ATOM     23  C   UNL     1      30.058  32.336  19.296  1.00  0.00     0.217 C 
ATOM     24  H   UNL     1      29.218  34.218  18.903  1.00  0.00     0.163 HD
ATOM     25  C   UNL     1      29.686  32.281  20.743  1.00  0.00     0.114 C 
ATOM     26  O   UNL     1      30.693  31.319  18.856  1.00  0.00    -0.275 OA
ENDBRANCH  13  22
ENDBRANCH   7   8
BRANCH   7  27
ATOM     27  O   UNL     1      26.895  32.410  15.423  1.00  0.00    -0.388 OA
ATOM     28  H   UNL     1      26.739  31.720  14.766  1.00  0.00     0.211 HD
ENDBRANCH   7  27
ENDBRANCH   6   7
BRANCH   6  29
ATOM     29  O   UNL     1      29.078  30.352  15.100  1.00  0.00    -0.388 OA
ATOM     30  H   UNL     1      30.051  30.205  15.143  1.00  0.00     0.211 HD
ENDBRANCH   6  29
ENDBRANCH   5   6
ENDBRANCH   1   5
BRANCH   2  31
ATOM     31  O   UNL     1      24.032  29.246  15.811  1.00  0.00    -0.443 OA
BRANCH  31  32
ATOM     32  C   UNL     1      23.010  30.211  15.642  1.00  0.00     0.294 C 
BRANCH  32  33
ATOM     33  C   UNL     1      23.576  31.352  14.871  1.00  0.00     0.120 A 
ATOM     34  C   UNL     1      23.323  32.699  15.032  1.00  0.00     0.138 A 
ATOM     35  N   UNL     1      24.453  31.291  13.856  1.00  0.00    -0.132 NA
ATOM     36  N   UNL     1      24.037  33.391  14.131  1.00  0.00    -0.243 N 
ATOM     37  N   UNL     1      24.716  32.510  13.428  1.00  0.00    -0.067 NA
BRANCH  36  38
ATOM     38  C   UNL     1      24.029  34.857  14.004  1.00  0.00     0.245 C 
BRANCH  38  39
ATOM     39  C   UNL     1      24.815  35.181  12.790  1.00  0.00     0.242 C 
ATOM     40  O   UNL     1      25.967  35.707  12.938  1.00  0.00    -0.273 OA
ATOM     41  N   UNL     1      24.392  34.953  11.460  1.00  0.00    -0.350 N 
ATOM     42  H   UNL     1      23.456  34.526  11.340  1.00  0.00     0.163 HD
BRANCH  41  43
ATOM     43  C   UNL     1      25.194  35.283  10.304  1.00  0.00     0.162 C 
BRANCH  43  44
ATOM     44  C   UNL     1      24.276  36.003   9.336  1.00  0.00     0.024 A 
ATOM     45  C   UNL     1      24.537  37.007   8.507  1.00  0.00     0.017 A 
ATOM     46  S   UNL     1      22.596  35.661   9.084  1.00  0.00    -0.147 S 
ATOM     47  C   UNL     1      23.568  37.515   7.716  1.00  0.00     0.012 A 
ATOM     48  C   UNL     1      22.306  36.916   7.839  1.00  0.00     0.065 A 
ENDBRANCH  43  44
ENDBRANCH  41  43
ENDBRANCH  38  39
ENDBRANCH  36  38
ENDBRANCH  32  33
ENDBRANCH  31  32
ENDBRANCH   2  31
TORSDOF 18
BEGIN_RES LYS A 131
REMARK  4 active torsions:
REMARK  status: ('A' for Active; 'I' for Inactive)
REMARK    1  A    between atoms: CA   and  CB  
REMARK    2  A    between atoms: CB   and  CG  
REMARK    3  A    between atoms: CG   and  CD  
REMARK    4  A    between atoms: CD   and  CE  
ROOT
ATOM      1  CA  LYS A 131      29.867  25.555  16.977  1.00 20.52     0.186 C 
ENDROOT
BRANCH   1   2
ATOM      2  CB  LYS A 131      28.345  25.722  17.026  1.00 20.94     0.034 C 
BRANCH   2   3
ATOM      3  CG  LYS A 131      27.602  24.399  16.923  1.00 22.96     0.005 C 
BRANCH   3   4
ATOM      4  CD  LYS A 131      26.458  24.314  17.895  1.00 24.33     0.041 C 
BRANCH   4   5
ATOM      5  CE  LYS A 131      26.026  25.721  18.296  1.00 26.91     0.338 C 
ATOM      6  NZ  LYS A 131      24.708  26.047  17.703  1.00 27.40     0.618 N 
ENDBRANCH   4   5
ENDBRANCH   3   4
ENDBRANCH   2   3
ENDBRANCH   1   2
END_RES LYS A 131
BEGIN_RES LYS A 135
REMARK  4 active torsions:
REMARK  status: ('A' for Active; 'I' for Inactive)
REMARK    5  A    between atoms: CA   and  CB  
REMARK    6  A    between atoms: CB   and  CG  
REMARK    7  A    between atoms: CG   and  CD  
REMARK    8  A    between atoms: CD   and  CE  
ROOT
ATOM      7  CA  LYS A 135      33.193  34.663   9.290  1.00 25.02     0.186 C 
ENDROOT
BRANCH   7   8
ATOM      8  CB  LYS A 135      32.060  35.360  10.034  1.00 26.63     0.034 C 
BRANCH   8   9
ATOM      9  CG  LYS A 135      30.806  35.517   9.213  1.00 29.45     0.005 C 
BRANCH   9  10
ATOM     10  CD  LYS A 135      30.062  34.194   9.111  1.00 32.00     0.041 C 
BRANCH  10  11
ATOM     11  CE  LYS A 135      28.690  34.400   8.500  1.00 34.25     0.338 C 
ATOM     12  NZ  LYS A 135      28.333  35.846   8.459  1.00 35.99     0.618 N 
ENDBRANCH  10  11
ENDBRANCH   9  10
ENDBRANCH   8   9
ENDBRANCH   7   8
END_RES LYS A 135
