REMARK VINA RESULT:    -5.082      4.522      8.582
REMARK INTER + INTRA:         -15.855
REMARK INTER:                 -11.622
REMARK INTRA:                  -4.233
REMARK UNBOUND:                -6.317
REMARK SMILES CC(=O)N[C@@H]1[C@@H](O)C[C@](O)(C(=O)O)O[C@H]1C(O)[C@H](O)CNC(=O)OCc1cn(-c2cccc(C=CC(=O)O)c2)nn1
REMARK SMILES IDX 21 1 22 2 23 3 20 5 18 6 16 7 15 8 9 9 8 10 14 11 6 12 5 13
REMARK SMILES IDX 10 14 11 16 12 17 13 18 7 20 4 22 2 23 1 25 3 26 17 27 19 29
REMARK SMILES IDX 24 31 25 32 26 33 27 34 41 35 28 36 40 37 29 38 39 39 30 40
REMARK SMILES IDX 33 41 31 42 32 43 34 44 35 45 36 46 37 47 38 48
REMARK H PARENT 21 4 10 15 13 19 7 21 4 24 17 28 19 30 38 49
REMARK Flexibility Score: inf
ROOT
ATOM      1  N   UNL     1      25.316  36.223  15.027  1.00  0.00    -0.319 N 
ATOM      2  C   UNL     1      25.306  37.258  14.064  1.00  0.00     0.407 C 
ATOM      3  O   UNL     1      26.269  38.036  13.899  1.00  0.00    -0.225 OA
ATOM      4  H   UNL     1      24.419  35.627  15.077  1.00  0.00     0.167 HD
ENDROOT
BRANCH   1   5
ATOM      5  C   UNL     1      26.392  35.906  15.921  1.00  0.00     0.154 C 
BRANCH   5   6
ATOM      6  C   UNL     1      26.534  34.428  16.091  1.00  0.00     0.165 C 
BRANCH   6   7
ATOM      7  C   UNL     1      27.471  33.780  15.090  1.00  0.00     0.176 C 
BRANCH   7   8
ATOM      8  C   UNL     1      28.732  33.345  15.743  1.00  0.00     0.178 C 
ATOM      9  C   UNL     1      31.027  33.102  15.695  1.00  0.00     0.269 C 
ATOM     10  C   UNL     1      30.800  32.648  17.110  1.00  0.00     0.112 C 
ATOM     11  O   UNL     1      29.895  33.616  15.095  1.00  0.00    -0.332 OA
ATOM     12  C   UNL     1      29.649  31.732  17.309  1.00  0.00     0.145 C 
ATOM     13  C   UNL     1      28.684  31.876  16.158  1.00  0.00     0.142 C 
BRANCH   9  14
ATOM     14  O   UNL     1      31.606  32.063  14.966  1.00  0.00    -0.357 OA
ATOM     15  H   UNL     1      30.941  31.511  14.503  1.00  0.00     0.214 HD
ENDBRANCH   9  14
BRANCH   9  16
ATOM     16  C   UNL     1      32.029  34.203  15.746  1.00  0.00     0.364 C 
ATOM     17  O   UNL     1      32.989  34.213  14.904  1.00  0.00    -0.246 OA
BRANCH  16  18
ATOM     18  O   UNL     1      31.958  35.227  16.681  1.00  0.00    -0.477 OA
ATOM     19  H   UNL     1      32.240  35.114  17.634  1.00  0.00     0.296 HD
ENDBRANCH  16  18
ENDBRANCH   9  16
BRANCH  12  20
ATOM     20  O   UNL     1      30.021  30.405  17.507  1.00  0.00    -0.391 OA
ATOM     21  H   UNL     1      29.750  29.871  16.743  1.00  0.00     0.211 HD
ENDBRANCH  12  20
BRANCH  13  22
ATOM     22  N   UNL     1      27.362  31.435  16.481  1.00  0.00    -0.348 N 
ATOM     23  C   UNL     1      26.971  30.073  16.405  1.00  0.00     0.217 C 
ATOM     24  H   UNL     1      26.612  32.119  16.794  1.00  0.00     0.163 HD
ATOM     25  C   UNL     1      25.596  29.664  16.748  1.00  0.00     0.114 C 
ATOM     26  O   UNL     1      27.788  29.190  16.043  1.00  0.00    -0.275 OA
ENDBRANCH  13  22
ENDBRANCH   7   8
BRANCH   7  27
ATOM     27  O   UNL     1      27.638  34.555  13.948  1.00  0.00    -0.388 OA
ATOM     28  H   UNL     1      27.007  35.306  13.997  1.00  0.00     0.211 HD
ENDBRANCH   7  27
ENDBRANCH   6   7
BRANCH   6  29
ATOM     29  O   UNL     1      25.301  33.776  16.029  1.00  0.00    -0.388 OA
ATOM     30  H   UNL     1      25.235  33.309  15.151  1.00  0.00     0.211 HD
ENDBRANCH   6  29
ENDBRANCH   5   6
ENDBRANCH   1   5
BRANCH   2  31
ATOM     31  O   UNL     1      24.186  37.461  13.230  1.00  0.00    -0.443 OA
BRANCH  31  32
ATOM     32  C   UNL     1      23.731  36.407  12.443  1.00  0.00     0.294 C 
BRANCH  32  33
ATOM     33  C   UNL     1      24.832  35.638  11.816  1.00  0.00     0.121 A 
ATOM     34  C   UNL     1      25.654  35.959  10.761  1.00  0.00     0.144 A 
ATOM     35  N   UNL     1      25.227  34.416  12.210  1.00  0.00    -0.131 NA
ATOM     36  N   UNL     1      26.522  34.941  10.536  1.00  0.00    -0.220 N 
ATOM     37  N   UNL     1      26.237  34.017  11.434  1.00  0.00    -0.062 NA
BRANCH  36  38
ATOM     38  C   UNL     1      27.524  34.923   9.518  1.00  0.00     0.067 A 
ATOM     39  C   UNL     1      27.299  35.487   8.289  1.00  0.00     0.036 A 
ATOM     40  C   UNL     1      28.743  34.331   9.756  1.00  0.00     0.028 A 
ATOM     41  C   UNL     1      28.291  35.472   7.269  1.00  0.00    -0.023 A 
ATOM     42  C   UNL     1      29.734  34.283   8.822  1.00  0.00     0.003 A 
ATOM     43  C   UNL     1      29.484  34.868   7.568  1.00  0.00     0.008 A 
BRANCH  41  44
ATOM     44  C   UNL     1      28.013  36.110   6.030  1.00  0.00     0.015 C 
ATOM     45  C   UNL     1      28.273  37.205   5.429  1.00  0.00     0.094 C 
BRANCH  45  46
ATOM     46  C   UNL     1      29.006  38.373   5.717  1.00  0.00     0.328 C 
ATOM     47  O   UNL     1      28.476  39.543   5.366  1.00  0.00    -0.247 OA
BRANCH  46  48
ATOM     48  O   UNL     1      30.225  38.573   6.315  1.00  0.00    -0.478 OA
ATOM     49  H   UNL     1      30.537  38.065   7.128  1.00  0.00     0.297 HD
ENDBRANCH  46  48
ENDBRANCH  45  46
ENDBRANCH  41  44
ENDBRANCH  36  38
ENDBRANCH  32  33
ENDBRANCH  31  32
ENDBRANCH   2  31
TORSDOF 18
BEGIN_RES LYS A 131
REMARK  4 active torsions:
REMARK  status: ('A' for Active; 'I' for Inactive)
REMARK    1  A    between atoms: CA   and  CB  
REMARK    2  A    between atoms: CB   and  CG  
REMARK    3  A    between atoms: CG   and  CD  
REMARK    4  A    between atoms: CD   and  CE  
ROOT
ATOM      1  CA  LYS A 131      29.867  25.555  16.977  1.00 20.52     0.186 C 
ENDROOT
BRANCH   1   2
ATOM      2  CB  LYS A 131      28.345  25.722  17.026  1.00 20.94     0.034 C 
BRANCH   2   3
ATOM      3  CG  LYS A 131      27.602  24.398  16.931  1.00 22.96     0.005 C 
BRANCH   3   4
ATOM      4  CD  LYS A 131      26.147  24.539  17.281  1.00 24.33     0.041 C 
BRANCH   4   5
ATOM      5  CE  LYS A 131      25.592  23.184  17.709  1.00 26.91     0.338 C 
ATOM      6  NZ  LYS A 131      25.447  23.125  19.182  1.00 27.40     0.618 N 
ENDBRANCH   4   5
ENDBRANCH   3   4
ENDBRANCH   2   3
ENDBRANCH   1   2
END_RES LYS A 131
BEGIN_RES LYS A 135
REMARK  4 active torsions:
REMARK  status: ('A' for Active; 'I' for Inactive)
REMARK    5  A    between atoms: CA   and  CB  
REMARK    6  A    between atoms: CB   and  CG  
REMARK    7  A    between atoms: CG   and  CD  
REMARK    8  A    between atoms: CD   and  CE  
ROOT
ATOM      7  CA  LYS A 135      33.193  34.663   9.290  1.00 25.02     0.186 C 
ENDROOT
BRANCH   7   8
ATOM      8  CB  LYS A 135      32.060  35.360  10.034  1.00 26.63     0.034 C 
BRANCH   8   9
ATOM      9  CG  LYS A 135      32.368  35.629  11.484  1.00 29.45     0.005 C 
BRANCH   9  10
ATOM     10  CD  LYS A 135      31.163  35.310  12.357  1.00 32.00     0.041 C 
BRANCH  10  11
ATOM     11  CE  LYS A 135      30.606  36.576  12.979  1.00 34.25     0.338 C 
ATOM     12  NZ  LYS A 135      31.647  37.286  13.773  1.00 35.99     0.618 N 
ENDBRANCH  10  11
ENDBRANCH   9  10
ENDBRANCH   8   9
ENDBRANCH   7   8
END_RES LYS A 135
