REMARK VINA RESULT:    -5.404      3.680      7.034
REMARK INTER + INTRA:         -15.155
REMARK INTER:                  -8.822
REMARK INTRA:                  -6.332
REMARK UNBOUND:                -5.012
REMARK SMILES CC(=O)N[C@@H]1[C@@H](O)C[C@](O)(C(=O)O)O[C@H]1C(O)[C@H](O)CNC(=O)OCc1cn(CC(O)c2ccccc2)nn1
REMARK SMILES IDX 21 1 22 2 23 3 20 5 18 6 16 7 15 8 9 9 8 10 14 11 6 12 5 13
REMARK SMILES IDX 10 14 11 16 12 17 13 18 7 20 4 22 2 23 1 25 3 26 17 27 19 29
REMARK SMILES IDX 24 31 25 32 26 33 27 34 39 35 28 36 38 37 29 38 30 39 31 40
REMARK SMILES IDX 32 42 33 43 37 44 34 45 36 46 35 47
REMARK H PARENT 21 4 10 15 13 19 7 21 4 24 17 28 19 30 31 41
REMARK Flexibility Score: inf
ROOT
ATOM      1  N   UNL     1      29.348  29.882  19.239  1.00  0.00    -0.319 N 
ATOM      2  C   UNL     1      28.020  29.582  19.632  1.00  0.00     0.407 C 
ATOM      3  O   UNL     1      27.302  30.503  20.083  1.00  0.00    -0.225 OA
ATOM      4  H   UNL     1      29.890  29.043  18.863  1.00  0.00     0.167 HD
ENDROOT
BRANCH   1   5
ATOM      5  C   UNL     1      29.960  31.188  19.319  1.00  0.00     0.154 C 
BRANCH   5   6
ATOM      6  C   UNL     1      30.350  31.722  17.957  1.00  0.00     0.165 C 
BRANCH   6   7
ATOM      7  C   UNL     1      29.250  32.634  17.412  1.00  0.00     0.176 C 
BRANCH   7   8
ATOM      8  C   UNL     1      29.732  34.010  17.038  1.00  0.00     0.178 C 
ATOM      9  C   UNL     1      28.442  34.180  15.092  1.00  0.00     0.269 C 
ATOM     10  C   UNL     1      29.440  33.338  14.404  1.00  0.00     0.112 C 
ATOM     11  O   UNL     1      28.707  34.646  16.335  1.00  0.00    -0.332 OA
ATOM     12  C   UNL     1      30.849  33.385  14.908  1.00  0.00     0.145 C 
ATOM     13  C   UNL     1      30.993  33.987  16.285  1.00  0.00     0.142 C 
BRANCH   9  14
ATOM     14  O   UNL     1      27.272  33.374  15.224  1.00  0.00    -0.357 OA
ATOM     15  H   UNL     1      27.589  32.518  15.586  1.00  0.00     0.214 HD
ENDBRANCH   9  14
BRANCH   9  16
ATOM     16  C   UNL     1      28.016  35.282  14.151  1.00  0.00     0.364 C 
ATOM     17  O   UNL     1      27.396  36.296  14.549  1.00  0.00    -0.246 OA
BRANCH  16  18
ATOM     18  O   UNL     1      28.313  35.185  12.795  1.00  0.00    -0.477 OA
ATOM     19  H   UNL     1      27.755  35.608  12.070  1.00  0.00     0.296 HD
ENDBRANCH  16  18
ENDBRANCH   9  16
BRANCH  12  20
ATOM     20  O   UNL     1      31.403  32.074  14.886  1.00  0.00    -0.391 OA
ATOM     21  H   UNL     1      30.728  31.494  14.486  1.00  0.00     0.211 HD
ENDBRANCH  12  20
BRANCH  13  22
ATOM     22  N   UNL     1      31.587  35.300  16.083  1.00  0.00    -0.348 N 
ATOM     23  C   UNL     1      32.570  35.863  16.933  1.00  0.00     0.217 C 
ATOM     24  H   UNL     1      31.240  35.823  15.250  1.00  0.00     0.163 HD
ATOM     25  C   UNL     1      33.156  37.205  16.698  1.00  0.00     0.114 C 
ATOM     26  O   UNL     1      32.923  35.153  17.910  1.00  0.00    -0.275 OA
ENDBRANCH  13  22
ENDBRANCH   7   8
BRANCH   7  27
ATOM     27  O   UNL     1      28.420  32.816  18.584  1.00  0.00    -0.388 OA
ATOM     28  H   UNL     1      28.442  32.032  19.153  1.00  0.00     0.211 HD
ENDBRANCH   7  27
ENDBRANCH   6   7
BRANCH   6  29
ATOM     29  O   UNL     1      30.639  30.662  17.129  1.00  0.00    -0.388 OA
ATOM     30  H   UNL     1      31.430  30.201  17.494  1.00  0.00     0.211 HD
ENDBRANCH   6  29
ENDBRANCH   5   6
ENDBRANCH   1   5
BRANCH   2  31
ATOM     31  O   UNL     1      27.473  28.310  19.540  1.00  0.00    -0.443 OA
BRANCH  31  32
ATOM     32  C   UNL     1      27.208  27.683  18.301  1.00  0.00     0.294 C 
BRANCH  32  33
ATOM     33  C   UNL     1      26.918  28.725  17.295  1.00  0.00     0.120 A 
ATOM     34  C   UNL     1      25.675  29.269  17.009  1.00  0.00     0.138 A 
ATOM     35  N   UNL     1      27.765  29.363  16.453  1.00  0.00    -0.132 NA
ATOM     36  N   UNL     1      25.801  30.188  16.035  1.00  0.00    -0.249 N 
ATOM     37  N   UNL     1      27.073  30.222  15.721  1.00  0.00    -0.067 NA
BRANCH  36  38
ATOM     38  C   UNL     1      24.700  30.979  15.467  1.00  0.00     0.182 C 
BRANCH  38  39
ATOM     39  C   UNL     1      24.701  30.807  13.968  1.00  0.00     0.166 C 
BRANCH  39  40
ATOM     40  O   UNL     1      23.994  29.615  13.691  1.00  0.00    -0.386 OA
ATOM     41  H   UNL     1      23.562  29.696  12.797  1.00  0.00     0.211 HD
ENDBRANCH  39  40
BRANCH  39  42
ATOM     42  C   UNL     1      23.967  31.922  13.336  1.00  0.00    -0.018 A 
ATOM     43  C   UNL     1      24.555  33.140  13.062  1.00  0.00     0.006 A 
ATOM     44  C   UNL     1      22.619  31.739  13.000  1.00  0.00     0.006 A 
ATOM     45  C   UNL     1      23.855  34.163  12.472  1.00  0.00     0.000 A 
ATOM     46  C   UNL     1      21.921  32.756  12.414  1.00  0.00     0.000 A 
ATOM     47  C   UNL     1      22.534  33.959  12.152  1.00  0.00     0.000 A 
ENDBRANCH  39  42
ENDBRANCH  38  39
ENDBRANCH  36  38
ENDBRANCH  32  33
ENDBRANCH  31  32
ENDBRANCH   2  31
TORSDOF 18
BEGIN_RES LYS A 131
REMARK  4 active torsions:
REMARK  status: ('A' for Active; 'I' for Inactive)
REMARK    1  A    between atoms: CA   and  CB  
REMARK    2  A    between atoms: CB   and  CG  
REMARK    3  A    between atoms: CG   and  CD  
REMARK    4  A    between atoms: CD   and  CE  
ROOT
ATOM      1  CA  LYS A 131      29.867  25.555  16.977  1.00 20.52     0.186 C 
ENDROOT
BRANCH   1   2
ATOM      2  CB  LYS A 131      28.345  25.722  17.026  1.00 20.94     0.034 C 
BRANCH   2   3
ATOM      3  CG  LYS A 131      27.599  24.460  16.622  1.00 22.96     0.005 C 
BRANCH   3   4
ATOM      4  CD  LYS A 131      27.018  23.741  17.808  1.00 24.33     0.041 C 
BRANCH   4   5
ATOM      5  CE  LYS A 131      25.655  24.336  18.146  1.00 26.91     0.338 C 
ATOM      6  NZ  LYS A 131      24.675  24.031  17.077  1.00 27.40     0.618 N 
ENDBRANCH   4   5
ENDBRANCH   3   4
ENDBRANCH   2   3
ENDBRANCH   1   2
END_RES LYS A 131
BEGIN_RES LYS A 135
REMARK  4 active torsions:
REMARK  status: ('A' for Active; 'I' for Inactive)
REMARK    5  A    between atoms: CA   and  CB  
REMARK    6  A    between atoms: CB   and  CG  
REMARK    7  A    between atoms: CG   and  CD  
REMARK    8  A    between atoms: CD   and  CE  
ROOT
ATOM      7  CA  LYS A 135      33.193  34.663   9.290  1.00 25.02     0.186 C 
ENDROOT
BRANCH   7   8
ATOM      8  CB  LYS A 135      32.060  35.360  10.034  1.00 26.63     0.034 C 
BRANCH   8   9
ATOM      9  CG  LYS A 135      30.798  35.494   9.221  1.00 29.45     0.005 C 
BRANCH   9  10
ATOM     10  CD  LYS A 135      30.134  34.139   9.034  1.00 32.00     0.041 C 
BRANCH  10  11
ATOM     11  CE  LYS A 135      28.677  34.309   8.646  1.00 34.25     0.338 C 
ATOM     12  NZ  LYS A 135      27.780  33.622   9.616  1.00 35.99     0.618 N 
ENDBRANCH  10  11
ENDBRANCH   9  10
ENDBRANCH   8   9
ENDBRANCH   7   8
END_RES LYS A 135
