REMARK VINA RESULT:    -5.696      6.839     12.691
REMARK INTER + INTRA:         -14.941
REMARK INTER:                  -9.021
REMARK INTRA:                  -5.920
REMARK UNBOUND:                -4.749
REMARK SMILES CC(=O)N[C@@H]1[C@@H](O)C[C@](O)(C(=O)O)O[C@H]1C(O)[C@H](O)CNC(=O)OCc1cn(-c2ccc([N+](=O)[O-])cc2)nn1
REMARK SMILES IDX 21 1 22 2 23 3 20 5 18 6 16 7 15 8 9 9 8 10 14 11 6 12 5 13
REMARK SMILES IDX 10 14 11 16 12 17 13 18 7 20 4 22 2 23 1 25 3 26 17 27 19 29
REMARK SMILES IDX 24 31 25 32 26 33 27 34 39 35 28 36 38 37 29 38 30 39 37 40
REMARK SMILES IDX 31 41 36 42 32 43 33 44 34 45 35 46
REMARK H PARENT 21 4 10 15 13 19 7 21 4 24 17 28 19 30
REMARK Flexibility Score: inf
ROOT
ATOM      1  N   UNL     1      22.547  35.000   9.809  1.00  0.00    -0.319 N 
ATOM      2  C   UNL     1      22.648  35.230  11.194  1.00  0.00     0.407 C 
ATOM      3  O   UNL     1      22.047  36.149  11.779  1.00  0.00    -0.225 OA
ATOM      4  H   UNL     1      23.095  34.154   9.429  1.00  0.00     0.167 HD
ENDROOT
BRANCH   1   5
ATOM      5  C   UNL     1      21.797  35.787   8.911  1.00  0.00     0.154 C 
BRANCH   5   6
ATOM      6  C   UNL     1      22.475  36.657   7.930  1.00  0.00     0.165 C 
BRANCH   6   7
ATOM      7  C   UNL     1      23.137  37.903   8.299  1.00  0.00     0.176 C 
BRANCH   7   8
ATOM      8  C   UNL     1      24.619  37.918   7.909  1.00  0.00     0.178 C 
ATOM      9  C   UNL     1      26.547  36.693   8.352  1.00  0.00     0.269 C 
ATOM     10  C   UNL     1      27.172  37.735   7.454  1.00  0.00     0.112 C 
ATOM     11  O   UNL     1      25.171  36.686   8.321  1.00  0.00    -0.332 OA
ATOM     12  C   UNL     1      26.714  39.125   7.770  1.00  0.00     0.145 C 
ATOM     13  C   UNL     1      25.406  38.989   8.572  1.00  0.00     0.142 C 
BRANCH   9  14
ATOM     14  O   UNL     1      27.063  36.880   9.623  1.00  0.00    -0.357 OA
ATOM     15  H   UNL     1      26.375  37.281  10.192  1.00  0.00     0.214 HD
ENDBRANCH   9  14
BRANCH   9  16
ATOM     16  C   UNL     1      27.006  35.371   7.851  1.00  0.00     0.364 C 
ATOM     17  O   UNL     1      27.743  35.289   6.835  1.00  0.00    -0.246 OA
BRANCH  16  18
ATOM     18  O   UNL     1      26.637  34.198   8.487  1.00  0.00    -0.477 OA
ATOM     19  H   UNL     1      27.327  33.546   8.869  1.00  0.00     0.296 HD
ENDBRANCH  16  18
ENDBRANCH   9  16
BRANCH  12  20
ATOM     20  O   UNL     1      27.636  39.891   8.445  1.00  0.00    -0.391 OA
ATOM     21  H   UNL     1      28.301  39.284   8.856  1.00  0.00     0.211 HD
ENDBRANCH  12  20
BRANCH  13  22
ATOM     22  N   UNL     1      24.805  40.305   8.539  1.00  0.00    -0.348 N 
ATOM     23  C   UNL     1      24.915  41.185   9.668  1.00  0.00     0.217 C 
ATOM     24  H   UNL     1      24.280  40.668   7.721  1.00  0.00     0.163 HD
ATOM     25  C   UNL     1      24.327  42.541   9.704  1.00  0.00     0.114 C 
ATOM     26  O   UNL     1      25.543  40.766  10.662  1.00  0.00    -0.275 OA
ENDBRANCH  13  22
ENDBRANCH   7   8
BRANCH   7  27
ATOM     27  O   UNL     1      22.970  38.201   9.627  1.00  0.00    -0.388 OA
ATOM     28  H   UNL     1      23.761  38.101  10.201  1.00  0.00     0.211 HD
ENDBRANCH   7  27
ENDBRANCH   6   7
BRANCH   6  29
ATOM     29  O   UNL     1      21.539  36.821   6.868  1.00  0.00    -0.388 OA
ATOM     30  H   UNL     1      21.748  36.183   6.137  1.00  0.00     0.211 HD
ENDBRANCH   6  29
ENDBRANCH   5   6
ENDBRANCH   1   5
BRANCH   2  31
ATOM     31  O   UNL     1      23.479  34.361  11.935  1.00  0.00    -0.443 OA
BRANCH  31  32
ATOM     32  C   UNL     1      24.286  34.965  12.926  1.00  0.00     0.294 C 
BRANCH  32  33
ATOM     33  C   UNL     1      25.735  34.856  12.546  1.00  0.00     0.121 A 
ATOM     34  C   UNL     1      26.831  34.997  13.368  1.00  0.00     0.144 A 
ATOM     35  N   UNL     1      26.257  34.600  11.321  1.00  0.00    -0.131 NA
ATOM     36  N   UNL     1      27.970  34.829  12.653  1.00  0.00    -0.220 N 
ATOM     37  N   UNL     1      27.564  34.592  11.423  1.00  0.00    -0.062 NA
BRANCH  36  38
ATOM     38  C   UNL     1      29.307  34.900  13.142  1.00  0.00     0.067 A 
ATOM     39  C   UNL     1      29.841  33.927  13.960  1.00  0.00     0.035 A 
ATOM     40  C   UNL     1      30.132  35.959  12.811  1.00  0.00     0.035 A 
ATOM     41  C   UNL     1      31.140  34.015  14.421  1.00  0.00     0.088 A 
ATOM     42  C   UNL     1      31.431  36.048  13.272  1.00  0.00     0.088 A 
ATOM     43  C   UNL     1      31.969  35.076  14.090  1.00  0.00     0.269 A 
BRANCH  43  44
ATOM     44  N   UNL     1      33.300  35.174  14.557  1.00  0.00     0.062 N 
ATOM     45  O   UNL     1      34.197  34.591  13.925  1.00  0.00    -0.258 OA
ATOM     46  O   UNL     1      33.665  35.878  15.670  1.00  0.00    -0.258 OA
ENDBRANCH  43  44
ENDBRANCH  36  38
ENDBRANCH  32  33
ENDBRANCH  31  32
ENDBRANCH   2  31
TORSDOF 16
BEGIN_RES LYS A 131
REMARK  4 active torsions:
REMARK  status: ('A' for Active; 'I' for Inactive)
REMARK    1  A    between atoms: CA   and  CB  
REMARK    2  A    between atoms: CB   and  CG  
REMARK    3  A    between atoms: CG   and  CD  
REMARK    4  A    between atoms: CD   and  CE  
ROOT
ATOM      1  CA  LYS A 131      29.867  25.555  16.977  1.00 20.52     0.186 C 
ENDROOT
BRANCH   1   2
ATOM      2  CB  LYS A 131      28.345  25.722  17.026  1.00 20.94     0.034 C 
BRANCH   2   3
ATOM      3  CG  LYS A 131      27.600  24.410  16.830  1.00 22.96     0.005 C 
BRANCH   3   4
ATOM      4  CD  LYS A 131      26.770  24.046  18.030  1.00 24.33     0.041 C 
BRANCH   4   5
ATOM      5  CE  LYS A 131      25.567  23.222  17.585  1.00 26.91     0.338 C 
ATOM      6  NZ  LYS A 131      24.573  24.082  16.901  1.00 27.40     0.618 N 
ENDBRANCH   4   5
ENDBRANCH   3   4
ENDBRANCH   2   3
ENDBRANCH   1   2
END_RES LYS A 131
BEGIN_RES LYS A 135
REMARK  4 active torsions:
REMARK  status: ('A' for Active; 'I' for Inactive)
REMARK    5  A    between atoms: CA   and  CB  
REMARK    6  A    between atoms: CB   and  CG  
REMARK    7  A    between atoms: CG   and  CD  
REMARK    8  A    between atoms: CD   and  CE  
ROOT
ATOM      7  CA  LYS A 135      33.193  34.663   9.290  1.00 25.02     0.186 C 
ENDROOT
BRANCH   7   8
ATOM      8  CB  LYS A 135      32.060  35.360  10.034  1.00 26.63     0.034 C 
BRANCH   8   9
ATOM      9  CG  LYS A 135      30.736  35.289   9.319  1.00 29.45     0.005 C 
BRANCH   9  10
ATOM     10  CD  LYS A 135      30.436  36.601   8.611  1.00 32.00     0.041 C 
BRANCH  10  11
ATOM     11  CE  LYS A 135      30.550  37.765   9.577  1.00 34.25     0.338 C 
ATOM     12  NZ  LYS A 135      31.379  38.861   9.002  1.00 35.99     0.618 N 
ENDBRANCH  10  11
ENDBRANCH   9  10
ENDBRANCH   8   9
ENDBRANCH   7   8
END_RES LYS A 135
