REMARK VINA RESULT:    -3.500      2.820      6.829
REMARK INTER + INTRA:         -14.034
REMARK INTER:                  -8.159
REMARK INTRA:                  -5.874
REMARK UNBOUND:                -7.158
REMARK SMILES CCN(CC)CCn1cc(COC(=O)NC[C@@H](O)C(O)[C@@H]2O[C@@](O)(C(=O)O)C[C@H](O)[C@H]2NC(C)=O)nn1
REMARK SMILES IDX 15 1 13 2 14 3 16 5 17 6 19 7 21 8 23 9 28 10 22 11 29 12
REMARK SMILES IDX 31 13 24 14 25 16 26 17 27 18 30 20 32 22 33 23 34 25 35 26
REMARK SMILES IDX 20 27 18 29 12 31 11 32 10 33 9 34 36 35 8 36 37 37 7 38
REMARK SMILES IDX 6 39 3 40 2 41 1 42 4 43 5 44
REMARK H PARENT 15 4 24 15 27 19 30 21 32 24 20 28 18 30
REMARK Flexibility Score: inf
ROOT
ATOM      1  N   UNL     1      27.622  29.895  18.489  1.00  0.00    -0.319 N 
ATOM      2  C   UNL     1      27.363  28.494  18.584  1.00  0.00     0.407 C 
ATOM      3  O   UNL     1      27.231  27.812  17.553  1.00  0.00    -0.225 OA
ATOM      4  H   UNL     1      27.719  30.399  19.387  1.00  0.00     0.167 HD
ENDROOT
BRANCH   1   5
ATOM      5  C   UNL     1      27.745  30.600  17.250  1.00  0.00     0.154 C 
BRANCH   5   6
ATOM      6  C   UNL     1      29.034  30.338  16.525  1.00  0.00     0.165 C 
BRANCH   6   7
ATOM      7  C   UNL     1      30.150  31.172  17.116  1.00  0.00     0.176 C 
BRANCH   7   8
ATOM      8  C   UNL     1      29.760  32.618  17.227  1.00  0.00     0.178 C 
ATOM      9  C   UNL     1      30.873  33.354  15.290  1.00  0.00     0.269 C 
ATOM     10  C   UNL     1      32.004  33.866  16.172  1.00  0.00     0.112 C 
ATOM     11  O   UNL     1      29.706  33.165  15.970  1.00  0.00    -0.332 OA
ATOM     12  C   UNL     1      31.339  34.486  17.406  1.00  0.00     0.145 C 
ATOM     13  C   UNL     1      30.654  33.387  18.135  1.00  0.00     0.142 C 
BRANCH   9  14
ATOM     14  O   UNL     1      31.354  32.239  14.608  1.00  0.00    -0.357 OA
ATOM     15  H   UNL     1      32.165  31.868  15.059  1.00  0.00     0.214 HD
ENDBRANCH   9  14
BRANCH   9  16
ATOM     16  C   UNL     1      30.601  34.414  14.267  1.00  0.00     0.364 C 
ATOM     17  O   UNL     1      29.818  35.364  14.480  1.00  0.00    -0.246 OA
BRANCH  16  18
ATOM     18  O   UNL     1      31.238  34.337  13.047  1.00  0.00    -0.477 OA
ATOM     19  H   UNL     1      30.807  33.953  12.211  1.00  0.00     0.296 HD
ENDBRANCH  16  18
ENDBRANCH   9  16
BRANCH  12  20
ATOM     20  O   UNL     1      32.338  35.108  18.154  1.00  0.00    -0.391 OA
ATOM     21  H   UNL     1      33.158  35.115  17.565  1.00  0.00     0.211 HD
ENDBRANCH  12  20
BRANCH  13  22
ATOM     22  N   UNL     1      29.986  33.833  19.343  1.00  0.00    -0.348 N 
ATOM     23  C   UNL     1      30.592  33.791  20.630  1.00  0.00     0.217 C 
ATOM     24  H   UNL     1      28.999  34.218  19.317  1.00  0.00     0.163 HD
ATOM     25  C   UNL     1      29.855  34.265  21.844  1.00  0.00     0.114 C 
ATOM     26  O   UNL     1      31.751  33.355  20.763  1.00  0.00    -0.275 OA
ENDBRANCH  13  22
ENDBRANCH   7   8
BRANCH   7  27
ATOM     27  O   UNL     1      30.392  30.596  18.376  1.00  0.00    -0.388 OA
ATOM     28  H   UNL     1      29.493  30.406  18.757  1.00  0.00     0.211 HD
ENDBRANCH   7  27
ENDBRANCH   6   7
BRANCH   6  29
ATOM     29  O   UNL     1      28.866  30.473  15.177  1.00  0.00    -0.388 OA
ATOM     30  H   UNL     1      29.746  30.576  14.736  1.00  0.00     0.211 HD
ENDBRANCH   6  29
ENDBRANCH   5   6
ENDBRANCH   1   5
BRANCH   2  31
ATOM     31  O   UNL     1      27.252  27.840  19.800  1.00  0.00    -0.443 OA
BRANCH  31  32
ATOM     32  C   UNL     1      27.592  28.466  21.030  1.00  0.00     0.294 C 
BRANCH  32  33
ATOM     33  C   UNL     1      29.072  28.461  21.150  1.00  0.00     0.120 A 
ATOM     34  C   UNL     1      29.813  29.546  21.617  1.00  0.00     0.138 A 
ATOM     35  N   UNL     1      29.973  27.510  20.870  1.00  0.00    -0.132 NA
ATOM     36  N   UNL     1      31.098  29.204  21.597  1.00  0.00    -0.251 N 
ATOM     37  N   UNL     1      31.182  27.972  21.144  1.00  0.00    -0.067 NA
BRANCH  36  38
ATOM     38  C   UNL     1      32.206  30.030  21.996  1.00  0.00     0.161 C 
BRANCH  38  39
ATOM     39  C   UNL     1      33.393  29.137  22.305  1.00  0.00     0.108 C 
BRANCH  39  40
ATOM     40  N   UNL     1      34.545  29.851  22.753  1.00  0.00    -0.302 NA
BRANCH  40  41
ATOM     41  C   UNL     1      34.836  31.043  22.029  1.00  0.00     0.081 C 
ATOM     42  C   UNL     1      35.912  31.797  22.824  1.00  0.00     0.021 C 
ENDBRANCH  40  41
BRANCH  40  43
ATOM     43  C   UNL     1      35.650  29.012  23.076  1.00  0.00     0.081 C 
ATOM     44  C   UNL     1      35.281  27.774  23.833  1.00  0.00     0.021 C 
ENDBRANCH  40  43
ENDBRANCH  39  40
ENDBRANCH  38  39
ENDBRANCH  36  38
ENDBRANCH  32  33
ENDBRANCH  31  32
ENDBRANCH   2  31
TORSDOF 19
BEGIN_RES LYS A 131
REMARK  4 active torsions:
REMARK  status: ('A' for Active; 'I' for Inactive)
REMARK    1  A    between atoms: CA   and  CB  
REMARK    2  A    between atoms: CB   and  CG  
REMARK    3  A    between atoms: CG   and  CD  
REMARK    4  A    between atoms: CD   and  CE  
ROOT
ATOM      1  CA  LYS A 131      29.867  25.555  16.977  1.00 20.52     0.186 C 
ENDROOT
BRANCH   1   2
ATOM      2  CB  LYS A 131      28.345  25.722  17.026  1.00 20.94     0.034 C 
BRANCH   2   3
ATOM      3  CG  LYS A 131      27.601  24.405  16.865  1.00 22.96     0.005 C 
BRANCH   3   4
ATOM      4  CD  LYS A 131      26.165  24.510  17.298  1.00 24.33     0.041 C 
BRANCH   4   5
ATOM      5  CE  LYS A 131      25.737  23.205  17.962  1.00 26.91     0.338 C 
ATOM      6  NZ  LYS A 131      25.551  23.401  19.420  1.00 27.40     0.618 N 
ENDBRANCH   4   5
ENDBRANCH   3   4
ENDBRANCH   2   3
ENDBRANCH   1   2
END_RES LYS A 131
BEGIN_RES LYS A 135
REMARK  4 active torsions:
REMARK  status: ('A' for Active; 'I' for Inactive)
REMARK    5  A    between atoms: CA   and  CB  
REMARK    6  A    between atoms: CB   and  CG  
REMARK    7  A    between atoms: CG   and  CD  
REMARK    8  A    between atoms: CD   and  CE  
ROOT
ATOM      7  CA  LYS A 135      33.193  34.663   9.290  1.00 25.02     0.186 C 
ENDROOT
BRANCH   7   8
ATOM      8  CB  LYS A 135      32.060  35.360  10.034  1.00 26.63     0.034 C 
BRANCH   8   9
ATOM      9  CG  LYS A 135      30.803  35.508   9.216  1.00 29.45     0.005 C 
BRANCH   9  10
ATOM     10  CD  LYS A 135      30.252  34.145   8.827  1.00 32.00     0.041 C 
BRANCH  10  11
ATOM     11  CE  LYS A 135      28.770  34.061   9.140  1.00 34.25     0.338 C 
ATOM     12  NZ  LYS A 135      27.963  34.765   8.105  1.00 35.99     0.618 N 
ENDBRANCH  10  11
ENDBRANCH   9  10
ENDBRANCH   8   9
ENDBRANCH   7   8
END_RES LYS A 135
