REMARK VINA RESULT:    -4.327      4.254      7.847
REMARK INTER + INTRA:         -15.179
REMARK INTER:                  -9.388
REMARK INTRA:                  -5.791
REMARK UNBOUND:                -7.311
REMARK SMILES CC(=O)N[C@@H]1[C@@H](O)C[C@](O)(C(=O)O)O[C@H]1C(O)[C@H](O)CNC(=O)OCc1cn(-c2ccc(O)c([N+](=O)[O-])c2)nn1
REMARK SMILES IDX 21 1 22 2 23 3 20 5 18 6 16 7 15 8 9 9 8 10 14 11 6 12 5 13
REMARK SMILES IDX 10 14 11 16 12 17 13 18 7 20 4 22 2 23 1 25 3 26 17 27 19 29
REMARK SMILES IDX 24 31 25 32 26 33 27 34 40 35 28 36 39 37 29 38 30 39 38 40
REMARK SMILES IDX 31 41 34 42 32 43 35 44 36 45 37 46 33 47
REMARK H PARENT 21 4 10 15 13 19 7 21 4 24 17 28 19 30 33 48
REMARK Flexibility Score: inf
ROOT
ATOM      1  N   UNL     1      33.819  35.315  19.943  1.00  0.00    -0.319 N 
ATOM      2  C   UNL     1      34.931  34.837  20.687  1.00  0.00     0.407 C 
ATOM      3  O   UNL     1      34.845  33.807  21.435  1.00  0.00    -0.225 OA
ATOM      4  H   UNL     1      33.931  36.147  19.344  1.00  0.00     0.167 HD
ENDROOT
BRANCH   1   5
ATOM      5  C   UNL     1      32.567  34.622  20.034  1.00  0.00     0.154 C 
BRANCH   5   6
ATOM      6  C   UNL     1      31.881  34.315  18.752  1.00  0.00     0.165 C 
BRANCH   6   7
ATOM      7  C   UNL     1      31.453  35.510  17.941  1.00  0.00     0.176 C 
BRANCH   7   8
ATOM      8  C   UNL     1      31.456  35.291  16.460  1.00  0.00     0.178 C 
ATOM      9  C   UNL     1      30.584  34.051  14.735  1.00  0.00     0.269 C 
ATOM     10  C   UNL     1      31.171  35.213  13.966  1.00  0.00     0.112 C 
ATOM     11  O   UNL     1      30.741  34.159  16.105  1.00  0.00    -0.332 OA
ATOM     12  C   UNL     1      32.619  35.346  14.301  1.00  0.00     0.145 C 
ATOM     13  C   UNL     1      32.786  35.441  15.822  1.00  0.00     0.142 C 
BRANCH   9  14
ATOM     14  O   UNL     1      31.232  32.906  14.293  1.00  0.00    -0.357 OA
ATOM     15  H   UNL     1      32.117  32.880  14.750  1.00  0.00     0.214 HD
ENDBRANCH   9  14
BRANCH   9  16
ATOM     16  C   UNL     1      29.152  33.953  14.359  1.00  0.00     0.364 C 
ATOM     17  O   UNL     1      28.327  33.337  15.084  1.00  0.00    -0.246 OA
BRANCH  16  18
ATOM     18  O   UNL     1      28.691  34.541  13.197  1.00  0.00    -0.477 OA
ATOM     19  H   UNL     1      28.166  35.395  13.175  1.00  0.00     0.296 HD
ENDBRANCH  16  18
ENDBRANCH   9  16
BRANCH  12  20
ATOM     20  O   UNL     1      33.267  34.206  13.789  1.00  0.00    -0.391 OA
ATOM     21  H   UNL     1      32.592  33.463  13.841  1.00  0.00     0.211 HD
ENDBRANCH  12  20
BRANCH  13  22
ATOM     22  N   UNL     1      33.248  36.807  16.115  1.00  0.00    -0.348 N 
ATOM     23  C   UNL     1      34.382  37.076  16.909  1.00  0.00     0.217 C 
ATOM     24  H   UNL     1      32.707  37.610  15.716  1.00  0.00     0.163 HD
ATOM     25  C   UNL     1      34.813  38.468  17.183  1.00  0.00     0.114 C 
ATOM     26  O   UNL     1      35.032  36.137  17.387  1.00  0.00    -0.275 OA
ENDBRANCH  13  22
ENDBRANCH   7   8
BRANCH   7  27
ATOM     27  O   UNL     1      30.178  35.941  18.309  1.00  0.00    -0.388 OA
ATOM     28  H   UNL     1      30.009  35.890  19.264  1.00  0.00     0.211 HD
ENDBRANCH   7  27
ENDBRANCH   6   7
BRANCH   6  29
ATOM     29  O   UNL     1      30.760  33.535  19.074  1.00  0.00    -0.388 OA
ATOM     30  H   UNL     1      30.766  32.744  18.463  1.00  0.00     0.211 HD
ENDBRANCH   6  29
ENDBRANCH   5   6
ENDBRANCH   1   5
BRANCH   2  31
ATOM     31  O   UNL     1      36.121  35.518  20.584  1.00  0.00    -0.443 OA
BRANCH  31  32
ATOM     32  C   UNL     1      37.327  34.831  20.716  1.00  0.00     0.294 C 
BRANCH  32  33
ATOM     33  C   UNL     1      37.817  34.243  19.441  1.00  0.00     0.121 A 
ATOM     34  C   UNL     1      37.892  34.844  18.192  1.00  0.00     0.144 A 
ATOM     35  N   UNL     1      38.289  32.999  19.243  1.00  0.00    -0.131 NA
ATOM     36  N   UNL     1      38.391  33.980  17.295  1.00  0.00    -0.220 N 
ATOM     37  N   UNL     1      38.625  32.861  17.959  1.00  0.00    -0.062 NA
BRANCH  36  38
ATOM     38  C   UNL     1      38.638  34.173  15.908  1.00  0.00     0.073 A 
ATOM     39  C   UNL     1      39.802  34.782  15.489  1.00  0.00     0.033 A 
ATOM     40  C   UNL     1      37.751  33.773  14.929  1.00  0.00     0.118 A 
ATOM     41  C   UNL     1      40.062  34.981  14.143  1.00  0.00     0.056 A 
ATOM     42  C   UNL     1      37.968  33.951  13.572  1.00  0.00     0.312 A 
ATOM     43  C   UNL     1      39.156  34.569  13.195  1.00  0.00     0.194 A 
BRANCH  42  44
ATOM     44  N   UNL     1      37.051  33.536  12.584  1.00  0.00     0.066 N 
ATOM     45  O   UNL     1      35.873  33.890  12.662  1.00  0.00    -0.258 OA
ATOM     46  O   UNL     1      37.468  32.752  11.555  1.00  0.00    -0.258 OA
ENDBRANCH  42  44
BRANCH  43  47
ATOM     47  O   UNL     1      39.371  34.747  11.830  1.00  0.00    -0.502 OA
ATOM     48  H   UNL     1      40.032  35.480  11.537  1.00  0.00     0.293 HD
ENDBRANCH  43  47
ENDBRANCH  36  38
ENDBRANCH  32  33
ENDBRANCH  31  32
ENDBRANCH   2  31
TORSDOF 17
BEGIN_RES LYS A 131
REMARK  4 active torsions:
REMARK  status: ('A' for Active; 'I' for Inactive)
REMARK    1  A    between atoms: CA   and  CB  
REMARK    2  A    between atoms: CB   and  CG  
REMARK    3  A    between atoms: CG   and  CD  
REMARK    4  A    between atoms: CD   and  CE  
ROOT
ATOM      1  CA  LYS A 131      29.867  25.555  16.977  1.00 20.52     0.186 C 
ENDROOT
BRANCH   1   2
ATOM      2  CB  LYS A 131      28.345  25.722  17.026  1.00 20.94     0.034 C 
BRANCH   2   3
ATOM      3  CG  LYS A 131      27.601  24.402  16.895  1.00 22.96     0.005 C 
BRANCH   3   4
ATOM      4  CD  LYS A 131      26.170  24.511  17.344  1.00 24.33     0.041 C 
BRANCH   4   5
ATOM      5  CE  LYS A 131      25.862  23.395  18.337  1.00 26.91     0.338 C 
ATOM      6  NZ  LYS A 131      25.470  23.962  19.649  1.00 27.40     0.618 N 
ENDBRANCH   4   5
ENDBRANCH   3   4
ENDBRANCH   2   3
ENDBRANCH   1   2
END_RES LYS A 131
BEGIN_RES LYS A 135
REMARK  4 active torsions:
REMARK  status: ('A' for Active; 'I' for Inactive)
REMARK    5  A    between atoms: CA   and  CB  
REMARK    6  A    between atoms: CB   and  CG  
REMARK    7  A    between atoms: CG   and  CD  
REMARK    8  A    between atoms: CD   and  CE  
ROOT
ATOM      7  CA  LYS A 135      33.193  34.663   9.290  1.00 25.02     0.186 C 
ENDROOT
BRANCH   7   8
ATOM      8  CB  LYS A 135      32.060  35.360  10.034  1.00 26.63     0.034 C 
BRANCH   8   9
ATOM      9  CG  LYS A 135      30.782  35.447   9.241  1.00 29.45     0.005 C 
BRANCH   9  10
ATOM     10  CD  LYS A 135      30.214  34.059   8.985  1.00 32.00     0.041 C 
BRANCH  10  11
ATOM     11  CE  LYS A 135      28.714  34.048   9.211  1.00 34.25     0.338 C 
ATOM     12  NZ  LYS A 135      28.124  35.392   8.964  1.00 35.99     0.618 N 
ENDBRANCH  10  11
ENDBRANCH   9  10
ENDBRANCH   8   9
ENDBRANCH   7   8
END_RES LYS A 135
