REMARK VINA RESULT:    -4.082      2.587      7.024
REMARK INTER + INTRA:         -13.840
REMARK INTER:                  -8.013
REMARK INTRA:                  -5.827
REMARK UNBOUND:                -6.059
REMARK SMILES CC(=O)N[C@@H]1[C@@H](O)C[C@](O)(C(=O)O)O[C@H]1C(O)[C@H](O)CNC(=O)OCc1cn(CCOC(C)=O)nn1
REMARK SMILES IDX 21 1 22 2 23 3 20 5 18 6 16 7 15 8 9 9 8 10 14 11 6 12 5 13
REMARK SMILES IDX 10 14 11 16 12 17 13 18 7 20 4 22 2 23 1 25 3 26 17 27 19 29
REMARK SMILES IDX 24 31 25 32 26 33 27 34 36 35 28 36 35 37 29 38 30 39 31 40
REMARK SMILES IDX 32 41 34 42 33 43
REMARK H PARENT 21 4 10 15 13 19 7 21 4 24 17 28 19 30
REMARK Flexibility Score: inf
ROOT
ATOM      1  N   UNL     1      29.873  32.116  18.598  1.00  0.00    -0.319 N 
ATOM      2  C   UNL     1      30.459  31.324  19.610  1.00  0.00     0.407 C 
ATOM      3  O   UNL     1      30.236  30.106  19.666  1.00  0.00    -0.225 OA
ATOM      4  H   UNL     1      30.111  33.146  18.627  1.00  0.00     0.167 HD
ENDROOT
BRANCH   1   5
ATOM      5  C   UNL     1      28.998  31.618  17.558  1.00  0.00     0.154 C 
BRANCH   5   6
ATOM      6  C   UNL     1      29.739  31.297  16.316  1.00  0.00     0.165 C 
BRANCH   6   7
ATOM      7  C   UNL     1      30.548  32.423  15.710  1.00  0.00     0.176 C 
BRANCH   7   8
ATOM      8  C   UNL     1      29.841  33.213  14.650  1.00  0.00     0.178 C 
ATOM      9  C   UNL     1      31.577  34.754  14.507  1.00  0.00     0.269 C 
ATOM     10  C   UNL     1      30.989  35.513  15.633  1.00  0.00     0.112 C 
ATOM     11  O   UNL     1      30.737  33.905  13.837  1.00  0.00    -0.332 OA
ATOM     12  C   UNL     1      29.538  35.320  15.888  1.00  0.00     0.145 C 
ATOM     13  C   UNL     1      28.861  34.239  15.119  1.00  0.00     0.142 C 
BRANCH   9  14
ATOM     14  O   UNL     1      32.682  33.970  14.922  1.00  0.00    -0.357 OA
ATOM     15  H   UNL     1      32.700  33.865  15.902  1.00  0.00     0.214 HD
ENDBRANCH   9  14
BRANCH   9  16
ATOM     16  C   UNL     1      32.142  35.684  13.489  1.00  0.00     0.364 C 
ATOM     17  O   UNL     1      31.969  36.947  13.582  1.00  0.00    -0.246 OA
BRANCH  16  18
ATOM     18  O   UNL     1      32.880  35.269  12.391  1.00  0.00    -0.477 OA
ATOM     19  H   UNL     1      33.012  35.946  11.632  1.00  0.00     0.296 HD
ENDBRANCH  16  18
ENDBRANCH   9  16
BRANCH  12  20
ATOM     20  O   UNL     1      29.369  35.053  17.250  1.00  0.00    -0.391 OA
ATOM     21  H   UNL     1      30.169  34.565  17.619  1.00  0.00     0.211 HD
ENDBRANCH  12  20
BRANCH  13  22
ATOM     22  N   UNL     1      28.147  34.701  13.952  1.00  0.00    -0.348 N 
ATOM     23  C   UNL     1      26.779  34.489  13.756  1.00  0.00     0.217 C 
ATOM     24  H   UNL     1      28.698  35.210  13.236  1.00  0.00     0.163 HD
ATOM     25  C   UNL     1      26.020  34.953  12.566  1.00  0.00     0.114 C 
ATOM     26  O   UNL     1      26.166  33.867  14.645  1.00  0.00    -0.275 OA
ENDBRANCH  13  22
ENDBRANCH   7   8
BRANCH   7  27
ATOM     27  O   UNL     1      31.554  31.705  14.956  1.00  0.00    -0.388 OA
ATOM     28  H   UNL     1      32.186  31.409  15.681  1.00  0.00     0.211 HD
ENDBRANCH   7  27
ENDBRANCH   6   7
BRANCH   6  29
ATOM     29  O   UNL     1      29.136  30.499  15.391  1.00  0.00    -0.388 OA
ATOM     30  H   UNL     1      28.390  30.921  14.939  1.00  0.00     0.211 HD
ENDBRANCH   6  29
ENDBRANCH   5   6
ENDBRANCH   1   5
BRANCH   2  31
ATOM     31  O   UNL     1      31.309  31.914  20.574  1.00  0.00    -0.443 OA
BRANCH  31  32
ATOM     32  C   UNL     1      31.077  33.257  20.996  1.00  0.00     0.294 C 
BRANCH  32  33
ATOM     33  C   UNL     1      31.986  34.135  20.233  1.00  0.00     0.120 A 
ATOM     34  C   UNL     1      33.082  34.810  20.744  1.00  0.00     0.138 A 
ATOM     35  N   UNL     1      31.929  34.449  18.932  1.00  0.00    -0.132 NA
ATOM     36  N   UNL     1      33.640  35.500  19.738  1.00  0.00    -0.249 N 
ATOM     37  N   UNL     1      32.927  35.266  18.660  1.00  0.00    -0.067 NA
BRANCH  36  38
ATOM     38  C   UNL     1      34.812  36.336  19.863  1.00  0.00     0.187 C 
BRANCH  38  39
ATOM     39  C   UNL     1      35.892  35.780  18.966  1.00  0.00     0.256 C 
BRANCH  39  40
ATOM     40  O   UNL     1      35.984  36.549  17.802  1.00  0.00    -0.464 OA
BRANCH  40  41
ATOM     41  C   UNL     1      35.948  35.981  16.563  1.00  0.00     0.302 C 
ATOM     42  O   UNL     1      34.872  35.790  15.967  1.00  0.00    -0.253 OA
ATOM     43  C   UNL     1      37.222  35.568  15.878  1.00  0.00     0.139 C 
ENDBRANCH  40  41
ENDBRANCH  39  40
ENDBRANCH  38  39
ENDBRANCH  36  38
ENDBRANCH  32  33
ENDBRANCH  31  32
ENDBRANCH   2  31
TORSDOF 18
BEGIN_RES LYS A 131
REMARK  4 active torsions:
REMARK  status: ('A' for Active; 'I' for Inactive)
REMARK    1  A    between atoms: CA   and  CB  
REMARK    2  A    between atoms: CB   and  CG  
REMARK    3  A    between atoms: CG   and  CD  
REMARK    4  A    between atoms: CD   and  CE  
ROOT
ATOM      1  CA  LYS A 131      29.867  25.555  16.977  1.00 20.52     0.186 C 
ENDROOT
BRANCH   1   2
ATOM      2  CB  LYS A 131      28.345  25.722  17.026  1.00 20.94     0.034 C 
BRANCH   2   3
ATOM      3  CG  LYS A 131      27.602  24.399  16.925  1.00 22.96     0.005 C 
BRANCH   3   4
ATOM      4  CD  LYS A 131      26.164  24.523  17.347  1.00 24.33     0.041 C 
BRANCH   4   5
ATOM      5  CE  LYS A 131      25.863  23.500  18.437  1.00 26.91     0.338 C 
ATOM      6  NZ  LYS A 131      25.462  24.180  19.691  1.00 27.40     0.618 N 
ENDBRANCH   4   5
ENDBRANCH   3   4
ENDBRANCH   2   3
ENDBRANCH   1   2
END_RES LYS A 131
BEGIN_RES LYS A 135
REMARK  4 active torsions:
REMARK  status: ('A' for Active; 'I' for Inactive)
REMARK    5  A    between atoms: CA   and  CB  
REMARK    6  A    between atoms: CB   and  CG  
REMARK    7  A    between atoms: CG   and  CD  
REMARK    8  A    between atoms: CD   and  CE  
ROOT
ATOM      7  CA  LYS A 135      33.193  34.663   9.290  1.00 25.02     0.186 C 
ENDROOT
BRANCH   7   8
ATOM      8  CB  LYS A 135      32.060  35.360  10.034  1.00 26.63     0.034 C 
BRANCH   8   9
ATOM      9  CG  LYS A 135      30.804  35.509   9.215  1.00 29.45     0.005 C 
BRANCH   9  10
ATOM     10  CD  LYS A 135      30.145  34.157   8.992  1.00 32.00     0.041 C 
BRANCH  10  11
ATOM     11  CE  LYS A 135      28.689  34.332   8.602  1.00 34.25     0.338 C 
ATOM     12  NZ  LYS A 135      27.785  33.709   9.607  1.00 35.99     0.618 N 
ENDBRANCH  10  11
ENDBRANCH   9  10
ENDBRANCH   8   9
ENDBRANCH   7   8
END_RES LYS A 135
