REMARK VINA RESULT:    -4.403      6.252     11.879
REMARK INTER + INTRA:         -15.116
REMARK INTER:                 -10.161
REMARK INTRA:                  -4.955
REMARK UNBOUND:                -6.980
REMARK SMILES CC(=O)N[C@@H]1[C@@H](O)C[C@](O)(C(=O)O)O[C@H]1C(O)[C@H](O)CNC(=O)OCc1cn(Cc2ccc(C#N)cc2)nn1
REMARK SMILES IDX 21 1 22 2 23 3 20 5 18 6 16 7 15 8 9 9 8 10 14 11 6 12 5 13
REMARK SMILES IDX 10 14 11 16 12 17 13 18 7 20 4 22 2 23 1 25 3 26 17 27 19 29
REMARK SMILES IDX 24 31 25 32 26 33 27 34 39 35 28 36 38 37 29 38 30 39 31 40
REMARK SMILES IDX 37 41 32 42 36 43 33 44 34 45 35 46
REMARK H PARENT 21 4 10 15 13 19 7 21 4 24 17 28 19 30
REMARK Flexibility Score: inf
ROOT
ATOM      1  N   UNL     1      25.428  34.268  12.050  1.00  0.00    -0.319 N 
ATOM      2  C   UNL     1      26.435  35.259  12.245  1.00  0.00     0.407 C 
ATOM      3  O   UNL     1      26.085  36.440  12.592  1.00  0.00    -0.225 OA
ATOM      4  H   UNL     1      25.737  33.318  11.773  1.00  0.00     0.167 HD
ENDROOT
BRANCH   1   5
ATOM      5  C   UNL     1      24.066  34.609  12.240  1.00  0.00     0.154 C 
BRANCH   5   6
ATOM      6  C   UNL     1      23.258  34.864  10.991  1.00  0.00     0.165 C 
BRANCH   6   7
ATOM      7  C   UNL     1      23.269  36.317  10.559  1.00  0.00     0.176 C 
BRANCH   7   8
ATOM      8  C   UNL     1      22.003  36.732   9.890  1.00  0.00     0.178 C 
ATOM      9  C   UNL     1      20.573  36.121   8.157  1.00  0.00     0.269 C 
ATOM     10  C   UNL     1      19.760  37.281   8.687  1.00  0.00     0.112 C 
ATOM     11  O   UNL     1      21.591  35.748   8.982  1.00  0.00    -0.332 OA
ATOM     12  C   UNL     1      20.583  38.484   8.986  1.00  0.00     0.145 C 
ATOM     13  C   UNL     1      22.044  38.025   9.137  1.00  0.00     0.142 C 
BRANCH   9  14
ATOM     14  O   UNL     1      21.025  36.454   6.862  1.00  0.00    -0.357 OA
ATOM     15  H   UNL     1      21.838  37.030   6.969  1.00  0.00     0.214 HD
ENDBRANCH   9  14
BRANCH   9  16
ATOM     16  C   UNL     1      19.644  34.980   8.015  1.00  0.00     0.364 C 
ATOM     17  O   UNL     1      19.205  34.413   9.041  1.00  0.00    -0.246 OA
BRANCH  16  18
ATOM     18  O   UNL     1      19.262  34.542   6.769  1.00  0.00    -0.477 OA
ATOM     19  H   UNL     1      19.207  35.115   5.946  1.00  0.00     0.296 HD
ENDBRANCH  16  18
ENDBRANCH   9  16
BRANCH  12  20
ATOM     20  O   UNL     1      20.477  39.494   8.050  1.00  0.00    -0.391 OA
ATOM     21  H   UNL     1      21.246  39.381   7.411  1.00  0.00     0.211 HD
ENDBRANCH  12  20
BRANCH  13  22
ATOM     22  N   UNL     1      22.841  39.064   9.710  1.00  0.00    -0.348 N 
ATOM     23  C   UNL     1      23.607  39.956   8.883  1.00  0.00     0.217 C 
ATOM     24  H   UNL     1      22.896  39.229  10.755  1.00  0.00     0.163 HD
ATOM     25  C   UNL     1      24.436  41.039   9.492  1.00  0.00     0.114 C 
ATOM     26  O   UNL     1      23.596  39.845   7.634  1.00  0.00    -0.275 OA
ENDBRANCH  13  22
ENDBRANCH   7   8
BRANCH   7  27
ATOM     27  O   UNL     1      24.412  36.610   9.890  1.00  0.00    -0.388 OA
ATOM     28  H   UNL     1      24.408  37.405   9.356  1.00  0.00     0.211 HD
ENDBRANCH   7  27
ENDBRANCH   6   7
BRANCH   6  29
ATOM     29  O   UNL     1      21.936  34.502  11.355  1.00  0.00    -0.388 OA
ATOM     30  H   UNL     1      21.340  35.273  11.383  1.00  0.00     0.211 HD
ENDBRANCH   6  29
ENDBRANCH   5   6
ENDBRANCH   1   5
BRANCH   2  31
ATOM     31  O   UNL     1      27.792  35.041  12.086  1.00  0.00    -0.443 OA
BRANCH  31  32
ATOM     32  C   UNL     1      28.663  36.150  12.076  1.00  0.00     0.294 C 
BRANCH  32  33
ATOM     33  C   UNL     1      29.796  35.975  13.015  1.00  0.00     0.120 A 
ATOM     34  C   UNL     1      30.379  34.792  13.442  1.00  0.00     0.138 A 
ATOM     35  N   UNL     1      30.468  36.962  13.621  1.00  0.00    -0.132 NA
ATOM     36  N   UNL     1      31.373  35.097  14.281  1.00  0.00    -0.248 N 
ATOM     37  N   UNL     1      31.400  36.410  14.368  1.00  0.00    -0.067 NA
BRANCH  36  38
ATOM     38  C   UNL     1      32.259  34.180  14.964  1.00  0.00     0.181 C 
BRANCH  38  39
ATOM     39  C   UNL     1      31.593  33.333  15.954  1.00  0.00    -0.026 A 
ATOM     40  C   UNL     1      31.447  33.770  17.245  1.00  0.00     0.007 A 
ATOM     41  C   UNL     1      31.113  32.086  15.585  1.00  0.00     0.007 A 
ATOM     42  C   UNL     1      30.824  32.980  18.192  1.00  0.00     0.020 A 
ATOM     43  C   UNL     1      30.484  31.272  16.517  1.00  0.00     0.020 A 
ATOM     44  C   UNL     1      30.347  31.739  17.826  1.00  0.00     0.052 A 
BRANCH  44  45
ATOM     45  C   UNL     1      29.702  30.909  18.801  1.00  0.00     0.099 C 
ATOM     46  N   UNL     1      29.169  30.246  19.606  1.00  0.00    -0.192 NA
ENDBRANCH  44  45
ENDBRANCH  38  39
ENDBRANCH  36  38
ENDBRANCH  32  33
ENDBRANCH  31  32
ENDBRANCH   2  31
TORSDOF 17
BEGIN_RES LYS A 131
REMARK  4 active torsions:
REMARK  status: ('A' for Active; 'I' for Inactive)
REMARK    1  A    between atoms: CA   and  CB  
REMARK    2  A    between atoms: CB   and  CG  
REMARK    3  A    between atoms: CG   and  CD  
REMARK    4  A    between atoms: CD   and  CE  
ROOT
ATOM      1  CA  LYS A 131      29.867  25.555  16.977  1.00 20.52     0.186 C 
ENDROOT
BRANCH   1   2
ATOM      2  CB  LYS A 131      28.345  25.722  17.026  1.00 20.94     0.034 C 
BRANCH   2   3
ATOM      3  CG  LYS A 131      27.602  24.399  16.922  1.00 22.96     0.005 C 
BRANCH   3   4
ATOM      4  CD  LYS A 131      26.641  24.198  18.061  1.00 24.33     0.041 C 
BRANCH   4   5
ATOM      5  CE  LYS A 131      25.870  25.491  18.310  1.00 26.91     0.338 C 
ATOM      6  NZ  LYS A 131      25.898  25.842  19.750  1.00 27.40     0.618 N 
ENDBRANCH   4   5
ENDBRANCH   3   4
ENDBRANCH   2   3
ENDBRANCH   1   2
END_RES LYS A 131
BEGIN_RES LYS A 135
REMARK  4 active torsions:
REMARK  status: ('A' for Active; 'I' for Inactive)
REMARK    5  A    between atoms: CA   and  CB  
REMARK    6  A    between atoms: CB   and  CG  
REMARK    7  A    between atoms: CG   and  CD  
REMARK    8  A    between atoms: CD   and  CE  
ROOT
ATOM      7  CA  LYS A 135      33.193  34.663   9.290  1.00 25.02     0.186 C 
ENDROOT
BRANCH   7   8
ATOM      8  CB  LYS A 135      32.060  35.360  10.034  1.00 26.63     0.034 C 
BRANCH   8   9
ATOM      9  CG  LYS A 135      30.902  35.740   9.148  1.00 29.45     0.005 C 
BRANCH   9  10
ATOM     10  CD  LYS A 135      30.388  34.528   8.387  1.00 32.00     0.041 C 
BRANCH  10  11
ATOM     11  CE  LYS A 135      28.947  34.737   7.962  1.00 34.25     0.338 C 
ATOM     12  NZ  LYS A 135      28.006  34.115   8.933  1.00 35.99     0.618 N 
ENDBRANCH  10  11
ENDBRANCH   9  10
ENDBRANCH   8   9
ENDBRANCH   7   8
END_RES LYS A 135
