REMARK VINA RESULT:    -4.241      4.168      9.258
REMARK INTER + INTRA:         -13.830
REMARK INTER:                  -7.952
REMARK INTRA:                  -5.878
REMARK UNBOUND:                -5.994
REMARK SMILES CC(=O)N[C@@H]1[C@@H](O)C[C@](O)(C(=O)O)O[C@H]1C(O)[C@H](O)CNC(=O)OCc1cn(CCN2CCCC2)nn1
REMARK SMILES IDX 21 1 22 2 23 3 20 5 18 6 16 7 15 8 9 9 8 10 14 11 6 12 5 13
REMARK SMILES IDX 10 14 11 16 12 17 13 18 7 20 4 22 2 23 1 25 3 26 17 27 19 29
REMARK SMILES IDX 24 31 25 32 26 33 27 34 37 35 28 36 36 37 29 38 30 39 31 40
REMARK SMILES IDX 32 41 35 42 33 43 34 44
REMARK H PARENT 21 4 10 15 13 19 7 21 4 24 17 28 19 30
REMARK Flexibility Score: inf
ROOT
ATOM      1  N   UNL     1      31.377  35.426  14.497  1.00  0.00    -0.319 N 
ATOM      2  C   UNL     1      32.292  35.810  13.500  1.00  0.00     0.407 C 
ATOM      3  O   UNL     1      33.306  35.134  13.282  1.00  0.00    -0.225 OA
ATOM      4  H   UNL     1      30.539  36.094  14.606  1.00  0.00     0.167 HD
ENDROOT
BRANCH   1   5
ATOM      5  C   UNL     1      31.458  34.277  15.341  1.00  0.00     0.154 C 
BRANCH   5   6
ATOM      6  C   UNL     1      30.931  33.057  14.643  1.00  0.00     0.165 C 
BRANCH   6   7
ATOM      7  C   UNL     1      29.413  32.963  14.758  1.00  0.00     0.176 C 
BRANCH   7   8
ATOM      8  C   UNL     1      29.100  32.810  16.257  1.00  0.00     0.178 C 
ATOM      9  C   UNL     1      28.224  30.718  16.856  1.00  0.00     0.269 C 
ATOM     10  C   UNL     1      26.912  31.238  16.302  1.00  0.00     0.112 C 
ATOM     11  O   UNL     1      29.294  31.533  16.654  1.00  0.00    -0.332 OA
ATOM     12  C   UNL     1      26.642  32.612  16.809  1.00  0.00     0.145 C 
ATOM     13  C   UNL     1      27.838  33.492  16.637  1.00  0.00     0.142 C 
BRANCH   9  14
ATOM     14  O   UNL     1      28.482  29.543  16.110  1.00  0.00    -0.357 OA
ATOM     15  H   UNL     1      27.846  29.525  15.331  1.00  0.00     0.214 HD
ENDBRANCH   9  14
BRANCH   9  16
ATOM     16  C   UNL     1      28.084  30.298  18.270  1.00  0.00     0.364 C 
ATOM     17  O   UNL     1      28.970  30.604  19.097  1.00  0.00    -0.246 OA
BRANCH  16  18
ATOM     18  O   UNL     1      26.986  29.571  18.691  1.00  0.00    -0.477 OA
ATOM     19  H   UNL     1      26.090  29.750  18.260  1.00  0.00     0.296 HD
ENDBRANCH  16  18
ENDBRANCH   9  16
BRANCH  12  20
ATOM     20  O   UNL     1      25.544  33.116  16.121  1.00  0.00    -0.391 OA
ATOM     21  H   UNL     1      24.776  32.486  16.189  1.00  0.00     0.211 HD
ENDBRANCH  12  20
BRANCH  13  22
ATOM     22  N   UNL     1      28.032  34.374  17.787  1.00  0.00    -0.348 N 
ATOM     23  C   UNL     1      28.550  35.669  17.669  1.00  0.00     0.217 C 
ATOM     24  H   UNL     1      27.766  33.991  18.714  1.00  0.00     0.163 HD
ATOM     25  C   UNL     1      28.713  36.495  18.893  1.00  0.00     0.114 C 
ATOM     26  O   UNL     1      28.875  36.132  16.528  1.00  0.00    -0.275 OA
ENDBRANCH  13  22
ENDBRANCH   7   8
BRANCH   7  27
ATOM     27  O   UNL     1      28.882  34.157  14.279  1.00  0.00    -0.388 OA
ATOM     28  H   UNL     1      29.435  34.939  14.446  1.00  0.00     0.211 HD
ENDBRANCH   7  27
ENDBRANCH   6   7
BRANCH   6  29
ATOM     29  O   UNL     1      31.536  31.876  15.006  1.00  0.00    -0.388 OA
ATOM     30  H   UNL     1      32.375  31.975  15.515  1.00  0.00     0.211 HD
ENDBRANCH   6  29
ENDBRANCH   5   6
ENDBRANCH   1   5
BRANCH   2  31
ATOM     31  O   UNL     1      32.113  36.954  12.717  1.00  0.00    -0.443 OA
BRANCH  31  32
ATOM     32  C   UNL     1      31.090  37.880  13.021  1.00  0.00     0.294 C 
BRANCH  32  33
ATOM     33  C   UNL     1      29.819  37.570  12.321  1.00  0.00     0.120 A 
ATOM     34  C   UNL     1      29.103  38.406  11.463  1.00  0.00     0.138 A 
ATOM     35  N   UNL     1      29.091  36.439  12.360  1.00  0.00    -0.132 NA
ATOM     36  N   UNL     1      27.998  37.782  11.019  1.00  0.00    -0.251 N 
ATOM     37  N   UNL     1      28.033  36.572  11.599  1.00  0.00    -0.067 NA
BRANCH  36  38
ATOM     38  C   UNL     1      26.971  38.267  10.122  1.00  0.00     0.161 C 
BRANCH  38  39
ATOM     39  C   UNL     1      27.501  38.645   8.779  1.00  0.00     0.108 C 
BRANCH  39  40
ATOM     40  N   UNL     1      27.988  37.539   7.993  1.00  0.00    -0.301 NA
ATOM     41  C   UNL     1      26.881  37.033   7.199  1.00  0.00     0.084 C 
ATOM     42  C   UNL     1      29.001  37.949   7.041  1.00  0.00     0.084 C 
ATOM     43  C   UNL     1      27.389  36.772   5.818  1.00  0.00     0.017 C 
ATOM     44  C   UNL     1      28.891  36.859   5.993  1.00  0.00     0.017 C 
ENDBRANCH  39  40
ENDBRANCH  38  39
ENDBRANCH  36  38
ENDBRANCH  32  33
ENDBRANCH  31  32
ENDBRANCH   2  31
TORSDOF 17
BEGIN_RES LYS A 131
REMARK  4 active torsions:
REMARK  status: ('A' for Active; 'I' for Inactive)
REMARK    1  A    between atoms: CA   and  CB  
REMARK    2  A    between atoms: CB   and  CG  
REMARK    3  A    between atoms: CG   and  CD  
REMARK    4  A    between atoms: CD   and  CE  
ROOT
ATOM      1  CA  LYS A 131      29.867  25.555  16.977  1.00 20.52     0.186 C 
ENDROOT
BRANCH   1   2
ATOM      2  CB  LYS A 131      28.345  25.722  17.026  1.00 20.94     0.034 C 
BRANCH   2   3
ATOM      3  CG  LYS A 131      27.603  24.396  16.969  1.00 22.96     0.005 C 
BRANCH   3   4
ATOM      4  CD  LYS A 131      26.244  24.479  17.607  1.00 24.33     0.041 C 
BRANCH   4   5
ATOM      5  CE  LYS A 131      25.535  23.135  17.472  1.00 26.91     0.338 C 
ATOM      6  NZ  LYS A 131      24.453  23.017  18.478  1.00 27.40     0.618 N 
ENDBRANCH   4   5
ENDBRANCH   3   4
ENDBRANCH   2   3
ENDBRANCH   1   2
END_RES LYS A 131
BEGIN_RES LYS A 135
REMARK  4 active torsions:
REMARK  status: ('A' for Active; 'I' for Inactive)
REMARK    5  A    between atoms: CA   and  CB  
REMARK    6  A    between atoms: CB   and  CG  
REMARK    7  A    between atoms: CG   and  CD  
REMARK    8  A    between atoms: CD   and  CE  
ROOT
ATOM      7  CA  LYS A 135      33.193  34.663   9.290  1.00 25.02     0.186 C 
ENDROOT
BRANCH   7   8
ATOM      8  CB  LYS A 135      32.060  35.360  10.034  1.00 26.63     0.034 C 
BRANCH   8   9
ATOM      9  CG  LYS A 135      30.790  35.470   9.231  1.00 29.45     0.005 C 
BRANCH   9  10
ATOM     10  CD  LYS A 135      30.163  34.099   9.029  1.00 32.00     0.041 C 
BRANCH  10  11
ATOM     11  CE  LYS A 135      28.700  34.233   8.650  1.00 34.25     0.338 C 
ATOM     12  NZ  LYS A 135      27.819  33.637   9.692  1.00 35.99     0.618 N 
ENDBRANCH  10  11
ENDBRANCH   9  10
ENDBRANCH   8   9
ENDBRANCH   7   8
END_RES LYS A 135
