REMARK VINA RESULT:    -4.689      0.000      0.000
REMARK INTER + INTRA:         -14.526
REMARK INTER:                 -10.258
REMARK INTRA:                  -4.269
REMARK UNBOUND:                -6.136
REMARK SMILES CC(=O)N[C@@H]1[C@@H](O)C[C@](O)(C(=O)O)O[C@H]1C(O)[C@H](O)CNC(=O)OCc1cn(Cc2ccsc2)nn1
REMARK SMILES IDX 21 1 22 2 23 3 20 5 18 6 16 7 15 8 9 9 8 10 14 11 6 12 5 13
REMARK SMILES IDX 10 14 11 16 12 17 13 18 7 20 4 22 2 23 1 25 3 26 17 27 19 29
REMARK SMILES IDX 24 31 25 32 26 33 27 34 36 35 28 36 35 37 29 38 30 39 31 40
REMARK SMILES IDX 34 41 32 42 33 43
REMARK H PARENT 21 4 10 15 13 19 7 21 4 24 17 28 19 30
REMARK Flexibility Score: inf
ROOT
ATOM      1  N   UNL     1      26.137  36.469  11.105  1.00  0.00    -0.319 N 
ATOM      2  C   UNL     1      27.245  37.305  11.371  1.00  0.00     0.407 C 
ATOM      3  O   UNL     1      27.174  38.522  11.084  1.00  0.00    -0.225 OA
ATOM      4  H   UNL     1      26.254  35.442  11.374  1.00  0.00     0.167 HD
ENDROOT
BRANCH   1   5
ATOM      5  C   UNL     1      24.896  36.913  10.509  1.00  0.00     0.154 C 
BRANCH   5   6
ATOM      6  C   UNL     1      24.771  36.319   9.144  1.00  0.00     0.165 C 
BRANCH   6   7
ATOM      7  C   UNL     1      25.346  37.180   8.040  1.00  0.00     0.176 C 
BRANCH   7   8
ATOM      8  C   UNL     1      26.596  36.546   7.529  1.00  0.00     0.178 C 
ATOM      9  C   UNL     1      28.674  35.736   8.138  1.00  0.00     0.269 C 
ATOM     10  C   UNL     1      28.829  35.556   6.647  1.00  0.00     0.112 C 
ATOM     11  O   UNL     1      27.365  35.962   8.516  1.00  0.00    -0.332 OA
ATOM     12  C   UNL     1      28.346  36.728   5.859  1.00  0.00     0.145 C 
ATOM     13  C   UNL     1      27.436  37.559   6.738  1.00  0.00     0.142 C 
BRANCH   9  14
ATOM     14  O   UNL     1      29.561  36.688   8.643  1.00  0.00    -0.357 OA
ATOM     15  H   UNL     1      29.068  37.353   9.175  1.00  0.00     0.214 HD
ENDBRANCH   9  14
BRANCH   9  16
ATOM     16  C   UNL     1      29.073  34.421   8.758  1.00  0.00     0.364 C 
ATOM     17  O   UNL     1      30.225  33.970   8.705  1.00  0.00    -0.246 OA
BRANCH  16  18
ATOM     18  O   UNL     1      28.105  33.671   9.424  1.00  0.00    -0.477 OA
ATOM     19  H   UNL     1      27.874  32.718   9.172  1.00  0.00     0.296 HD
ENDBRANCH  16  18
ENDBRANCH   9  16
BRANCH  12  20
ATOM     20  O   UNL     1      29.352  37.472   5.282  1.00  0.00    -0.391 OA
ATOM     21  H   UNL     1      30.243  37.006   5.343  1.00  0.00     0.211 HD
ENDBRANCH  12  20
BRANCH  13  22
ATOM     22  N   UNL     1      26.573  38.429   5.982  1.00  0.00    -0.348 N 
ATOM     23  C   UNL     1      26.955  39.781   5.703  1.00  0.00     0.217 C 
ATOM     24  H   UNL     1      25.649  38.114   5.614  1.00  0.00     0.163 HD
ATOM     25  C   UNL     1      26.134  40.726   4.943  1.00  0.00     0.114 C 
ATOM     26  O   UNL     1      28.082  40.187   6.143  1.00  0.00    -0.275 OA
ENDBRANCH  13  22
ENDBRANCH   7   8
BRANCH   7  27
ATOM     27  O   UNL     1      25.638  38.417   8.619  1.00  0.00    -0.388 OA
ATOM     28  H   UNL     1      26.260  38.916   8.034  1.00  0.00     0.211 HD
ENDBRANCH   7  27
ENDBRANCH   6   7
BRANCH   6  29
ATOM     29  O   UNL     1      23.400  36.188   8.868  1.00  0.00    -0.388 OA
ATOM     30  H   UNL     1      23.205  36.185   7.906  1.00  0.00     0.211 HD
ENDBRANCH   6  29
ENDBRANCH   5   6
ENDBRANCH   1   5
BRANCH   2  31
ATOM     31  O   UNL     1      28.406  36.757  11.954  1.00  0.00    -0.443 OA
BRANCH  31  32
ATOM     32  C   UNL     1      28.254  35.448  12.485  1.00  0.00     0.294 C 
BRANCH  32  33
ATOM     33  C   UNL     1      29.290  35.248  13.508  1.00  0.00     0.120 A 
ATOM     34  C   UNL     1      30.012  34.095  13.775  1.00  0.00     0.138 A 
ATOM     35  N   UNL     1      29.726  36.177  14.385  1.00  0.00    -0.132 NA
ATOM     36  N   UNL     1      30.836  34.391  14.789  1.00  0.00    -0.248 N 
ATOM     37  N   UNL     1      30.669  35.645  15.161  1.00  0.00    -0.067 NA
BRANCH  36  38
ATOM     38  C   UNL     1      31.768  33.477  15.387  1.00  0.00     0.182 C 
BRANCH  38  39
ATOM     39  C   UNL     1      31.136  32.774  16.588  1.00  0.00    -0.016 A 
ATOM     40  C   UNL     1      30.524  31.601  16.474  1.00  0.00     0.017 A 
ATOM     41  C   UNL     1      31.216  33.397  17.813  1.00  0.00     0.070 A 
ATOM     42  C   UNL     1      29.972  31.008  17.577  1.00  0.00     0.065 A 
ATOM     43  S   UNL     1      30.343  32.197  18.883  1.00  0.00    -0.152 S 
ENDBRANCH  38  39
ENDBRANCH  36  38
ENDBRANCH  32  33
ENDBRANCH  31  32
ENDBRANCH   2  31
TORSDOF 16
BEGIN_RES LYS A 131
REMARK  4 active torsions:
REMARK  status: ('A' for Active; 'I' for Inactive)
REMARK    1  A    between atoms: CA   and  CB  
REMARK    2  A    between atoms: CB   and  CG  
REMARK    3  A    between atoms: CG   and  CD  
REMARK    4  A    between atoms: CD   and  CE  
ROOT
ATOM      1  CA  LYS A 131      29.867  25.555  16.977  1.00 20.52     0.186 C 
ENDROOT
BRANCH   1   2
ATOM      2  CB  LYS A 131      28.345  25.722  17.026  1.00 20.94     0.034 C 
BRANCH   2   3
ATOM      3  CG  LYS A 131      27.600  24.412  16.821  1.00 22.96     0.005 C 
BRANCH   3   4
ATOM      4  CD  LYS A 131      26.663  24.109  17.958  1.00 24.33     0.041 C 
BRANCH   4   5
ATOM      5  CE  LYS A 131      25.765  22.936  17.579  1.00 26.91     0.338 C 
ATOM      6  NZ  LYS A 131      24.428  23.420  17.162  1.00 27.40     0.618 N 
ENDBRANCH   4   5
ENDBRANCH   3   4
ENDBRANCH   2   3
ENDBRANCH   1   2
END_RES LYS A 131
BEGIN_RES LYS A 135
REMARK  4 active torsions:
REMARK  status: ('A' for Active; 'I' for Inactive)
REMARK    5  A    between atoms: CA   and  CB  
REMARK    6  A    between atoms: CB   and  CG  
REMARK    7  A    between atoms: CG   and  CD  
REMARK    8  A    between atoms: CD   and  CE  
ROOT
ATOM      7  CA  LYS A 135      33.193  34.663   9.290  1.00 25.02     0.186 C 
ENDROOT
BRANCH   7   8
ATOM      8  CB  LYS A 135      32.060  35.360  10.034  1.00 26.63     0.034 C 
BRANCH   8   9
ATOM      9  CG  LYS A 135      32.401  35.710  11.459  1.00 29.45     0.005 C 
BRANCH   9  10
ATOM     10  CD  LYS A 135      31.955  37.128  11.785  1.00 32.00     0.041 C 
BRANCH  10  11
ATOM     11  CE  LYS A 135      31.995  37.997  10.543  1.00 34.25     0.338 C 
ATOM     12  NZ  LYS A 135      31.093  39.174  10.683  1.00 35.99     0.618 N 
ENDBRANCH  10  11
ENDBRANCH   9  10
ENDBRANCH   8   9
ENDBRANCH   7   8
END_RES LYS A 135
