REMARK VINA RESULT:    -5.529      2.475      4.770
REMARK INTER + INTRA:         -14.642
REMARK INTER:                  -7.843
REMARK INTRA:                  -6.799
REMARK UNBOUND:                -4.749
REMARK SMILES CC(=O)N[C@@H]1[C@@H](O)C[C@](O)(C(=O)O)O[C@H]1C(O)[C@H](O)CNC(=O)OCc1cn(-c2ccc([N+](=O)[O-])cc2)nn1
REMARK SMILES IDX 21 1 22 2 23 3 20 5 18 6 16 7 15 8 9 9 8 10 14 11 6 12 5 13
REMARK SMILES IDX 10 14 11 16 12 17 13 18 7 20 4 22 2 23 1 25 3 26 17 27 19 29
REMARK SMILES IDX 24 31 25 32 26 33 27 34 39 35 28 36 38 37 29 38 30 39 37 40
REMARK SMILES IDX 31 41 36 42 32 43 33 44 34 45 35 46
REMARK H PARENT 21 4 10 15 13 19 7 21 4 24 17 28 19 30
REMARK Flexibility Score: inf
ROOT
ATOM      1  N   UNL     1      25.342  29.778  19.445  1.00  0.00    -0.319 N 
ATOM      2  C   UNL     1      24.806  29.415  18.196  1.00  0.00     0.407 C 
ATOM      3  O   UNL     1      24.372  28.277  17.944  1.00  0.00    -0.225 OA
ATOM      4  H   UNL     1      25.658  30.804  19.544  1.00  0.00     0.167 HD
ENDROOT
BRANCH   1   5
ATOM      5  C   UNL     1      25.492  28.909  20.545  1.00  0.00     0.154 C 
BRANCH   5   6
ATOM      6  C   UNL     1      26.602  27.936  20.586  1.00  0.00     0.165 C 
BRANCH   6   7
ATOM      7  C   UNL     1      27.928  28.223  20.052  1.00  0.00     0.176 C 
BRANCH   7   8
ATOM      8  C   UNL     1      28.418  29.627  20.420  1.00  0.00     0.178 C 
ATOM      9  C   UNL     1      28.882  31.643  19.355  1.00  0.00     0.269 C 
ATOM     10  C   UNL     1      29.269  32.060  20.755  1.00  0.00     0.112 C 
ATOM     11  O   UNL     1      28.187  30.456  19.302  1.00  0.00    -0.332 OA
ATOM     12  C   UNL     1      30.094  31.031  21.461  1.00  0.00     0.145 C 
ATOM     13  C   UNL     1      29.871  29.699  20.721  1.00  0.00     0.142 C 
BRANCH   9  14
ATOM     14  O   UNL     1      30.037  31.633  18.592  1.00  0.00    -0.357 OA
ATOM     15  H   UNL     1      30.471  32.507  18.657  1.00  0.00     0.214 HD
ENDBRANCH   9  14
BRANCH   9  16
ATOM     16  C   UNL     1      27.983  32.704  18.830  1.00  0.00     0.364 C 
ATOM     17  O   UNL     1      26.734  32.558  18.850  1.00  0.00    -0.246 OA
BRANCH  16  18
ATOM     18  O   UNL     1      28.495  33.879  18.306  1.00  0.00    -0.477 OA
ATOM     19  H   UNL     1      28.676  34.701  18.887  1.00  0.00     0.296 HD
ENDBRANCH  16  18
ENDBRANCH   9  16
BRANCH  12  20
ATOM     20  O   UNL     1      31.434  31.334  21.550  1.00  0.00    -0.391 OA
ATOM     21  H   UNL     1      31.922  30.768  20.901  1.00  0.00     0.211 HD
ENDBRANCH  12  20
BRANCH  13  22
ATOM     22  N   UNL     1      30.365  28.679  21.621  1.00  0.00    -0.348 N 
ATOM     23  C   UNL     1      31.651  28.079  21.407  1.00  0.00     0.217 C 
ATOM     24  H   UNL     1      29.829  28.341  22.443  1.00  0.00     0.163 HD
ATOM     25  C   UNL     1      32.219  27.033  22.285  1.00  0.00     0.114 C 
ATOM     26  O   UNL     1      32.311  28.474  20.423  1.00  0.00    -0.275 OA
ENDBRANCH  13  22
ENDBRANCH   7   8
BRANCH   7  27
ATOM     27  O   UNL     1      27.995  28.012  18.699  1.00  0.00    -0.388 OA
ATOM     28  H   UNL     1      28.377  28.740  18.161  1.00  0.00     0.211 HD
ENDBRANCH   7  27
ENDBRANCH   6   7
BRANCH   6  29
ATOM     29  O   UNL     1      26.051  26.723  20.080  1.00  0.00    -0.388 OA
ATOM     30  H   UNL     1      25.402  26.926  19.358  1.00  0.00     0.211 HD
ENDBRANCH   6  29
ENDBRANCH   5   6
ENDBRANCH   1   5
BRANCH   2  31
ATOM     31  O   UNL     1      24.769  30.410  17.194  1.00  0.00    -0.443 OA
BRANCH  31  32
ATOM     32  C   UNL     1      25.285  30.042  15.931  1.00  0.00     0.294 C 
BRANCH  32  33
ATOM     33  C   UNL     1      26.756  30.343  15.869  1.00  0.00     0.121 A 
ATOM     34  C   UNL     1      27.355  31.524  15.492  1.00  0.00     0.144 A 
ATOM     35  N   UNL     1      27.788  29.516  16.170  1.00  0.00    -0.131 NA
ATOM     36  N   UNL     1      28.703  31.403  15.566  1.00  0.00    -0.220 N 
ATOM     37  N   UNL     1      28.908  30.171  15.981  1.00  0.00    -0.062 NA
BRANCH  36  38
ATOM     38  C   UNL     1      29.671  32.402  15.257  1.00  0.00     0.067 A 
ATOM     39  C   UNL     1      31.011  32.237  15.538  1.00  0.00     0.035 A 
ATOM     40  C   UNL     1      29.303  33.591  14.655  1.00  0.00     0.035 A 
ATOM     41  C   UNL     1      31.932  33.218  15.229  1.00  0.00     0.088 A 
ATOM     42  C   UNL     1      30.224  34.573  14.346  1.00  0.00     0.088 A 
ATOM     43  C   UNL     1      31.564  34.411  14.625  1.00  0.00     0.269 A 
BRANCH  43  44
ATOM     44  N   UNL     1      32.501  35.420  14.305  1.00  0.00     0.062 N 
ATOM     45  O   UNL     1      33.394  35.163  13.480  1.00  0.00    -0.258 OA
ATOM     46  O   UNL     1      32.484  36.673  14.849  1.00  0.00    -0.258 OA
ENDBRANCH  43  44
ENDBRANCH  36  38
ENDBRANCH  32  33
ENDBRANCH  31  32
ENDBRANCH   2  31
TORSDOF 16
BEGIN_RES LYS A 131
REMARK  4 active torsions:
REMARK  status: ('A' for Active; 'I' for Inactive)
REMARK    1  A    between atoms: CA   and  CB  
REMARK    2  A    between atoms: CB   and  CG  
REMARK    3  A    between atoms: CG   and  CD  
REMARK    4  A    between atoms: CD   and  CE  
ROOT
ATOM      1  CA  LYS A 131      29.867  25.555  16.977  1.00 20.52     0.186 C 
ENDROOT
BRANCH   1   2
ATOM      2  CB  LYS A 131      28.345  25.722  17.026  1.00 20.94     0.034 C 
BRANCH   2   3
ATOM      3  CG  LYS A 131      27.601  24.402  16.893  1.00 22.96     0.005 C 
BRANCH   3   4
ATOM      4  CD  LYS A 131      26.145  24.535  17.241  1.00 24.33     0.041 C 
BRANCH   4   5
ATOM      5  CE  LYS A 131      25.574  23.161  17.575  1.00 26.91     0.338 C 
ATOM      6  NZ  LYS A 131      24.168  23.057  17.116  1.00 27.40     0.618 N 
ENDBRANCH   4   5
ENDBRANCH   3   4
ENDBRANCH   2   3
ENDBRANCH   1   2
END_RES LYS A 131
BEGIN_RES LYS A 135
REMARK  4 active torsions:
REMARK  status: ('A' for Active; 'I' for Inactive)
REMARK    5  A    between atoms: CA   and  CB  
REMARK    6  A    between atoms: CB   and  CG  
REMARK    7  A    between atoms: CG   and  CD  
REMARK    8  A    between atoms: CD   and  CE  
ROOT
ATOM      7  CA  LYS A 135      33.193  34.663   9.290  1.00 25.02     0.186 C 
ENDROOT
BRANCH   7   8
ATOM      8  CB  LYS A 135      32.060  35.360  10.034  1.00 26.63     0.034 C 
BRANCH   8   9
ATOM      9  CG  LYS A 135      30.708  34.741   9.789  1.00 29.45     0.005 C 
BRANCH   9  10
ATOM     10  CD  LYS A 135      30.481  34.519   8.302  1.00 32.00     0.041 C 
BRANCH  10  11
ATOM     11  CE  LYS A 135      29.066  34.902   7.915  1.00 34.25     0.338 C 
ATOM     12  NZ  LYS A 135      28.580  36.050   8.729  1.00 35.99     0.618 N 
ENDBRANCH  10  11
ENDBRANCH   9  10
ENDBRANCH   8   9
ENDBRANCH   7   8
END_RES LYS A 135
