REMARK VINA RESULT:    -3.160      5.385      9.619
REMARK INTER + INTRA:         -13.318
REMARK INTER:                  -8.831
REMARK INTRA:                  -4.486
REMARK UNBOUND:                -7.572
REMARK SMILES CC(=O)N[C@@H]1[C@@H](O)C[C@](O)(C(=O)O)O[C@H]1C(O)[C@H](O)CNC(=O)OCc1cn(CCO)nn1
REMARK SMILES IDX 21 1 22 2 23 3 20 5 18 6 16 7 15 8 9 9 8 10 14 11 6 12 5 13
REMARK SMILES IDX 10 14 11 16 12 17 13 18 7 20 4 22 2 23 1 25 3 26 17 27 19 29
REMARK SMILES IDX 24 31 25 32 26 33 27 34 33 35 28 36 32 37 29 38 30 39 31 40
REMARK H PARENT 21 4 10 15 13 19 7 21 4 24 17 28 19 30 31 41
REMARK Flexibility Score: inf
ROOT
ATOM      1  N   UNL     1      29.876  34.399  14.548  1.00  0.00    -0.319 N 
ATOM      2  C   UNL     1      29.646  34.532  13.174  1.00  0.00     0.407 C 
ATOM      3  O   UNL     1      30.592  34.636  12.398  1.00  0.00    -0.225 OA
ATOM      4  H   UNL     1      28.984  34.318  15.142  1.00  0.00     0.167 HD
ENDROOT
BRANCH   1   5
ATOM      5  C   UNL     1      31.094  34.357  15.261  1.00  0.00     0.154 C 
BRANCH   5   6
ATOM      6  C   UNL     1      31.118  33.605  16.555  1.00  0.00     0.165 C 
BRANCH   6   7
ATOM      7  C   UNL     1      30.875  32.138  16.368  1.00  0.00     0.176 C 
BRANCH   7   8
ATOM      8  C   UNL     1      29.533  31.598  16.625  1.00  0.00     0.178 C 
ATOM      9  C   UNL     1      27.259  31.949  16.489  1.00  0.00     0.269 C 
ATOM     10  C   UNL     1      27.235  30.438  16.584  1.00  0.00     0.112 C 
ATOM     11  O   UNL     1      28.534  32.471  16.272  1.00  0.00    -0.332 OA
ATOM     12  C   UNL     1      28.117  29.967  17.733  1.00  0.00     0.145 C 
ATOM     13  C   UNL     1      29.241  30.998  17.957  1.00  0.00     0.142 C 
BRANCH   9  14
ATOM     14  O   UNL     1      26.793  32.521  17.669  1.00  0.00    -0.357 OA
ATOM     15  H   UNL     1      26.374  33.400  17.529  1.00  0.00     0.214 HD
ENDBRANCH   9  14
BRANCH   9  16
ATOM     16  C   UNL     1      26.422  32.427  15.365  1.00  0.00     0.364 C 
ATOM     17  O   UNL     1      25.473  31.755  14.887  1.00  0.00    -0.246 OA
BRANCH  16  18
ATOM     18  O   UNL     1      26.688  33.664  14.807  1.00  0.00    -0.477 OA
ATOM     19  H   UNL     1      26.677  33.774  13.782  1.00  0.00     0.296 HD
ENDBRANCH  16  18
ENDBRANCH   9  16
BRANCH  12  20
ATOM     20  O   UNL     1      27.341  29.833  18.876  1.00  0.00    -0.391 OA
ATOM     21  H   UNL     1      26.964  28.914  18.862  1.00  0.00     0.211 HD
ENDBRANCH  12  20
BRANCH  13  22
ATOM     22  N   UNL     1      30.366  30.322  18.571  1.00  0.00    -0.348 N 
ATOM     23  C   UNL     1      30.510  30.382  19.981  1.00  0.00     0.217 C 
ATOM     24  H   UNL     1      31.072  29.792  18.004  1.00  0.00     0.163 HD
ATOM     25  C   UNL     1      31.633  29.721  20.698  1.00  0.00     0.114 C 
ATOM     26  O   UNL     1      29.667  31.013  20.659  1.00  0.00    -0.275 OA
ENDBRANCH  13  22
ENDBRANCH   7   8
BRANCH   7  27
ATOM     27  O   UNL     1      31.231  31.920  14.985  1.00  0.00    -0.388 OA
ATOM     28  H   UNL     1      31.924  31.238  14.954  1.00  0.00     0.211 HD
ENDBRANCH   7  27
ENDBRANCH   6   7
BRANCH   6  29
ATOM     29  O   UNL     1      30.322  34.177  17.490  1.00  0.00    -0.388 OA
ATOM     30  H   UNL     1      29.359  34.061  17.369  1.00  0.00     0.211 HD
ENDBRANCH   6  29
ENDBRANCH   5   6
ENDBRANCH   1   5
BRANCH   2  31
ATOM     31  O   UNL     1      28.356  34.551  12.649  1.00  0.00    -0.443 OA
BRANCH  31  32
ATOM     32  C   UNL     1      27.775  35.734  12.143  1.00  0.00     0.294 C 
BRANCH  32  33
ATOM     33  C   UNL     1      27.447  35.550  10.709  1.00  0.00     0.120 A 
ATOM     34  C   UNL     1      27.075  36.517   9.808  1.00  0.00     0.138 A 
ATOM     35  N   UNL     1      27.460  34.401  10.049  1.00  0.00    -0.132 NA
ATOM     36  N   UNL     1      26.883  35.880   8.639  1.00  0.00    -0.250 N 
ATOM     37  N   UNL     1      27.115  34.586   8.778  1.00  0.00    -0.067 NA
BRANCH  36  38
ATOM     38  C   UNL     1      26.477  36.536   7.412  1.00  0.00     0.174 C 
BRANCH  38  39
ATOM     39  C   UNL     1      27.578  36.346   6.372  1.00  0.00     0.179 C 
BRANCH  39  40
ATOM     40  O   UNL     1      27.210  37.037   5.199  1.00  0.00    -0.394 OA
ATOM     41  H   UNL     1      27.472  38.004   5.280  1.00  0.00     0.210 HD
ENDBRANCH  39  40
ENDBRANCH  38  39
ENDBRANCH  36  38
ENDBRANCH  32  33
ENDBRANCH  31  32
ENDBRANCH   2  31
TORSDOF 17
BEGIN_RES LYS A 131
REMARK  4 active torsions:
REMARK  status: ('A' for Active; 'I' for Inactive)
REMARK    1  A    between atoms: CA   and  CB  
REMARK    2  A    between atoms: CB   and  CG  
REMARK    3  A    between atoms: CG   and  CD  
REMARK    4  A    between atoms: CD   and  CE  
ROOT
ATOM      1  CA  LYS A 131      29.867  25.555  16.977  1.00 20.52     0.186 C 
ENDROOT
BRANCH   1   2
ATOM      2  CB  LYS A 131      28.345  25.722  17.026  1.00 20.94     0.034 C 
BRANCH   2   3
ATOM      3  CG  LYS A 131      27.601  24.405  16.870  1.00 22.96     0.005 C 
BRANCH   3   4
ATOM      4  CD  LYS A 131      26.579  24.200  17.954  1.00 24.33     0.041 C 
BRANCH   4   5
ATOM      5  CE  LYS A 131      25.179  24.366  17.372  1.00 26.91     0.338 C 
ATOM      6  NZ  LYS A 131      24.664  25.729  17.644  1.00 27.40     0.618 N 
ENDBRANCH   4   5
ENDBRANCH   3   4
ENDBRANCH   2   3
ENDBRANCH   1   2
END_RES LYS A 131
BEGIN_RES LYS A 135
REMARK  4 active torsions:
REMARK  status: ('A' for Active; 'I' for Inactive)
REMARK    5  A    between atoms: CA   and  CB  
REMARK    6  A    between atoms: CB   and  CG  
REMARK    7  A    between atoms: CG   and  CD  
REMARK    8  A    between atoms: CD   and  CE  
ROOT
ATOM      7  CA  LYS A 135      33.193  34.663   9.290  1.00 25.02     0.186 C 
ENDROOT
BRANCH   7   8
ATOM      8  CB  LYS A 135      32.060  35.360  10.034  1.00 26.63     0.034 C 
BRANCH   8   9
ATOM      9  CG  LYS A 135      30.814  35.537   9.205  1.00 29.45     0.005 C 
BRANCH   9  10
ATOM     10  CD  LYS A 135      30.483  37.012   9.042  1.00 32.00     0.041 C 
BRANCH  10  11
ATOM     11  CE  LYS A 135      31.162  37.833  10.121  1.00 34.25     0.338 C 
ATOM     12  NZ  LYS A 135      30.168  38.369  11.092  1.00 35.99     0.618 N 
ENDBRANCH  10  11
ENDBRANCH   9  10
ENDBRANCH   8   9
ENDBRANCH   7   8
END_RES LYS A 135
