REMARK VINA RESULT:    -4.895      7.749     13.417
REMARK INTER + INTRA:         -16.265
REMARK INTER:                  -9.823
REMARK INTRA:                  -6.442
REMARK UNBOUND:                -6.934
REMARK SMILES CC(=O)N[C@@H]1[C@@H](O)C[C@](O)(C(=O)O)O[C@H]1C(O)[C@H](O)CNC(=O)OCc1cn(C(C)CC(=O)c2ccccc2)nn1
REMARK SMILES IDX 21 1 22 2 23 3 20 5 18 6 16 7 15 8 9 9 8 10 14 11 6 12 5 13
REMARK SMILES IDX 10 14 11 16 12 17 13 18 7 20 4 22 2 23 1 25 3 26 17 27 19 29
REMARK SMILES IDX 24 31 25 32 26 33 27 34 41 35 28 36 40 37 29 38 30 39 31 40
REMARK SMILES IDX 32 41 33 42 34 43 35 44 39 45 36 46 38 47 37 48
REMARK H PARENT 21 4 10 15 13 19 7 21 4 24 17 28 19 30
REMARK Flexibility Score: inf
ROOT
ATOM      1  N   UNL     1      25.280  36.218   8.992  1.00  0.00    -0.319 N 
ATOM      2  C   UNL     1      25.608  36.455  10.358  1.00  0.00     0.407 C 
ATOM      3  O   UNL     1      25.922  37.607  10.706  1.00  0.00    -0.225 OA
ATOM      4  H   UNL     1      25.020  35.208   8.775  1.00  0.00     0.167 HD
ENDROOT
BRANCH   1   5
ATOM      5  C   UNL     1      25.288  37.233   7.962  1.00  0.00     0.154 C 
BRANCH   5   6
ATOM      6  C   UNL     1      23.974  37.980   7.895  1.00  0.00     0.165 C 
BRANCH   6   7
ATOM      7  C   UNL     1      22.790  37.038   7.879  1.00  0.00     0.176 C 
BRANCH   7   8
ATOM      8  C   UNL     1      21.718  37.424   8.854  1.00  0.00     0.178 C 
ATOM      9  C   UNL     1      21.738  35.772  10.504  1.00  0.00     0.269 C 
ATOM     10  C   UNL     1      20.409  35.219  10.055  1.00  0.00     0.112 C 
ATOM     11  O   UNL     1      21.989  37.063  10.147  1.00  0.00    -0.332 OA
ATOM     12  C   UNL     1      20.110  35.504   8.614  1.00  0.00     0.145 C 
ATOM     13  C   UNL     1      20.341  36.982   8.394  1.00  0.00     0.142 C 
BRANCH   9  14
ATOM     14  O   UNL     1      22.764  34.871  10.140  1.00  0.00    -0.357 OA
ATOM     15  H   UNL     1      22.817  34.108  10.747  1.00  0.00     0.214 HD
ENDBRANCH   9  14
BRANCH   9  16
ATOM     16  C   UNL     1      21.699  35.741  12.012  1.00  0.00     0.364 C 
ATOM     17  O   UNL     1      21.565  34.702  12.672  1.00  0.00    -0.246 OA
BRANCH  16  18
ATOM     18  O   UNL     1      21.831  36.997  12.629  1.00  0.00    -0.477 OA
ATOM     19  H   UNL     1      22.026  37.070  13.615  1.00  0.00     0.296 HD
ENDBRANCH  16  18
ENDBRANCH   9  16
BRANCH  12  20
ATOM     20  O   UNL     1      20.828  34.715   7.746  1.00  0.00    -0.391 OA
ATOM     21  H   UNL     1      21.688  35.148   7.531  1.00  0.00     0.211 HD
ENDBRANCH  12  20
BRANCH  13  22
ATOM     22  N   UNL     1      19.389  37.663   9.286  1.00  0.00    -0.348 N 
ATOM     23  C   UNL     1      18.211  38.235   8.730  1.00  0.00     0.217 C 
ATOM     24  H   UNL     1      19.548  37.741  10.308  1.00  0.00     0.163 HD
ATOM     25  C   UNL     1      17.260  38.918   9.644  1.00  0.00     0.114 C 
ATOM     26  O   UNL     1      18.018  38.143   7.498  1.00  0.00    -0.275 OA
ENDBRANCH  13  22
ENDBRANCH   7   8
BRANCH   7  27
ATOM     27  O   UNL     1      22.304  37.026   6.569  1.00  0.00    -0.388 OA
ATOM     28  H   UNL     1      22.975  36.569   5.980  1.00  0.00     0.211 HD
ENDBRANCH   7  27
ENDBRANCH   6   7
BRANCH   6  29
ATOM     29  O   UNL     1      23.970  38.784   6.736  1.00  0.00    -0.388 OA
ATOM     30  H   UNL     1      23.216  39.425   6.736  1.00  0.00     0.211 HD
ENDBRANCH   6  29
ENDBRANCH   5   6
ENDBRANCH   1   5
BRANCH   2  31
ATOM     31  O   UNL     1      25.590  35.461  11.311  1.00  0.00    -0.443 OA
BRANCH  31  32
ATOM     32  C   UNL     1      25.409  35.654  12.696  1.00  0.00     0.294 C 
BRANCH  32  33
ATOM     33  C   UNL     1      25.459  34.427  13.495  1.00  0.00     0.120 A 
ATOM     34  C   UNL     1      24.775  33.237  13.213  1.00  0.00     0.138 A 
ATOM     35  N   UNL     1      26.147  34.171  14.638  1.00  0.00    -0.132 NA
ATOM     36  N   UNL     1      25.067  32.358  14.151  1.00  0.00    -0.249 N 
ATOM     37  N   UNL     1      25.883  32.927  14.990  1.00  0.00    -0.067 NA
BRANCH  36  38
ATOM     38  C   UNL     1      24.539  30.958  14.213  1.00  0.00     0.114 C 
ATOM     39  C   UNL     1      23.510  31.001  15.312  1.00  0.00     0.034 C 
BRANCH  38  40
ATOM     40  C   UNL     1      23.973  30.665  12.903  1.00  0.00     0.108 C 
BRANCH  40  41
ATOM     41  C   UNL     1      22.924  29.705  12.758  1.00  0.00     0.164 C 
ATOM     42  O   UNL     1      23.343  28.457  12.988  1.00  0.00    -0.294 OA
BRANCH  41  43
ATOM     43  C   UNL     1      21.537  29.783  12.422  1.00  0.00     0.018 A 
ATOM     44  C   UNL     1      20.902  31.049  12.464  1.00  0.00     0.012 A 
ATOM     45  C   UNL     1      20.748  28.728  12.035  1.00  0.00     0.012 A 
ATOM     46  C   UNL     1      19.578  31.198  12.138  1.00  0.00     0.001 A 
ATOM     47  C   UNL     1      19.411  28.916  11.712  1.00  0.00     0.001 A 
ATOM     48  C   UNL     1      18.806  30.129  11.755  1.00  0.00     0.000 A 
ENDBRANCH  41  43
ENDBRANCH  40  41
ENDBRANCH  38  40
ENDBRANCH  36  38
ENDBRANCH  32  33
ENDBRANCH  31  32
ENDBRANCH   2  31
TORSDOF 18
BEGIN_RES LYS A 131
REMARK  4 active torsions:
REMARK  status: ('A' for Active; 'I' for Inactive)
REMARK    1  A    between atoms: CA   and  CB  
REMARK    2  A    between atoms: CB   and  CG  
REMARK    3  A    between atoms: CG   and  CD  
REMARK    4  A    between atoms: CD   and  CE  
ROOT
ATOM      1  CA  LYS A 131      29.867  25.555  16.977  1.00 20.52     0.186 C 
ENDROOT
BRANCH   1   2
ATOM      2  CB  LYS A 131      28.345  25.722  17.026  1.00 20.94     0.034 C 
BRANCH   2   3
ATOM      3  CG  LYS A 131      27.601  24.403  16.886  1.00 22.96     0.005 C 
BRANCH   3   4
ATOM      4  CD  LYS A 131      26.643  24.169  18.021  1.00 24.33     0.041 C 
BRANCH   4   5
ATOM      5  CE  LYS A 131      25.536  23.223  17.566  1.00 26.91     0.338 C 
ATOM      6  NZ  LYS A 131      24.451  23.978  16.896  1.00 27.40     0.618 N 
ENDBRANCH   4   5
ENDBRANCH   3   4
ENDBRANCH   2   3
ENDBRANCH   1   2
END_RES LYS A 131
BEGIN_RES LYS A 135
REMARK  4 active torsions:
REMARK  status: ('A' for Active; 'I' for Inactive)
REMARK    5  A    between atoms: CA   and  CB  
REMARK    6  A    between atoms: CB   and  CG  
REMARK    7  A    between atoms: CG   and  CD  
REMARK    8  A    between atoms: CD   and  CE  
ROOT
ATOM      7  CA  LYS A 135      33.193  34.663   9.290  1.00 25.02     0.186 C 
ENDROOT
BRANCH   7   8
ATOM      8  CB  LYS A 135      32.060  35.360  10.034  1.00 26.63     0.034 C 
BRANCH   8   9
ATOM      9  CG  LYS A 135      30.811  35.528   9.208  1.00 29.45     0.005 C 
BRANCH   9  10
ATOM     10  CD  LYS A 135      30.148  34.183   8.958  1.00 32.00     0.041 C 
BRANCH  10  11
ATOM     11  CE  LYS A 135      28.672  34.364   8.655  1.00 34.25     0.338 C 
ATOM     12  NZ  LYS A 135      27.829  33.610   9.624  1.00 35.99     0.618 N 
ENDBRANCH  10  11
ENDBRANCH   9  10
ENDBRANCH   8   9
ENDBRANCH   7   8
END_RES LYS A 135
