REMARK VINA RESULT:    -5.387      1.836      3.464
REMARK INTER + INTRA:         -15.693
REMARK INTER:                 -10.583
REMARK INTRA:                  -5.110
REMARK UNBOUND:                -5.110
REMARK SMILES CC(=O)N[C@@H]1[C@@H](O)C[C@](O)(C(=O)O)O[C@H]1C(O)[C@H](O)CNC(=O)OCc1cn([C@@H](C)C(=O)OCc2ccccc2)nn1
REMARK SMILES IDX 24 1 22 2 21 3 23 5 20 6 18 7 16 8 15 9 9 10 8 11 14 12 6 13
REMARK SMILES IDX 5 14 10 15 11 17 12 18 13 19 7 21 4 23 2 24 1 26 3 27 17 28
REMARK SMILES IDX 19 30 25 32 26 33 27 34 42 35 28 36 41 37 29 38 30 39 31 40
REMARK SMILES IDX 32 41 33 42 34 43 35 44 36 45 40 46 37 47 39 48 38 49
REMARK H PARENT 21 4 10 16 13 20 7 22 4 25 17 29 19 31
REMARK Flexibility Score: inf
ROOT
ATOM      1  O   UNL     1      26.698  36.836  12.341  1.00  0.00    -0.443 OA
ENDROOT
BRANCH   1   2
ATOM      2  C   UNL     1      25.797  35.847  11.885  1.00  0.00     0.407 C 
ATOM      3  N   UNL     1      24.701  36.200  11.069  1.00  0.00    -0.319 N 
ATOM      4  H   UNL     1      24.610  37.242  10.851  1.00  0.00     0.167 HD
ATOM      5  O   UNL     1      26.046  34.683  12.251  1.00  0.00    -0.225 OA
BRANCH   3   6
ATOM      6  C   UNL     1      23.761  35.254  10.558  1.00  0.00     0.154 C 
BRANCH   6   7
ATOM      7  C   UNL     1      23.443  35.493   9.120  1.00  0.00     0.165 C 
BRANCH   7   8
ATOM      8  C   UNL     1      23.629  36.970   8.782  1.00  0.00     0.176 C 
BRANCH   8   9
ATOM      9  C   UNL     1      22.473  37.563   8.038  1.00  0.00     0.178 C 
ATOM     10  C   UNL     1      23.056  39.822   8.247  1.00  0.00     0.269 C 
ATOM     11  C   UNL     1      22.036  39.958   9.332  1.00  0.00     0.112 C 
ATOM     12  O   UNL     1      22.844  38.760   7.402  1.00  0.00    -0.332 OA
ATOM     13  C   UNL     1      20.794  39.186   8.938  1.00  0.00     0.145 C 
ATOM     14  C   UNL     1      21.210  37.728   8.818  1.00  0.00     0.142 C 
BRANCH  10  15
ATOM     15  O   UNL     1      24.323  39.797   8.781  1.00  0.00    -0.357 OA
ATOM     16  H   UNL     1      25.032  40.015   8.114  1.00  0.00     0.214 HD
ENDBRANCH  10  15
BRANCH  10  17
ATOM     17  C   UNL     1      22.970  41.051   7.376  1.00  0.00     0.364 C 
ATOM     18  O   UNL     1      23.940  41.847   7.293  1.00  0.00    -0.246 OA
BRANCH  17  19
ATOM     19  O   UNL     1      21.834  41.351   6.638  1.00  0.00    -0.477 OA
ATOM     20  H   UNL     1      21.298  40.621   6.144  1.00  0.00     0.296 HD
ENDBRANCH  17  19
ENDBRANCH  10  17
BRANCH  13  21
ATOM     21  O   UNL     1      19.790  39.362   9.869  1.00  0.00    -0.391 OA
ATOM     22  H   UNL     1      20.103  39.257  10.803  1.00  0.00     0.211 HD
ENDBRANCH  13  21
BRANCH  14  23
ATOM     23  N   UNL     1      20.094  36.956   8.263  1.00  0.00    -0.348 N 
ATOM     24  C   UNL     1      19.213  36.185   9.078  1.00  0.00     0.217 C 
ATOM     25  H   UNL     1      19.906  36.946   7.227  1.00  0.00     0.163 HD
ATOM     26  C   UNL     1      18.092  35.418   8.454  1.00  0.00     0.114 C 
ATOM     27  O   UNL     1      19.384  36.156  10.319  1.00  0.00    -0.275 OA
ENDBRANCH  14  23
ENDBRANCH   8   9
BRANCH   8  28
ATOM     28  O   UNL     1      24.778  37.107   7.992  1.00  0.00    -0.388 OA
ATOM     29  H   UNL     1      25.559  37.274   8.586  1.00  0.00     0.211 HD
ENDBRANCH   8  28
ENDBRANCH   7   8
BRANCH   7  30
ATOM     30  O   UNL     1      22.124  35.120   8.861  1.00  0.00    -0.388 OA
ATOM     31  H   UNL     1      22.067  34.297   8.294  1.00  0.00     0.211 HD
ENDBRANCH   7  30
ENDBRANCH   6   7
ENDBRANCH   3   6
ENDBRANCH   1   2
BRANCH   1  32
ATOM     32  C   UNL     1      27.968  36.929  11.729  1.00  0.00     0.294 C 
BRANCH  32  33
ATOM     33  C   UNL     1      27.916  37.666  10.452  1.00  0.00     0.120 A 
ATOM     34  C   UNL     1      28.940  37.964   9.584  1.00  0.00     0.139 A 
ATOM     35  N   UNL     1      26.810  38.189   9.897  1.00  0.00    -0.132 NA
ATOM     36  N   UNL     1      28.440  38.656   8.533  1.00  0.00    -0.238 N 
ATOM     37  N   UNL     1      27.158  38.776   8.748  1.00  0.00    -0.066 NA
BRANCH  36  38
ATOM     38  C   UNL     1      29.198  39.149   7.414  1.00  0.00     0.215 C 
ATOM     39  C   UNL     1      30.676  38.922   7.644  1.00  0.00     0.046 C 
BRANCH  38  40
ATOM     40  C   UNL     1      28.710  38.521   6.179  1.00  0.00     0.331 C 
ATOM     41  O   UNL     1      28.099  39.225   5.321  1.00  0.00    -0.250 OA
BRANCH  40  42
ATOM     42  O   UNL     1      28.887  37.182   5.904  1.00  0.00    -0.459 OA
BRANCH  42  43
ATOM     43  C   UNL     1      27.926  36.178   5.999  1.00  0.00     0.268 C 
BRANCH  43  44
ATOM     44  C   UNL     1      28.192  35.360   7.215  1.00  0.00    -0.011 A 
ATOM     45  C   UNL     1      29.486  35.079   7.595  1.00  0.00     0.007 A 
ATOM     46  C   UNL     1      27.150  34.888   7.965  1.00  0.00     0.007 A 
ATOM     47  C   UNL     1      29.736  34.328   8.718  1.00  0.00     0.000 A 
ATOM     48  C   UNL     1      27.369  34.139   9.087  1.00  0.00     0.000 A 
ATOM     49  C   UNL     1      28.661  33.860   9.461  1.00  0.00     0.000 A 
ENDBRANCH  43  44
ENDBRANCH  42  43
ENDBRANCH  40  42
ENDBRANCH  38  40
ENDBRANCH  36  38
ENDBRANCH  32  33
ENDBRANCH   1  32
TORSDOF 19
BEGIN_RES LYS A 131
REMARK  4 active torsions:
REMARK  status: ('A' for Active; 'I' for Inactive)
REMARK    1  A    between atoms: CA   and  CB  
REMARK    2  A    between atoms: CB   and  CG  
REMARK    3  A    between atoms: CG   and  CD  
REMARK    4  A    between atoms: CD   and  CE  
ROOT
ATOM      1  CA  LYS A 131      29.867  25.555  16.977  1.00 20.52     0.186 C 
ENDROOT
BRANCH   1   2
ATOM      2  CB  LYS A 131      28.345  25.722  17.026  1.00 20.94     0.034 C 
BRANCH   2   3
ATOM      3  CG  LYS A 131      27.675  24.754  17.989  1.00 22.96     0.005 C 
BRANCH   3   4
ATOM      4  CD  LYS A 131      26.872  23.705  17.270  1.00 24.33     0.041 C 
BRANCH   4   5
ATOM      5  CE  LYS A 131      25.452  23.681  17.827  1.00 26.91     0.338 C 
ATOM      6  NZ  LYS A 131      24.496  24.225  16.834  1.00 27.40     0.618 N 
ENDBRANCH   4   5
ENDBRANCH   3   4
ENDBRANCH   2   3
ENDBRANCH   1   2
END_RES LYS A 131
BEGIN_RES LYS A 135
REMARK  4 active torsions:
REMARK  status: ('A' for Active; 'I' for Inactive)
REMARK    5  A    between atoms: CA   and  CB  
REMARK    6  A    between atoms: CB   and  CG  
REMARK    7  A    between atoms: CG   and  CD  
REMARK    8  A    between atoms: CD   and  CE  
ROOT
ATOM      7  CA  LYS A 135      33.193  34.663   9.290  1.00 25.02     0.186 C 
ENDROOT
BRANCH   7   8
ATOM      8  CB  LYS A 135      32.060  35.360  10.034  1.00 26.63     0.034 C 
BRANCH   8   9
ATOM      9  CG  LYS A 135      32.536  36.349  11.067  1.00 29.45     0.005 C 
BRANCH   9  10
ATOM     10  CD  LYS A 135      31.975  36.005  12.438  1.00 32.00     0.041 C 
BRANCH  10  11
ATOM     11  CE  LYS A 135      33.009  35.268  13.267  1.00 34.25     0.338 C 
ATOM     12  NZ  LYS A 135      32.411  34.737  14.523  1.00 35.99     0.618 N 
ENDBRANCH  10  11
ENDBRANCH   9  10
ENDBRANCH   8   9
ENDBRANCH   7   8
END_RES LYS A 135
