REMARK VINA RESULT:    -5.244      7.705     13.827
REMARK INTER + INTRA:         -16.827
REMARK INTER:                 -11.068
REMARK INTRA:                  -5.759
REMARK UNBOUND:                -5.759
REMARK SMILES CC(=O)N[C@@H]1[C@@H](O)C[C@](O)(C(=O)O)O[C@H]1C(O)[C@H](O)CNC(=O)OCc1cn(CC(=O)NCC(O)Cn2ccnc2[N+](=O)[O-])nn1
REMARK SMILES IDX 25 1 24 2 22 3 21 4 23 6 20 7 18 8 16 9 15 10 9 11 8 12
REMARK SMILES IDX 14 13 6 14 5 15 10 16 11 18 12 19 13 20 7 22 4 24 2 25 1 27
REMARK SMILES IDX 3 28 17 29 19 31 26 33 27 34 46 35 28 36 45 37 29 38 30 39
REMARK SMILES IDX 31 40 32 41 33 43 34 44 35 45 36 47 37 48 38 49 41 50 39 51
REMARK SMILES IDX 40 52 42 53 43 54 44 55
REMARK H PARENT 21 5 10 17 13 21 7 23 4 26 17 30 19 32 32 42 35 46
REMARK Flexibility Score: inf
ROOT
ATOM      1  C   UNL     1      31.302  32.627  15.238  1.00  0.00     0.294 C 
ENDROOT
BRANCH   1   2
ATOM      2  O   UNL     1      31.089  31.511  16.080  1.00  0.00    -0.443 OA
BRANCH   2   3
ATOM      3  C   UNL     1      29.823  31.162  16.517  1.00  0.00     0.407 C 
ATOM      4  N   UNL     1      29.325  31.608  17.789  1.00  0.00    -0.319 N 
ATOM      5  H   UNL     1      29.972  32.195  18.354  1.00  0.00     0.167 HD
ATOM      6  O   UNL     1      29.119  30.448  15.784  1.00  0.00    -0.225 OA
BRANCH   4   7
ATOM      7  C   UNL     1      28.029  31.285  18.279  1.00  0.00     0.154 C 
BRANCH   7   8
ATOM      8  C   UNL     1      27.998  30.825  19.695  1.00  0.00     0.165 C 
BRANCH   8   9
ATOM      9  C   UNL     1      28.892  29.604  19.838  1.00  0.00     0.176 C 
BRANCH   9  10
ATOM     10  C   UNL     1      29.005  29.130  21.251  1.00  0.00     0.178 C 
ATOM     11  C   UNL     1      31.001  27.967  21.552  1.00  0.00     0.269 C 
ATOM     12  C   UNL     1      30.410  26.874  22.430  1.00  0.00     0.112 C 
ATOM     13  O   UNL     1      30.312  29.143  21.664  1.00  0.00    -0.332 OA
ATOM     14  C   UNL     1      28.966  27.217  22.768  1.00  0.00     0.145 C 
ATOM     15  C   UNL     1      28.364  27.802  21.484  1.00  0.00     0.142 C 
BRANCH  11  16
ATOM     16  O   UNL     1      30.919  27.501  20.252  1.00  0.00    -0.357 OA
ATOM     17  H   UNL     1      30.469  26.618  20.223  1.00  0.00     0.214 HD
ENDBRANCH  11  16
BRANCH  11  18
ATOM     18  C   UNL     1      32.435  28.198  21.866  1.00  0.00     0.364 C 
ATOM     19  O   UNL     1      32.999  29.304  21.628  1.00  0.00    -0.246 OA
BRANCH  18  20
ATOM     20  O   UNL     1      33.210  27.204  22.438  1.00  0.00    -0.477 OA
ATOM     21  H   UNL     1      33.150  26.889  23.390  1.00  0.00     0.296 HD
ENDBRANCH  18  20
ENDBRANCH  11  18
BRANCH  14  22
ATOM     22  O   UNL     1      28.329  26.043  23.128  1.00  0.00    -0.391 OA
ATOM     23  H   UNL     1      28.172  25.966  24.096  1.00  0.00     0.211 HD
ENDBRANCH  14  22
BRANCH  15  24
ATOM     24  N   UNL     1      26.920  27.919  21.636  1.00  0.00    -0.348 N 
ATOM     25  C   UNL     1      26.071  27.175  20.792  1.00  0.00     0.217 C 
ATOM     26  H   UNL     1      26.535  28.542  22.349  1.00  0.00     0.163 HD
ATOM     27  C   UNL     1      24.570  27.266  20.915  1.00  0.00     0.114 C 
ATOM     28  O   UNL     1      26.490  26.403  19.897  1.00  0.00    -0.275 OA
ENDBRANCH  15  24
ENDBRANCH   9  10
BRANCH   9  29
ATOM     29  O   UNL     1      28.453  28.564  19.035  1.00  0.00    -0.388 OA
ATOM     30  H   UNL     1      28.332  27.725  19.516  1.00  0.00     0.211 HD
ENDBRANCH   9  29
ENDBRANCH   8   9
BRANCH   8  31
ATOM     31  O   UNL     1      26.736  30.520  20.178  1.00  0.00    -0.388 OA
ATOM     32  H   UNL     1      26.253  31.320  20.519  1.00  0.00     0.211 HD
ENDBRANCH   8  31
ENDBRANCH   7   8
ENDBRANCH   4   7
ENDBRANCH   2   3
ENDBRANCH   1   2
BRANCH   1  33
ATOM     33  C   UNL     1      31.819  33.702  16.120  1.00  0.00     0.120 A 
ATOM     34  C   UNL     1      32.653  34.714  15.698  1.00  0.00     0.138 A 
ATOM     35  N   UNL     1      31.633  33.943  17.426  1.00  0.00    -0.132 NA
ATOM     36  N   UNL     1      32.955  35.540  16.748  1.00  0.00    -0.243 N 
ATOM     37  N   UNL     1      32.320  35.045  17.782  1.00  0.00    -0.067 NA
BRANCH  36  38
ATOM     38  C   UNL     1      33.822  36.687  16.595  1.00  0.00     0.245 C 
BRANCH  38  39
ATOM     39  C   UNL     1      35.163  36.282  17.179  1.00  0.00     0.241 C 
ATOM     40  O   UNL     1      35.218  35.745  18.306  1.00  0.00    -0.273 OA
ATOM     41  N   UNL     1      36.365  36.489  16.497  1.00  0.00    -0.352 N 
ATOM     42  H   UNL     1      36.219  36.942  15.516  1.00  0.00     0.163 HD
BRANCH  41  43
ATOM     43  C   UNL     1      37.698  36.210  16.886  1.00  0.00     0.151 C 
BRANCH  43  44
ATOM     44  C   UNL     1      38.229  34.852  16.798  1.00  0.00     0.168 C 
BRANCH  44  45
ATOM     45  O   UNL     1      37.976  34.081  17.964  1.00  0.00    -0.388 OA
ATOM     46  H   UNL     1      38.798  33.595  18.217  1.00  0.00     0.211 HD
ENDBRANCH  44  45
BRANCH  44  47
ATOM     47  C   UNL     1      38.196  34.081  15.545  1.00  0.00     0.239 C 
BRANCH  47  48
ATOM     48  N   UNL     1      38.938  34.697  14.462  1.00  0.00    -0.227 N 
ATOM     49  C   UNL     1      39.830  35.712  14.592  1.00  0.00     0.204 A 
ATOM     50  C   UNL     1      38.847  34.376  13.158  1.00  0.00     0.434 A 
ATOM     51  C   UNL     1      40.284  36.004  13.319  1.00  0.00     0.245 A 
ATOM     52  N   UNL     1      39.684  35.190  12.447  1.00  0.00    -0.074 NA
BRANCH  50  53
ATOM     53  N   UNL     1      38.053  33.382  12.536  1.00  0.00    -0.047 N 
ATOM     54  O   UNL     1      36.901  33.719  12.132  1.00  0.00    -0.390 OA
ATOM     55  O   UNL     1      38.402  32.090  12.327  1.00  0.00    -0.390 OA
ENDBRANCH  50  53
ENDBRANCH  47  48
ENDBRANCH  44  47
ENDBRANCH  43  44
ENDBRANCH  41  43
ENDBRANCH  38  39
ENDBRANCH  36  38
ENDBRANCH   1  33
TORSDOF 22
BEGIN_RES LYS A 131
REMARK  4 active torsions:
REMARK  status: ('A' for Active; 'I' for Inactive)
REMARK    1  A    between atoms: CA   and  CB  
REMARK    2  A    between atoms: CB   and  CG  
REMARK    3  A    between atoms: CG   and  CD  
REMARK    4  A    between atoms: CD   and  CE  
ROOT
ATOM      1  CA  LYS A 131      29.867  25.555  16.977  1.00 20.52     0.186 C 
ENDROOT
BRANCH   1   2
ATOM      2  CB  LYS A 131      28.345  25.722  17.026  1.00 20.94     0.034 C 
BRANCH   2   3
ATOM      3  CG  LYS A 131      27.601  24.406  16.864  1.00 22.96     0.005 C 
BRANCH   3   4
ATOM      4  CD  LYS A 131      26.139  24.537  17.192  1.00 24.33     0.041 C 
BRANCH   4   5
ATOM      5  CE  LYS A 131      25.596  23.185  17.644  1.00 26.91     0.338 C 
ATOM      6  NZ  LYS A 131      25.478  23.140  19.121  1.00 27.40     0.618 N 
ENDBRANCH   4   5
ENDBRANCH   3   4
ENDBRANCH   2   3
ENDBRANCH   1   2
END_RES LYS A 131
BEGIN_RES LYS A 135
REMARK  4 active torsions:
REMARK  status: ('A' for Active; 'I' for Inactive)
REMARK    5  A    between atoms: CA   and  CB  
REMARK    6  A    between atoms: CB   and  CG  
REMARK    7  A    between atoms: CG   and  CD  
REMARK    8  A    between atoms: CD   and  CE  
ROOT
ATOM      7  CA  LYS A 135      33.193  34.663   9.290  1.00 25.02     0.186 C 
ENDROOT
BRANCH   7   8
ATOM      8  CB  LYS A 135      32.060  35.360  10.034  1.00 26.63     0.034 C 
BRANCH   8   9
ATOM      9  CG  LYS A 135      30.708  34.742   9.789  1.00 29.45     0.005 C 
BRANCH   9  10
ATOM     10  CD  LYS A 135      30.482  34.518   8.301  1.00 32.00     0.041 C 
BRANCH  10  11
ATOM     11  CE  LYS A 135      29.062  34.886   7.917  1.00 34.25     0.338 C 
ATOM     12  NZ  LYS A 135      28.637  36.150   8.580  1.00 35.99     0.618 N 
ENDBRANCH  10  11
ENDBRANCH   9  10
ENDBRANCH   8   9
ENDBRANCH   7   8
END_RES LYS A 135
