REMARK VINA RESULT:    -9.277      2.872      6.390
REMARK INTER + INTRA:         -13.671
REMARK INTER:                  -8.042
REMARK INTRA:                  -5.629
REMARK UNBOUND:                 4.555
REMARK SMILES CC(=O)N[C@@H]1[C@@H](O)C[C@](O)(C(=O)O)O[C@H]1C(O)[C@H](O)CNC(=O)OCc1cn(C2CCc3ccccc3NC2=O)nn1
REMARK SMILES IDX 24 1 22 2 21 3 23 5 20 6 18 7 16 8 15 9 9 10 8 11 14 12 6 13
REMARK SMILES IDX 5 14 10 15 11 17 12 18 13 19 7 21 4 23 2 24 1 26 3 27 17 28
REMARK SMILES IDX 19 30 25 32 26 33 27 34 42 35 28 36 41 37 29 38 39 40 38 41
REMARK SMILES IDX 40 42 37 44 32 45 36 46 33 47 35 48 34 49 31 50 30 51
REMARK H PARENT 21 4 10 16 13 20 7 22 4 25 17 29 19 31 38 43
REMARK Flexibility Score: 80.00
ROOT
ATOM      1  O   UNL     1      23.919  33.777  14.059  1.00  0.00    -0.443 OA
ENDROOT
BRANCH   1   2
ATOM      2  C   UNL     1      24.703  33.934  15.177  1.00  0.00     0.407 C 
ATOM      3  N   UNL     1      25.664  32.929  15.528  1.00  0.00    -0.319 N 
ATOM      4  H   UNL     1      25.719  32.101  14.889  1.00  0.00     0.167 HD
ATOM      5  O   UNL     1      24.613  34.942  15.922  1.00  0.00    -0.225 OA
BRANCH   3   6
ATOM      6  C   UNL     1      26.510  33.054  16.701  1.00  0.00     0.154 C 
BRANCH   6   7
ATOM      7  C   UNL     1      27.927  33.297  16.240  1.00  0.00     0.165 C 
BRANCH   7   8
ATOM      8  C   UNL     1      28.478  34.619  16.731  1.00  0.00     0.176 C 
BRANCH   8   9
ATOM      9  C   UNL     1      29.955  34.766  16.334  1.00  0.00     0.178 C 
ATOM     10  C   UNL     1      31.133  34.833  14.306  1.00  0.00     0.269 C 
ATOM     11  C   UNL     1      32.243  34.157  15.049  1.00  0.00     0.112 C 
ATOM     12  O   UNL     1      29.992  35.060  15.026  1.00  0.00    -0.332 OA
ATOM     13  C   UNL     1      31.614  32.971  15.762  1.00  0.00     0.145 C 
ATOM     14  C   UNL     1      30.643  33.517  16.778  1.00  0.00     0.142 C 
BRANCH  10  15
ATOM     15  O   UNL     1      30.752  33.996  13.237  1.00  0.00    -0.357 OA
ATOM     16  H   UNL     1      29.764  34.073  13.190  1.00  0.00     0.214 HD
ENDBRANCH  10  15
BRANCH  10  17
ATOM     17  C   UNL     1      31.557  36.125  13.709  1.00  0.00     0.364 C 
ATOM     18  O   UNL     1      32.590  36.165  13.008  1.00  0.00    -0.246 OA
BRANCH  17  19
ATOM     19  O   UNL     1      30.840  37.303  13.902  1.00  0.00    -0.477 OA
ATOM     20  H   UNL     1      30.228  37.593  13.126  1.00  0.00     0.296 HD
ENDBRANCH  17  19
ENDBRANCH  10  17
BRANCH  13  21
ATOM     21  O   UNL     1      30.906  32.247  14.809  1.00  0.00    -0.391 OA
ATOM     22  H   UNL     1      31.123  31.293  14.938  1.00  0.00     0.211 HD
ENDBRANCH  13  21
BRANCH  14  23
ATOM     23  N   UNL     1      31.411  33.832  17.969  1.00  0.00    -0.348 N 
ATOM     24  C   UNL     1      31.165  33.247  19.239  1.00  0.00     0.217 C 
ATOM     25  H   UNL     1      32.205  34.539  17.890  1.00  0.00     0.163 HD
ATOM     26  C   UNL     1      32.018  33.650  20.382  1.00  0.00     0.114 C 
ATOM     27  O   UNL     1      30.230  32.410  19.342  1.00  0.00    -0.275 OA
ENDBRANCH  14  23
ENDBRANCH   8   9
BRANCH   8  28
ATOM     28  O   UNL     1      28.413  34.579  18.128  1.00  0.00    -0.388 OA
ATOM     29  H   UNL     1      28.626  35.437  18.553  1.00  0.00     0.211 HD
ENDBRANCH   8  28
ENDBRANCH   7   8
BRANCH   7  30
ATOM     30  O   UNL     1      28.032  33.203  14.858  1.00  0.00    -0.388 OA
ATOM     31  H   UNL     1      28.850  33.615  14.510  1.00  0.00     0.211 HD
ENDBRANCH   7  30
ENDBRANCH   6   7
ENDBRANCH   3   6
ENDBRANCH   1   2
BRANCH   1  32
ATOM     32  C   UNL     1      23.605  34.866  13.208  1.00  0.00     0.294 C 
BRANCH  32  33
ATOM     33  C   UNL     1      24.761  35.229  12.350  1.00  0.00     0.120 A 
ATOM     34  C   UNL     1      25.126  36.541  12.029  1.00  0.00     0.139 A 
ATOM     35  N   UNL     1      25.662  34.452  11.723  1.00  0.00    -0.132 NA
ATOM     36  N   UNL     1      26.209  36.508  11.235  1.00  0.00    -0.240 N 
ATOM     37  N   UNL     1      26.503  35.237  11.073  1.00  0.00    -0.066 NA
BRANCH  36  38
ATOM     38  C   UNL     1      26.904  37.643  10.666  1.00  0.00     0.198 CG0
ATOM     39  G   UNL     1      26.844  37.549   9.176  1.00  0.00     0.000 G0
BRANCH  38  40
ATOM     40  C   UNL     1      28.298  37.739  11.181  1.00  0.00     0.249 C 
ATOM     41  N   UNL     1      29.537  37.963  10.535  1.00  0.00    -0.324 N 
ATOM     42  O   UNL     1      28.355  37.588  12.427  1.00  0.00    -0.272 OA
ATOM     43  H   UNL     1      30.419  37.740  11.043  1.00  0.00     0.170 HD
BRANCH  41  44
ATOM     44  C   UNL     1      29.747  38.481   9.208  1.00  0.00     0.044 A 
ATOM     45  C   UNL     1      28.780  38.890   8.309  1.00  0.00    -0.024 A 
ATOM     46  C   UNL     1      31.095  38.533   8.912  1.00  0.00     0.026 A 
ATOM     47  C   UNL     1      29.181  39.356   7.095  1.00  0.00     0.006 A 
ATOM     48  C   UNL     1      31.498  39.006   7.682  1.00  0.00     0.002 A 
ATOM     49  C   UNL     1      30.534  39.412   6.787  1.00  0.00     0.000 A 
BRANCH  45  50
ATOM     50  C   UNL     1      27.307  38.879   8.520  1.00  0.00     0.040 C 
BRANCH  50  51
ATOM     51  C   UNL     1      26.824  37.585   9.152  1.00  0.00     0.042 CG0
ATOM     52  G   UNL     1      26.892  37.622  10.645  1.00  0.00     0.000 G0
ENDBRANCH  50  51
ENDBRANCH  45  50
ENDBRANCH  41  44
ENDBRANCH  38  40
ENDBRANCH  36  38
ENDBRANCH  32  33
ENDBRANCH   1  32
TORSDOF 15
BEGIN_RES LYS A 131
REMARK  4 active torsions:
REMARK  status: ('A' for Active; 'I' for Inactive)
REMARK    1  A    between atoms: CA   and  CB  
REMARK    2  A    between atoms: CB   and  CG  
REMARK    3  A    between atoms: CG   and  CD  
REMARK    4  A    between atoms: CD   and  CE  
ROOT
ATOM      1  CA  LYS A 131      29.867  25.555  16.977  1.00 20.52     0.186 C 
ENDROOT
BRANCH   1   2
ATOM      2  CB  LYS A 131      28.345  25.722  17.026  1.00 20.94     0.034 C 
BRANCH   2   3
ATOM      3  CG  LYS A 131      27.600  24.416  16.796  1.00 22.96     0.005 C 
BRANCH   3   4
ATOM      4  CD  LYS A 131      26.191  24.469  17.319  1.00 24.33     0.041 C 
BRANCH   4   5
ATOM      5  CE  LYS A 131      26.023  23.444  18.435  1.00 26.91     0.338 C 
ATOM      6  NZ  LYS A 131      25.407  24.072  19.628  1.00 27.40     0.618 N 
ENDBRANCH   4   5
ENDBRANCH   3   4
ENDBRANCH   2   3
ENDBRANCH   1   2
END_RES LYS A 131
BEGIN_RES LYS A 135
REMARK  4 active torsions:
REMARK  status: ('A' for Active; 'I' for Inactive)
REMARK    5  A    between atoms: CA   and  CB  
REMARK    6  A    between atoms: CB   and  CG  
REMARK    7  A    between atoms: CG   and  CD  
REMARK    8  A    between atoms: CD   and  CE  
ROOT
ATOM      7  CA  LYS A 135      33.193  34.663   9.290  1.00 25.02     0.186 C 
ENDROOT
BRANCH   7   8
ATOM      8  CB  LYS A 135      32.060  35.360  10.034  1.00 26.63     0.034 C 
BRANCH   8   9
ATOM      9  CG  LYS A 135      30.706  34.749   9.780  1.00 29.45     0.005 C 
BRANCH   9  10
ATOM     10  CD  LYS A 135      30.433  34.651   8.287  1.00 32.00     0.041 C 
BRANCH  10  11
ATOM     11  CE  LYS A 135      28.978  34.957   7.991  1.00 34.25     0.338 C 
ATOM     12  NZ  LYS A 135      28.825  35.601   6.656  1.00 35.99     0.618 N 
ENDBRANCH  10  11
ENDBRANCH   9  10
ENDBRANCH   8   9
ENDBRANCH   7   8
END_RES LYS A 135
