REMARK VINA RESULT:    -5.892      8.787     13.709
REMARK INTER + INTRA:         -14.683
REMARK INTER:                  -9.151
REMARK INTRA:                  -5.532
REMARK UNBOUND:                -4.485
REMARK SMILES CC(=O)N[C@@H]1[C@@H](O)C[C@](O)(C(=O)O)O[C@H]1C(O)[C@H](O)CNC(=O)OCc1cn(-c2ccccc2)nn1
REMARK SMILES IDX 20 1 18 2 16 3 15 4 9 5 8 6 14 7 6 8 5 9 10 10 11 12 12 13
REMARK SMILES IDX 13 14 7 16 4 18 2 19 1 21 3 22 17 23 19 25 21 27 22 28 23 30
REMARK SMILES IDX 24 31 25 32 26 33 27 34 36 35 28 36 35 37 29 38 30 39 34 40
REMARK SMILES IDX 31 41 33 42 32 43
REMARK H PARENT 10 11 13 15 7 17 4 20 17 24 19 26 21 29
REMARK Flexibility Score: inf
ROOT
ATOM      1  C   UNL     1      25.830  27.512  18.971  1.00  0.00     0.154 C 
ENDROOT
BRANCH   1   2
ATOM      2  C   UNL     1      26.783  27.053  20.056  1.00  0.00     0.165 C 
BRANCH   2   3
ATOM      3  C   UNL     1      27.229  28.199  20.937  1.00  0.00     0.176 C 
BRANCH   3   4
ATOM      4  C   UNL     1      28.508  28.817  20.477  1.00  0.00     0.178 C 
ATOM      5  C   UNL     1      30.280  27.734  21.574  1.00  0.00     0.269 C 
ATOM      6  C   UNL     1      30.408  28.804  22.601  1.00  0.00     0.112 C 
ATOM      7  O   UNL     1      29.583  28.009  20.460  1.00  0.00    -0.332 OA
ATOM      8  C   UNL     1      29.343  29.859  22.549  1.00  0.00     0.145 C 
ATOM      9  C   UNL     1      28.830  30.111  21.166  1.00  0.00     0.142 C 
BRANCH   5  10
ATOM     10  O   UNL     1      29.666  26.637  22.216  1.00  0.00    -0.357 OA
ATOM     11  H   UNL     1      28.764  26.529  21.802  1.00  0.00     0.214 HD
ENDBRANCH   5  10
BRANCH   5  12
ATOM     12  C   UNL     1      31.631  27.252  21.177  1.00  0.00     0.364 C 
ATOM     13  O   UNL     1      32.454  26.797  22.001  1.00  0.00    -0.246 OA
BRANCH  12  14
ATOM     14  O   UNL     1      32.011  27.299  19.853  1.00  0.00    -0.477 OA
ATOM     15  H   UNL     1      32.373  26.510  19.333  1.00  0.00     0.296 HD
ENDBRANCH  12  14
ENDBRANCH   5  12
BRANCH   8  16
ATOM     16  O   UNL     1      28.277  29.514  23.399  1.00  0.00    -0.391 OA
ATOM     17  H   UNL     1      27.797  28.720  23.094  1.00  0.00     0.211 HD
ENDBRANCH   8  16
BRANCH   9  18
ATOM     18  N   UNL     1      29.909  30.748  20.407  1.00  0.00    -0.348 N 
ATOM     19  C   UNL     1      29.655  31.804  19.490  1.00  0.00     0.217 C 
ATOM     20  H   UNL     1      30.899  30.444  20.519  1.00  0.00     0.163 HD
ATOM     21  C   UNL     1      30.736  32.463  18.711  1.00  0.00     0.114 C 
ATOM     22  O   UNL     1      28.481  32.226  19.301  1.00  0.00    -0.275 OA
ENDBRANCH   9  18
ENDBRANCH   3   4
BRANCH   3  23
ATOM     23  O   UNL     1      26.177  29.128  20.893  1.00  0.00    -0.388 OA
ATOM     24  H   UNL     1      25.472  28.739  21.492  1.00  0.00     0.211 HD
ENDBRANCH   3  23
ENDBRANCH   2   3
BRANCH   2  25
ATOM     25  O   UNL     1      27.831  26.316  19.533  1.00  0.00    -0.388 OA
ATOM     26  H   UNL     1      28.612  26.861  19.307  1.00  0.00     0.211 HD
ENDBRANCH   2  25
ENDBRANCH   1   2
BRANCH   1  27
ATOM     27  N   UNL     1      26.483  28.116  17.852  1.00  0.00    -0.319 N 
ATOM     28  C   UNL     1      26.019  29.296  17.211  1.00  0.00     0.407 C 
ATOM     29  H   UNL     1      27.355  27.690  17.459  1.00  0.00     0.167 HD
ATOM     30  O   UNL     1      24.999  29.881  17.596  1.00  0.00    -0.225 OA
BRANCH  28  31
ATOM     31  O   UNL     1      26.693  29.841  16.124  1.00  0.00    -0.443 OA
BRANCH  31  32
ATOM     32  C   UNL     1      28.112  29.830  16.091  1.00  0.00     0.294 C 
BRANCH  32  33
ATOM     33  C   UNL     1      28.558  31.210  15.800  1.00  0.00     0.121 A 
ATOM     34  C   UNL     1      29.773  31.603  15.284  1.00  0.00     0.144 A 
ATOM     35  N   UNL     1      27.831  32.328  15.998  1.00  0.00    -0.131 NA
ATOM     36  N   UNL     1      29.726  32.941  15.193  1.00  0.00    -0.220 N 
ATOM     37  N   UNL     1      28.556  33.364  15.624  1.00  0.00    -0.062 NA
BRANCH  36  38
ATOM     38  C   UNL     1      30.784  33.760  14.706  1.00  0.00     0.066 A 
ATOM     39  C   UNL     1      30.588  34.504  13.556  1.00  0.00     0.028 A 
ATOM     40  C   UNL     1      31.996  33.814  15.368  1.00  0.00     0.028 A 
ATOM     41  C   UNL     1      31.636  35.289  13.110  1.00  0.00     0.002 A 
ATOM     42  C   UNL     1      33.025  34.598  14.911  1.00  0.00     0.002 A 
ATOM     43  C   UNL     1      32.837  35.342  13.767  1.00  0.00     0.000 A 
ENDBRANCH  36  38
ENDBRANCH  32  33
ENDBRANCH  31  32
ENDBRANCH  28  31
ENDBRANCH   1  27
TORSDOF 15
BEGIN_RES LYS A 131
REMARK  4 active torsions:
REMARK  status: ('A' for Active; 'I' for Inactive)
REMARK    1  A    between atoms: CA   and  CB  
REMARK    2  A    between atoms: CB   and  CG  
REMARK    3  A    between atoms: CG   and  CD  
REMARK    4  A    between atoms: CD   and  CE  
ROOT
ATOM      1  CA  LYS A 131      29.867  25.555  16.977  1.00 20.52     0.186 C 
ENDROOT
BRANCH   1   2
ATOM      2  CB  LYS A 131      28.345  25.722  17.026  1.00 20.94     0.034 C 
BRANCH   2   3
ATOM      3  CG  LYS A 131      27.599  24.431  16.724  1.00 22.96     0.005 C 
BRANCH   3   4
ATOM      4  CD  LYS A 131      26.164  24.489  17.171  1.00 24.33     0.041 C 
BRANCH   4   5
ATOM      5  CE  LYS A 131      25.941  23.481  18.294  1.00 26.91     0.338 C 
ATOM      6  NZ  LYS A 131      24.866  22.528  17.929  1.00 27.40     0.618 N 
ENDBRANCH   4   5
ENDBRANCH   3   4
ENDBRANCH   2   3
ENDBRANCH   1   2
END_RES LYS A 131
BEGIN_RES LYS A 135
REMARK  4 active torsions:
REMARK  status: ('A' for Active; 'I' for Inactive)
REMARK    5  A    between atoms: CA   and  CB  
REMARK    6  A    between atoms: CB   and  CG  
REMARK    7  A    between atoms: CG   and  CD  
REMARK    8  A    between atoms: CD   and  CE  
ROOT
ATOM      7  CA  LYS A 135      33.193  34.663   9.290  1.00 25.02     0.186 C 
ENDROOT
BRANCH   7   8
ATOM      8  CB  LYS A 135      32.060  35.360  10.034  1.00 26.63     0.034 C 
BRANCH   8   9
ATOM      9  CG  LYS A 135      30.698  34.796   9.723  1.00 29.45     0.005 C 
BRANCH   9  10
ATOM     10  CD  LYS A 135      30.567  34.498   8.237  1.00 32.00     0.041 C 
BRANCH  10  11
ATOM     11  CE  LYS A 135      29.216  34.952   7.719  1.00 34.25     0.338 C 
ATOM     12  NZ  LYS A 135      28.115  34.474   8.602  1.00 35.99     0.618 N 
ENDBRANCH  10  11
ENDBRANCH   9  10
ENDBRANCH   8   9
ENDBRANCH   7   8
END_RES LYS A 135
