REMARK VINA RESULT:    -4.674      8.572     14.683
REMARK INTER + INTRA:         -14.386
REMARK INTER:                  -6.710
REMARK INTRA:                  -7.676
REMARK UNBOUND:                -5.477
REMARK SMILES CC(=O)N[C@@H]1[C@@H](O)C[C@](O)(C(=O)O)O[C@H]1C(O)[C@H](O)CNC(=O)OCc1cn(CC(O)CO)nn1
REMARK SMILES IDX 21 1 22 2 23 3 20 5 18 6 16 7 15 8 9 9 8 10 14 11 6 12 5 13
REMARK SMILES IDX 10 14 11 16 12 17 13 18 7 20 4 22 2 23 1 25 3 26 17 27 19 29
REMARK SMILES IDX 24 31 25 32 26 33 27 34 35 35 28 36 34 37 29 38 30 39 31 40
REMARK SMILES IDX 32 42 33 43
REMARK H PARENT 21 4 10 15 13 19 7 21 4 24 17 28 19 30 31 41 33 44
REMARK Flexibility Score: inf
ROOT
ATOM      1  N   UNL     1      29.401  41.475   8.712  1.00  0.00    -0.319 N 
ATOM      2  C   UNL     1      30.499  40.760   8.171  1.00  0.00     0.407 C 
ATOM      3  O   UNL     1      31.021  39.815   8.788  1.00  0.00    -0.225 OA
ATOM      4  H   UNL     1      29.026  42.267   8.108  1.00  0.00     0.167 HD
ENDROOT
BRANCH   1   5
ATOM      5  C   UNL     1      28.847  41.147   9.981  1.00  0.00     0.154 C 
BRANCH   5   6
ATOM      6  C   UNL     1      27.391  40.739   9.921  1.00  0.00     0.165 C 
BRANCH   6   7
ATOM      7  C   UNL     1      27.291  39.663   8.847  1.00  0.00     0.176 C 
BRANCH   7   8
ATOM      8  C   UNL     1      26.233  38.625   9.237  1.00  0.00     0.178 C 
ATOM      9  C   UNL     1      26.217  36.699   7.939  1.00  0.00     0.269 C 
ATOM     10  C   UNL     1      24.778  36.410   8.318  1.00  0.00     0.112 C 
ATOM     11  O   UNL     1      26.770  37.394   8.987  1.00  0.00    -0.332 OA
ATOM     12  C   UNL     1      24.057  37.712   8.365  1.00  0.00     0.145 C 
ATOM     13  C   UNL     1      24.944  38.918   8.537  1.00  0.00     0.142 C 
BRANCH   9  14
ATOM     14  O   UNL     1      26.180  37.419   6.746  1.00  0.00    -0.357 OA
ATOM     15  H   UNL     1      25.484  38.115   6.745  1.00  0.00     0.214 HD
ENDBRANCH   9  14
BRANCH   9  16
ATOM     16  C   UNL     1      26.987  35.444   7.741  1.00  0.00     0.364 C 
ATOM     17  O   UNL     1      27.992  35.468   6.986  1.00  0.00    -0.246 OA
BRANCH  16  18
ATOM     18  O   UNL     1      26.597  34.290   8.377  1.00  0.00    -0.477 OA
ATOM     19  H   UNL     1      26.521  34.256   9.389  1.00  0.00     0.296 HD
ENDBRANCH  16  18
ENDBRANCH   9  16
BRANCH  12  20
ATOM     20  O   UNL     1      23.377  37.869   7.151  1.00  0.00    -0.391 OA
ATOM     21  H   UNL     1      22.753  38.615   7.222  1.00  0.00     0.211 HD
ENDBRANCH  12  20
BRANCH  13  22
ATOM     22  N   UNL     1      24.171  39.889   9.282  1.00  0.00    -0.348 N 
ATOM     23  C   UNL     1      23.428  40.873   8.579  1.00  0.00     0.217 C 
ATOM     24  H   UNL     1      24.133  39.901  10.327  1.00  0.00     0.163 HD
ATOM     25  C   UNL     1      22.608  41.907   9.300  1.00  0.00     0.114 C 
ATOM     26  O   UNL     1      23.405  40.946   7.324  1.00  0.00    -0.275 OA
ENDBRANCH  13  22
ENDBRANCH   7   8
BRANCH   7  27
ATOM     27  O   UNL     1      27.031  40.253   7.634  1.00  0.00    -0.388 OA
ATOM     28  H   UNL     1      26.177  40.768   7.651  1.00  0.00     0.211 HD
ENDBRANCH   7  27
ENDBRANCH   6   7
BRANCH   6  29
ATOM     29  O   UNL     1      26.589  41.835   9.606  1.00  0.00    -0.388 OA
ATOM     30  H   UNL     1      26.690  42.004   8.650  1.00  0.00     0.211 HD
ENDBRANCH   6  29
ENDBRANCH   5   6
ENDBRANCH   1   5
BRANCH   2  31
ATOM     31  O   UNL     1      31.032  41.095   6.917  1.00  0.00    -0.443 OA
BRANCH  31  32
ATOM     32  C   UNL     1      31.004  40.128   5.906  1.00  0.00     0.294 C 
BRANCH  32  33
ATOM     33  C   UNL     1      29.638  39.937   5.356  1.00  0.00     0.120 A 
ATOM     34  C   UNL     1      28.927  40.821   4.598  1.00  0.00     0.138 A 
ATOM     35  N   UNL     1      28.865  38.859   5.512  1.00  0.00    -0.132 NA
ATOM     36  N   UNL     1      27.734  40.230   4.321  1.00  0.00    -0.249 N 
ATOM     37  N   UNL     1      27.711  39.031   4.887  1.00  0.00    -0.067 NA
BRANCH  36  38
ATOM     38  C   UNL     1      26.669  40.840   3.528  1.00  0.00     0.180 C 
BRANCH  38  39
ATOM     39  C   UNL     1      25.605  41.277   4.516  1.00  0.00     0.161 C 
BRANCH  39  40
ATOM     40  O   UNL     1      25.421  40.279   5.465  1.00  0.00    -0.389 OA
ATOM     41  H   UNL     1      24.815  40.635   6.169  1.00  0.00     0.211 HD
ENDBRANCH  39  40
BRANCH  39  42
ATOM     42  C   UNL     1      26.033  42.575   5.209  1.00  0.00     0.189 C 
BRANCH  42  43
ATOM     43  O   UNL     1      25.844  42.444   6.586  1.00  0.00    -0.394 OA
ATOM     44  H   UNL     1      26.314  43.196   7.056  1.00  0.00     0.210 HD
ENDBRANCH  42  43
ENDBRANCH  39  42
ENDBRANCH  38  39
ENDBRANCH  36  38
ENDBRANCH  32  33
ENDBRANCH  31  32
ENDBRANCH   2  31
TORSDOF 19
BEGIN_RES LYS A 131
REMARK  4 active torsions:
REMARK  status: ('A' for Active; 'I' for Inactive)
REMARK    1  A    between atoms: CA   and  CB  
REMARK    2  A    between atoms: CB   and  CG  
REMARK    3  A    between atoms: CG   and  CD  
REMARK    4  A    between atoms: CD   and  CE  
ROOT
ATOM      1  CA  LYS A 131      29.867  25.555  16.977  1.00 20.52     0.186 C 
ENDROOT
BRANCH   1   2
ATOM      2  CB  LYS A 131      28.345  25.722  17.026  1.00 20.94     0.034 C 
BRANCH   2   3
ATOM      3  CG  LYS A 131      27.601  24.401  16.904  1.00 22.96     0.005 C 
BRANCH   3   4
ATOM      4  CD  LYS A 131      26.152  24.529  17.284  1.00 24.33     0.041 C 
BRANCH   4   5
ATOM      5  CE  LYS A 131      25.787  23.431  18.277  1.00 26.91     0.338 C 
ATOM      6  NZ  LYS A 131      25.079  22.325  17.590  1.00 27.40     0.618 N 
ENDBRANCH   4   5
ENDBRANCH   3   4
ENDBRANCH   2   3
ENDBRANCH   1   2
END_RES LYS A 131
BEGIN_RES LYS A 135
REMARK  4 active torsions:
REMARK  status: ('A' for Active; 'I' for Inactive)
REMARK    5  A    between atoms: CA   and  CB  
REMARK    6  A    between atoms: CB   and  CG  
REMARK    7  A    between atoms: CG   and  CD  
REMARK    8  A    between atoms: CD   and  CE  
ROOT
ATOM      7  CA  LYS A 135      33.193  34.663   9.290  1.00 25.02     0.186 C 
ENDROOT
BRANCH   7   8
ATOM      8  CB  LYS A 135      32.060  35.360  10.034  1.00 26.63     0.034 C 
BRANCH   8   9
ATOM      9  CG  LYS A 135      30.759  35.374   9.274  1.00 29.45     0.005 C 
BRANCH   9  10
ATOM     10  CD  LYS A 135      29.726  34.495   9.962  1.00 32.00     0.041 C 
BRANCH  10  11
ATOM     11  CE  LYS A 135      28.925  35.301  10.967  1.00 34.25     0.338 C 
ATOM     12  NZ  LYS A 135      29.141  34.798  12.352  1.00 35.99     0.618 N 
ENDBRANCH  10  11
ENDBRANCH   9  10
ENDBRANCH   8   9
ENDBRANCH   7   8
END_RES LYS A 135
