REMARK VINA RESULT:    -4.061      4.095      8.253
REMARK INTER + INTRA:         -15.068
REMARK INTER:                  -8.067
REMARK INTRA:                  -7.001
REMARK UNBOUND:                -7.565
REMARK SMILES CC(=O)N[C@@H]1[C@@H](O)C[C@](O)(C(=O)O)O[C@H]1C(O)[C@H](O)CNC(=O)OCc1cn(CC(=O)Nc2ncccn2)nn1
REMARK SMILES IDX 21 1 22 2 23 3 20 5 18 6 16 7 15 8 9 9 8 10 14 11 6 12 5 13
REMARK SMILES IDX 10 14 11 16 12 17 13 18 7 20 4 22 2 23 1 25 3 26 17 27 19 29
REMARK SMILES IDX 24 31 25 32 26 33 27 34 40 35 28 36 39 37 29 38 30 39 31 40
REMARK SMILES IDX 32 41 33 43 34 44 38 45 35 46 37 47 36 48
REMARK H PARENT 21 4 10 15 13 19 7 21 4 24 17 28 19 30 32 42
REMARK Flexibility Score: inf
ROOT
ATOM      1  N   UNL     1      26.241  30.803  22.297  1.00  0.00    -0.319 N 
ATOM      2  C   UNL     1      25.397  29.669  22.559  1.00  0.00     0.407 C 
ATOM      3  O   UNL     1      25.473  29.043  23.645  1.00  0.00    -0.225 OA
ATOM      4  H   UNL     1      26.162  31.306  21.398  1.00  0.00     0.167 HD
ENDROOT
BRANCH   1   5
ATOM      5  C   UNL     1      27.173  31.192  23.319  1.00  0.00     0.154 C 
BRANCH   5   6
ATOM      6  C   UNL     1      28.611  30.921  22.954  1.00  0.00     0.165 C 
BRANCH   6   7
ATOM      7  C   UNL     1      28.996  29.609  23.593  1.00  0.00     0.176 C 
BRANCH   7   8
ATOM      8  C   UNL     1      30.133  28.932  22.823  1.00  0.00     0.178 C 
ATOM      9  C   UNL     1      31.368  29.060  20.937  1.00  0.00     0.269 C 
ATOM     10  C   UNL     1      31.586  27.592  20.993  1.00  0.00     0.112 C 
ATOM     11  O   UNL     1      30.199  29.423  21.541  1.00  0.00    -0.332 OA
ATOM     12  C   UNL     1      30.457  26.784  21.586  1.00  0.00     0.145 C 
ATOM     13  C   UNL     1      29.848  27.440  22.793  1.00  0.00     0.142 C 
BRANCH   9  14
ATOM     14  O   UNL     1      31.198  29.445  19.564  1.00  0.00    -0.357 OA
ATOM     15  H   UNL     1      31.990  29.126  19.050  1.00  0.00     0.214 HD
ENDBRANCH   9  14
BRANCH   9  16
ATOM     16  C   UNL     1      32.564  29.827  21.391  1.00  0.00     0.364 C 
ATOM     17  O   UNL     1      32.556  31.059  21.416  1.00  0.00    -0.246 OA
BRANCH  16  18
ATOM     18  O   UNL     1      33.734  29.182  21.802  1.00  0.00    -0.477 OA
ATOM     19  H   UNL     1      34.169  29.378  22.686  1.00  0.00     0.296 HD
ENDBRANCH  16  18
ENDBRANCH   9  16
BRANCH  12  20
ATOM     20  O   UNL     1      29.512  26.608  20.572  1.00  0.00    -0.391 OA
ATOM     21  H   UNL     1      29.203  25.660  20.516  1.00  0.00     0.211 HD
ENDBRANCH  12  20
BRANCH  13  22
ATOM     22  N   UNL     1      30.225  26.873  24.041  1.00  0.00    -0.348 N 
ATOM     23  C   UNL     1      29.580  25.775  24.664  1.00  0.00     0.217 C 
ATOM     24  H   UNL     1      31.039  27.278  24.565  1.00  0.00     0.163 HD
ATOM     25  C   UNL     1      30.029  25.232  25.983  1.00  0.00     0.114 C 
ATOM     26  O   UNL     1      28.612  25.265  24.074  1.00  0.00    -0.275 OA
ENDBRANCH  13  22
ENDBRANCH   7   8
BRANCH   7  27
ATOM     27  O   UNL     1      29.330  29.759  24.925  1.00  0.00    -0.388 OA
ATOM     28  H   UNL     1      29.941  29.001  25.179  1.00  0.00     0.211 HD
ENDBRANCH   7  27
ENDBRANCH   6   7
BRANCH   6  29
ATOM     29  O   UNL     1      29.378  31.976  23.445  1.00  0.00    -0.388 OA
ATOM     30  H   UNL     1      29.520  31.806  24.415  1.00  0.00     0.211 HD
ENDBRANCH   6  29
ENDBRANCH   5   6
ENDBRANCH   1   5
BRANCH   2  31
ATOM     31  O   UNL     1      24.480  29.233  21.631  1.00  0.00    -0.443 OA
BRANCH  31  32
ATOM     32  C   UNL     1      24.612  28.118  20.799  1.00  0.00     0.294 C 
BRANCH  32  33
ATOM     33  C   UNL     1      25.745  28.307  19.869  1.00  0.00     0.120 A 
ATOM     34  C   UNL     1      25.718  28.588  18.519  1.00  0.00     0.138 A 
ATOM     35  N   UNL     1      27.039  28.236  20.221  1.00  0.00    -0.132 NA
ATOM     36  N   UNL     1      26.981  28.676  18.108  1.00  0.00    -0.243 N 
ATOM     37  N   UNL     1      27.754  28.459  19.157  1.00  0.00    -0.067 NA
BRANCH  36  38
ATOM     38  C   UNL     1      27.389  28.975  16.731  1.00  0.00     0.246 C 
BRANCH  38  39
ATOM     39  C   UNL     1      28.099  30.288  16.689  1.00  0.00     0.248 C 
ATOM     40  O   UNL     1      27.589  31.347  16.286  1.00  0.00    -0.272 OA
ATOM     41  N   UNL     1      29.457  30.326  17.143  1.00  0.00    -0.293 N 
ATOM     42  H   UNL     1      29.913  29.451  17.487  1.00  0.00     0.173 HD
BRANCH  41  43
ATOM     43  C   UNL     1      30.211  31.523  17.148  1.00  0.00     0.229 A 
ATOM     44  N   UNL     1      30.841  32.008  16.060  1.00  0.00    -0.221 NA
ATOM     45  N   UNL     1      30.326  32.243  18.280  1.00  0.00    -0.221 NA
ATOM     46  C   UNL     1      31.551  33.152  16.094  1.00  0.00     0.117 A 
ATOM     47  C   UNL     1      31.011  33.379  18.378  1.00  0.00     0.117 A 
ATOM     48  C   UNL     1      31.657  33.876  17.264  1.00  0.00     0.040 A 
ENDBRANCH  41  43
ENDBRANCH  38  39
ENDBRANCH  36  38
ENDBRANCH  32  33
ENDBRANCH  31  32
ENDBRANCH   2  31
TORSDOF 17
BEGIN_RES LYS A 131
REMARK  4 active torsions:
REMARK  status: ('A' for Active; 'I' for Inactive)
REMARK    1  A    between atoms: CA   and  CB  
REMARK    2  A    between atoms: CB   and  CG  
REMARK    3  A    between atoms: CG   and  CD  
REMARK    4  A    between atoms: CD   and  CE  
ROOT
ATOM      1  CA  LYS A 131      29.867  25.555  16.977  1.00 20.52     0.186 C 
ENDROOT
BRANCH   1   2
ATOM      2  CB  LYS A 131      28.345  25.722  17.026  1.00 20.94     0.034 C 
BRANCH   2   3
ATOM      3  CG  LYS A 131      27.599  24.451  16.651  1.00 22.96     0.005 C 
BRANCH   3   4
ATOM      4  CD  LYS A 131      26.887  23.844  17.829  1.00 24.33     0.041 C 
BRANCH   4   5
ATOM      5  CE  LYS A 131      26.361  24.954  18.733  1.00 26.91     0.338 C 
ATOM      6  NZ  LYS A 131      25.222  24.465  19.545  1.00 27.40     0.618 N 
ENDBRANCH   4   5
ENDBRANCH   3   4
ENDBRANCH   2   3
ENDBRANCH   1   2
END_RES LYS A 131
BEGIN_RES LYS A 135
REMARK  4 active torsions:
REMARK  status: ('A' for Active; 'I' for Inactive)
REMARK    5  A    between atoms: CA   and  CB  
REMARK    6  A    between atoms: CB   and  CG  
REMARK    7  A    between atoms: CG   and  CD  
REMARK    8  A    between atoms: CD   and  CE  
ROOT
ATOM      7  CA  LYS A 135      33.193  34.663   9.290  1.00 25.02     0.186 C 
ENDROOT
BRANCH   7   8
ATOM      8  CB  LYS A 135      32.060  35.360  10.034  1.00 26.63     0.034 C 
BRANCH   8   9
ATOM      9  CG  LYS A 135      30.719  34.699   9.846  1.00 29.45     0.005 C 
BRANCH   9  10
ATOM     10  CD  LYS A 135      30.253  34.830   8.404  1.00 32.00     0.041 C 
BRANCH  10  11
ATOM     11  CE  LYS A 135      28.777  34.502   8.289  1.00 34.25     0.338 C 
ATOM     12  NZ  LYS A 135      28.277  33.841   9.526  1.00 35.99     0.618 N 
ENDBRANCH  10  11
ENDBRANCH   9  10
ENDBRANCH   8   9
ENDBRANCH   7   8
END_RES LYS A 135
