REMARK VINA RESULT:    -4.203      0.000      0.000
REMARK INTER + INTRA:         -18.153
REMARK INTER:                  -9.838
REMARK INTRA:                  -8.315
REMARK UNBOUND:                -8.298
REMARK SMILES CC(=O)N[C@@H]1[C@@H](O)C[C@](O)(C(=O)O)O[C@H]1C(O)[C@H](O)CNC(=O)OCc1cn(CCCCCCCCCCC(=O)O)nn1
REMARK SMILES IDX 29 1 28 2 26 3 27 4 43 5 42 6 25 7 24 8 22 9 21 10 23 12
REMARK SMILES IDX 20 13 18 14 16 15 15 16 9 17 8 18 14 19 6 20 5 21 10 22
REMARK SMILES IDX 11 24 12 25 13 26 7 28 4 30 2 31 1 33 3 34 17 35 19 37 30 39
REMARK SMILES IDX 31 40 32 41 33 42 34 43 35 44 36 45 37 46 38 47 39 48 40 49
REMARK SMILES IDX 41 50
REMARK H PARENT 21 11 10 23 13 27 7 29 4 32 17 36 19 38 41 51
REMARK Flexibility Score: inf
ROOT
ATOM      1  C   UNL     1      27.540  35.969  13.587  1.00  0.00     0.146 C 
ENDROOT
BRANCH   1   2
ATOM      2  N   UNL     1      26.666  34.895  13.973  1.00  0.00    -0.252 N 
ATOM      3  C   UNL     1      25.195  33.269  14.040  1.00  0.00     0.120 A 
ATOM      4  C   UNL     1      25.792  34.179  13.210  1.00  0.00     0.138 A 
ATOM      5  N   UNL     1      25.712  33.448  15.275  1.00  0.00    -0.132 NA
ATOM      6  N   UNL     1      26.581  34.419  15.199  1.00  0.00    -0.067 NA
BRANCH   3   7
ATOM      7  C   UNL     1      24.173  32.284  13.627  1.00  0.00     0.294 C 
BRANCH   7   8
ATOM      8  O   UNL     1      24.732  30.992  13.541  1.00  0.00    -0.443 OA
BRANCH   8   9
ATOM      9  C   UNL     1      24.719  30.139  14.636  1.00  0.00     0.407 C 
ATOM     10  N   UNL     1      25.736  30.181  15.626  1.00  0.00    -0.319 N 
ATOM     11  H   UNL     1      26.522  30.862  15.547  1.00  0.00     0.167 HD
ATOM     12  O   UNL     1      23.757  29.302  14.736  1.00  0.00    -0.225 OA
BRANCH  10  13
ATOM     13  C   UNL     1      25.684  29.286  16.738  1.00  0.00     0.154 C 
BRANCH  13  14
ATOM     14  C   UNL     1      26.987  29.233  17.507  1.00  0.00     0.165 C 
BRANCH  14  15
ATOM     15  C   UNL     1      27.093  30.417  18.420  1.00  0.00     0.176 C 
BRANCH  15  16
ATOM     16  C   UNL     1      27.875  30.043  19.661  1.00  0.00     0.178 C 
ATOM     17  C   UNL     1      30.043  29.634  20.369  1.00  0.00     0.269 C 
ATOM     18  C   UNL     1      29.347  28.861  21.467  1.00  0.00     0.112 C 
ATOM     19  O   UNL     1      29.195  29.935  19.316  1.00  0.00    -0.332 OA
ATOM     20  C   UNL     1      28.375  27.909  20.829  1.00  0.00     0.145 C 
ATOM     21  C   UNL     1      27.268  28.777  20.213  1.00  0.00     0.142 C 
BRANCH  17  22
ATOM     22  O   UNL     1      31.039  28.802  19.865  1.00  0.00    -0.357 OA
ATOM     23  H   UNL     1      31.795  28.728  20.491  1.00  0.00     0.214 HD
ENDBRANCH  17  22
BRANCH  17  24
ATOM     24  C   UNL     1      30.664  30.812  20.974  1.00  0.00     0.364 C 
ATOM     25  O   UNL     1      31.141  31.705  20.233  1.00  0.00    -0.246 OA
BRANCH  24  26
ATOM     26  O   UNL     1      30.767  31.022  22.343  1.00  0.00    -0.477 OA
ATOM     27  H   UNL     1      31.641  31.427  22.713  1.00  0.00     0.296 HD
ENDBRANCH  24  26
ENDBRANCH  17  24
BRANCH  20  28
ATOM     28  O   UNL     1      28.995  27.118  19.885  1.00  0.00    -0.391 OA
ATOM     29  H   UNL     1      28.380  27.017  19.117  1.00  0.00     0.211 HD
ENDBRANCH  20  28
BRANCH  21  30
ATOM     30  N   UNL     1      26.352  29.063  21.295  1.00  0.00    -0.348 N 
ATOM     31  C   UNL     1      24.969  28.845  21.085  1.00  0.00     0.217 C 
ATOM     32  H   UNL     1      26.681  29.424  22.225  1.00  0.00     0.163 HD
ATOM     33  C   UNL     1      23.989  29.129  22.178  1.00  0.00     0.114 C 
ATOM     34  O   UNL     1      24.563  28.417  19.987  1.00  0.00    -0.275 OA
ENDBRANCH  21  30
ENDBRANCH  15  16
BRANCH  15  35
ATOM     35  O   UNL     1      25.796  30.843  18.725  1.00  0.00    -0.388 OA
ATOM     36  H   UNL     1      25.694  31.810  18.714  1.00  0.00     0.211 HD
ENDBRANCH  15  35
ENDBRANCH  14  15
BRANCH  14  37
ATOM     37  O   UNL     1      28.086  29.249  16.649  1.00  0.00    -0.388 OA
ATOM     38  H   UNL     1      27.944  29.854  15.897  1.00  0.00     0.211 HD
ENDBRANCH  14  37
ENDBRANCH  13  14
ENDBRANCH  10  13
ENDBRANCH   8   9
ENDBRANCH   7   8
ENDBRANCH   3   7
ENDBRANCH   1   2
BRANCH   1  39
ATOM     39  C   UNL     1      28.957  35.598  13.935  1.00  0.00     0.024 C 
BRANCH  39  40
ATOM     40  C   UNL     1      29.521  34.535  13.036  1.00  0.00     0.002 C 
BRANCH  40  41
ATOM     41  C   UNL     1      30.882  34.898  12.497  1.00  0.00     0.000 C 
BRANCH  41  42
ATOM     42  C   UNL     1      31.654  35.690  13.548  1.00  0.00     0.000 C 
BRANCH  42  43
ATOM     43  C   UNL     1      32.818  34.861  14.023  1.00  0.00     0.000 C 
BRANCH  43  44
ATOM     44  C   UNL     1      32.882  34.803  15.522  1.00  0.00     0.000 C 
BRANCH  44  45
ATOM     45  C   UNL     1      31.644  34.181  16.078  1.00  0.00     0.001 C 
BRANCH  45  46
ATOM     46  C   UNL     1      31.488  32.742  15.593  1.00  0.00     0.012 C 
BRANCH  46  47
ATOM     47  C   UNL     1      30.709  31.897  16.565  1.00  0.00     0.122 C 
BRANCH  47  48
ATOM     48  C   UNL     1      29.315  32.441  16.579  1.00  0.00     0.303 C 
ATOM     49  O   UNL     1      28.883  33.200  17.471  1.00  0.00    -0.252 OA
BRANCH  48  50
ATOM     50  O   UNL     1      28.441  32.091  15.549  1.00  0.00    -0.481 OA
ATOM     51  H   UNL     1      27.620  31.555  15.768  1.00  0.00     0.296 HD
ENDBRANCH  48  50
ENDBRANCH  47  48
ENDBRANCH  46  47
ENDBRANCH  45  46
ENDBRANCH  44  45
ENDBRANCH  43  44
ENDBRANCH  42  43
ENDBRANCH  41  42
ENDBRANCH  40  41
ENDBRANCH  39  40
ENDBRANCH   1  39
TORSDOF 26
BEGIN_RES LYS A 131
REMARK  4 active torsions:
REMARK  status: ('A' for Active; 'I' for Inactive)
REMARK    1  A    between atoms: CA   and  CB  
REMARK    2  A    between atoms: CB   and  CG  
REMARK    3  A    between atoms: CG   and  CD  
REMARK    4  A    between atoms: CD   and  CE  
ROOT
ATOM      1  CA  LYS A 131      29.867  25.555  16.977  1.00 20.52     0.186 C 
ENDROOT
BRANCH   1   2
ATOM      2  CB  LYS A 131      28.345  25.722  17.026  1.00 20.94     0.034 C 
BRANCH   2   3
ATOM      3  CG  LYS A 131      27.600  24.414  16.811  1.00 22.96     0.005 C 
BRANCH   3   4
ATOM      4  CD  LYS A 131      26.536  24.190  17.850  1.00 24.33     0.041 C 
BRANCH   4   5
ATOM      5  CE  LYS A 131      26.178  25.520  18.505  1.00 26.91     0.338 C 
ATOM      6  NZ  LYS A 131      25.734  25.307  19.903  1.00 27.40     0.618 N 
ENDBRANCH   4   5
ENDBRANCH   3   4
ENDBRANCH   2   3
ENDBRANCH   1   2
END_RES LYS A 131
BEGIN_RES LYS A 135
REMARK  4 active torsions:
REMARK  status: ('A' for Active; 'I' for Inactive)
REMARK    5  A    between atoms: CA   and  CB  
REMARK    6  A    between atoms: CB   and  CG  
REMARK    7  A    between atoms: CG   and  CD  
REMARK    8  A    between atoms: CD   and  CE  
ROOT
ATOM      7  CA  LYS A 135      33.193  34.663   9.290  1.00 25.02     0.186 C 
ENDROOT
BRANCH   7   8
ATOM      8  CB  LYS A 135      32.060  35.360  10.034  1.00 26.63     0.034 C 
BRANCH   8   9
ATOM      9  CG  LYS A 135      30.854  35.635   9.174  1.00 29.45     0.005 C 
BRANCH   9  10
ATOM     10  CD  LYS A 135      30.216  34.333   8.713  1.00 32.00     0.041 C 
BRANCH  10  11
ATOM     11  CE  LYS A 135      28.709  34.482   8.622  1.00 34.25     0.338 C 
ATOM     12  NZ  LYS A 135      28.026  33.673   9.670  1.00 35.99     0.618 N 
ENDBRANCH  10  11
ENDBRANCH   9  10
ENDBRANCH   8   9
ENDBRANCH   7   8
END_RES LYS A 135
