REMARK VINA RESULT:    -5.318      5.821     12.210
REMARK INTER + INTRA:         -15.101
REMARK INTER:                 -10.084
REMARK INTRA:                  -5.018
REMARK UNBOUND:                -5.276
REMARK SMILES COc1ccc(Cn2cc(COC(=O)NC[C@@H](O)C(O)[C@@H]3O[C@@](O)(C(=O)O)C[C@H](O)[C@H]3NC(C)=O)nn2)cc1
REMARK SMILES IDX 15 1 13 2 14 3 16 5 17 6 19 7 21 8 23 9 28 10 22 11 29 12
REMARK SMILES IDX 31 13 24 14 25 16 26 17 27 18 30 20 32 22 33 23 34 25 35 26
REMARK SMILES IDX 20 27 18 29 12 31 11 32 10 33 9 34 36 35 8 36 37 37 7 38
REMARK SMILES IDX 6 39 5 40 38 41 4 42 39 43 3 44 2 45 1 46
REMARK H PARENT 15 4 24 15 27 19 30 21 32 24 20 28 18 30
REMARK Flexibility Score: inf
ROOT
ATOM      1  N   UNL     1      26.315  35.919  10.246  1.00  0.00    -0.319 N 
ATOM      2  C   UNL     1      27.116  34.888  10.782  1.00  0.00     0.407 C 
ATOM      3  O   UNL     1      27.303  33.790  10.203  1.00  0.00    -0.225 OA
ATOM      4  H   UNL     1      26.225  36.791  10.818  1.00  0.00     0.167 HD
ENDROOT
BRANCH   1   5
ATOM      5  C   UNL     1      25.636  35.844   8.992  1.00  0.00     0.154 C 
BRANCH   5   6
ATOM      6  C   UNL     1      25.751  37.062   8.140  1.00  0.00     0.165 C 
BRANCH   6   7
ATOM      7  C   UNL     1      26.819  38.017   8.625  1.00  0.00     0.176 C 
BRANCH   7   8
ATOM      8  C   UNL     1      27.290  38.984   7.599  1.00  0.00     0.178 C 
ATOM      9  C   UNL     1      27.494  39.358   5.324  1.00  0.00     0.269 C 
ATOM     10  C   UNL     1      28.873  39.932   5.478  1.00  0.00     0.112 C 
ATOM     11  O   UNL     1      27.093  38.508   6.305  1.00  0.00    -0.332 OA
ATOM     12  C   UNL     1      29.207  40.276   6.915  1.00  0.00     0.145 C 
ATOM     13  C   UNL     1      28.810  39.105   7.748  1.00  0.00     0.142 C 
BRANCH   9  14
ATOM     14  O   UNL     1      27.550  38.587   4.134  1.00  0.00    -0.357 OA
ATOM     15  H   UNL     1      27.438  37.650   4.426  1.00  0.00     0.214 HD
ENDBRANCH   9  14
BRANCH   9  16
ATOM     16  C   UNL     1      26.566  40.479   5.044  1.00  0.00     0.364 C 
ATOM     17  O   UNL     1      26.936  41.534   4.449  1.00  0.00    -0.246 OA
BRANCH  16  18
ATOM     18  O   UNL     1      25.225  40.435   5.422  1.00  0.00    -0.477 OA
ATOM     19  H   UNL     1      24.613  41.208   5.242  1.00  0.00     0.296 HD
ENDBRANCH  16  18
ENDBRANCH   9  16
BRANCH  12  20
ATOM     20  O   UNL     1      30.545  40.604   7.019  1.00  0.00    -0.391 OA
ATOM     21  H   UNL     1      30.639  41.562   7.131  1.00  0.00     0.211 HD
ENDBRANCH  12  20
BRANCH  13  22
ATOM     22  N   UNL     1      29.250  39.159   9.105  1.00  0.00    -0.348 N 
ATOM     23  C   UNL     1      30.505  38.741   9.569  1.00  0.00     0.217 C 
ATOM     24  H   UNL     1      28.577  39.549   9.821  1.00  0.00     0.163 HD
ATOM     25  C   UNL     1      30.840  38.851  11.008  1.00  0.00     0.114 C 
ATOM     26  O   UNL     1      31.337  38.280   8.782  1.00  0.00    -0.275 OA
ENDBRANCH  13  22
ENDBRANCH   7   8
BRANCH   7  27
ATOM     27  O   UNL     1      26.369  38.669   9.752  1.00  0.00    -0.388 OA
ATOM     28  H   UNL     1      26.219  39.635   9.652  1.00  0.00     0.211 HD
ENDBRANCH   7  27
ENDBRANCH   6   7
BRANCH   6  29
ATOM     29  O   UNL     1      24.562  37.690   7.914  1.00  0.00    -0.388 OA
ATOM     30  H   UNL     1      24.679  38.661   8.144  1.00  0.00     0.211 HD
ENDBRANCH   6  29
ENDBRANCH   5   6
ENDBRANCH   1   5
BRANCH   2  31
ATOM     31  O   UNL     1      27.746  35.077  12.026  1.00  0.00    -0.443 OA
BRANCH  31  32
ATOM     32  C   UNL     1      28.504  36.249  12.220  1.00  0.00     0.294 C 
BRANCH  32  33
ATOM     33  C   UNL     1      29.597  36.059  13.189  1.00  0.00     0.120 A 
ATOM     34  C   UNL     1      30.314  34.885  13.435  1.00  0.00     0.138 A 
ATOM     35  N   UNL     1      30.121  36.966  14.032  1.00  0.00    -0.132 NA
ATOM     36  N   UNL     1      31.222  35.125  14.391  1.00  0.00    -0.248 N 
ATOM     37  N   UNL     1      31.084  36.391  14.735  1.00  0.00    -0.067 NA
BRANCH  36  38
ATOM     38  C   UNL     1      32.173  34.204  14.956  1.00  0.00     0.181 C 
BRANCH  38  39
ATOM     39  C   UNL     1      31.537  33.300  15.938  1.00  0.00    -0.026 A 
ATOM     40  C   UNL     1      31.083  32.060  15.553  1.00  0.00     0.009 A 
ATOM     41  C   UNL     1      31.399  33.702  17.241  1.00  0.00     0.009 A 
ATOM     42  C   UNL     1      30.485  31.215  16.485  1.00  0.00     0.047 A 
ATOM     43  C   UNL     1      30.803  32.865  18.184  1.00  0.00     0.047 A 
ATOM     44  C   UNL     1      30.351  31.629  17.800  1.00  0.00     0.118 A 
BRANCH  44  45
ATOM     45  O   UNL     1      29.750  30.768  18.720  1.00  0.00    -0.497 OA
ATOM     46  C   UNL     1      28.361  30.502  18.621  1.00  0.00     0.278 C 
ENDBRANCH  44  45
ENDBRANCH  38  39
ENDBRANCH  36  38
ENDBRANCH  32  33
ENDBRANCH  31  32
ENDBRANCH   2  31
TORSDOF 17
BEGIN_RES LYS A 131
REMARK  4 active torsions:
REMARK  status: ('A' for Active; 'I' for Inactive)
REMARK    1  A    between atoms: CA   and  CB  
REMARK    2  A    between atoms: CB   and  CG  
REMARK    3  A    between atoms: CG   and  CD  
REMARK    4  A    between atoms: CD   and  CE  
ROOT
ATOM      1  CA  LYS A 131      29.867  25.555  16.977  1.00 20.52     0.186 C 
ENDROOT
BRANCH   1   2
ATOM      2  CB  LYS A 131      28.345  25.722  17.026  1.00 20.94     0.034 C 
BRANCH   2   3
ATOM      3  CG  LYS A 131      27.601  24.403  16.888  1.00 22.96     0.005 C 
BRANCH   3   4
ATOM      4  CD  LYS A 131      26.647  24.169  18.027  1.00 24.33     0.041 C 
BRANCH   4   5
ATOM      5  CE  LYS A 131      25.566  23.185  17.591  1.00 26.91     0.338 C 
ATOM      6  NZ  LYS A 131      24.463  23.898  16.904  1.00 27.40     0.618 N 
ENDBRANCH   4   5
ENDBRANCH   3   4
ENDBRANCH   2   3
ENDBRANCH   1   2
END_RES LYS A 131
BEGIN_RES LYS A 135
REMARK  4 active torsions:
REMARK  status: ('A' for Active; 'I' for Inactive)
REMARK    5  A    between atoms: CA   and  CB  
REMARK    6  A    between atoms: CB   and  CG  
REMARK    7  A    between atoms: CG   and  CD  
REMARK    8  A    between atoms: CD   and  CE  
ROOT
ATOM      7  CA  LYS A 135      33.193  34.663   9.290  1.00 25.02     0.186 C 
ENDROOT
BRANCH   7   8
ATOM      8  CB  LYS A 135      32.060  35.360  10.034  1.00 26.63     0.034 C 
BRANCH   8   9
ATOM      9  CG  LYS A 135      30.706  34.752   9.776  1.00 29.45     0.005 C 
BRANCH   9  10
ATOM     10  CD  LYS A 135      30.494  34.525   8.287  1.00 32.00     0.041 C 
BRANCH  10  11
ATOM     11  CE  LYS A 135      29.570  35.582   7.714  1.00 34.25     0.338 C 
ATOM     12  NZ  LYS A 135      28.346  34.966   7.131  1.00 35.99     0.618 N 
ENDBRANCH  10  11
ENDBRANCH   9  10
ENDBRANCH   8   9
ENDBRANCH   7   8
END_RES LYS A 135
