REMARK VINA RESULT:    -5.459      2.088      2.956
REMARK INTER + INTRA:         -14.610
REMARK INTER:                  -8.156
REMARK INTRA:                  -6.453
REMARK UNBOUND:                -5.161
REMARK SMILES CC(=O)N[C@@H]1[C@@H](O)C[C@](O)(C(=O)O)O[C@H]1C(O)[C@H](O)CNC(=O)OCc1cn(-c2ccc(Br)cc2)nn1
REMARK SMILES IDX 20 1 18 2 16 3 15 4 9 5 8 6 14 7 6 8 5 9 10 10 11 12 12 13
REMARK SMILES IDX 13 14 7 16 4 18 2 19 1 21 3 22 17 23 19 25 21 27 22 28 23 30
REMARK SMILES IDX 24 31 25 32 26 33 27 34 37 35 28 36 36 37 29 38 30 39 35 40
REMARK SMILES IDX 31 41 34 42 32 43 33 44
REMARK H PARENT 10 11 13 15 7 17 4 20 17 24 19 26 21 29
REMARK Flexibility Score: inf
ROOT
ATOM      1  C   UNL     1      26.073  27.726  19.760  1.00  0.00     0.154 C 
ENDROOT
BRANCH   1   2
ATOM      2  C   UNL     1      27.531  27.729  20.111  1.00  0.00     0.165 C 
BRANCH   2   3
ATOM      3  C   UNL     1      28.320  28.864  19.561  1.00  0.00     0.176 C 
BRANCH   3   4
ATOM      4  C   UNL     1      29.522  29.251  20.398  1.00  0.00     0.178 C 
ATOM      5  C   UNL     1      30.628  28.373  22.272  1.00  0.00     0.269 C 
ATOM      6  C   UNL     1      30.896  29.806  22.643  1.00  0.00     0.112 C 
ATOM      7  O   UNL     1      29.623  28.269  21.376  1.00  0.00    -0.332 OA
ATOM      8  C   UNL     1      29.603  30.573  22.498  1.00  0.00     0.145 C 
ATOM      9  C   UNL     1      29.262  30.603  21.002  1.00  0.00     0.142 C 
BRANCH   5  10
ATOM     10  O   UNL     1      30.212  27.671  23.438  1.00  0.00    -0.357 OA
ATOM     11  H   UNL     1      29.222  27.737  23.431  1.00  0.00     0.214 HD
ENDBRANCH   5  10
BRANCH   5  12
ATOM     12  C   UNL     1      31.849  27.708  21.737  1.00  0.00     0.364 C 
ATOM     13  O   UNL     1      31.836  26.931  20.767  1.00  0.00    -0.246 OA
BRANCH  12  14
ATOM     14  O   UNL     1      33.066  27.962  22.346  1.00  0.00    -0.477 OA
ATOM     15  H   UNL     1      33.961  27.739  21.909  1.00  0.00     0.296 HD
ENDBRANCH  12  14
ENDBRANCH   5  12
BRANCH   8  16
ATOM     16  O   UNL     1      28.601  29.822  23.109  1.00  0.00    -0.391 OA
ATOM     17  H   UNL     1      27.747  29.853  22.636  1.00  0.00     0.211 HD
ENDBRANCH   8  16
BRANCH   9  18
ATOM     18  N   UNL     1      30.165  31.561  20.428  1.00  0.00    -0.348 N 
ATOM     19  C   UNL     1      29.785  32.548  19.487  1.00  0.00     0.217 C 
ATOM     20  H   UNL     1      31.181  31.556  20.704  1.00  0.00     0.163 HD
ATOM     21  C   UNL     1      30.763  33.521  18.915  1.00  0.00     0.114 C 
ATOM     22  O   UNL     1      28.594  32.609  19.121  1.00  0.00    -0.275 OA
ENDBRANCH   9  18
ENDBRANCH   3   4
BRANCH   3  23
ATOM     23  O   UNL     1      27.452  29.976  19.429  1.00  0.00    -0.388 OA
ATOM     24  H   UNL     1      27.940  30.665  18.932  1.00  0.00     0.211 HD
ENDBRANCH   3  23
ENDBRANCH   2   3
BRANCH   2  25
ATOM     25  O   UNL     1      28.082  26.522  19.629  1.00  0.00    -0.388 OA
ATOM     26  H   UNL     1      27.941  25.788  20.276  1.00  0.00     0.211 HD
ENDBRANCH   2  25
ENDBRANCH   1   2
BRANCH   1  27
ATOM     27  N   UNL     1      25.773  27.827  18.370  1.00  0.00    -0.319 N 
ATOM     28  C   UNL     1      24.833  28.818  17.905  1.00  0.00     0.407 C 
ATOM     29  H   UNL     1      26.167  27.235  17.611  1.00  0.00     0.167 HD
ATOM     30  O   UNL     1      24.306  29.567  18.761  1.00  0.00    -0.225 OA
BRANCH  28  31
ATOM     31  O   UNL     1      24.522  28.940  16.559  1.00  0.00    -0.443 OA
BRANCH  31  32
ATOM     32  C   UNL     1      24.767  30.211  15.972  1.00  0.00     0.294 C 
BRANCH  32  33
ATOM     33  C   UNL     1      26.245  30.412  15.982  1.00  0.00     0.121 A 
ATOM     34  C   UNL     1      26.919  31.582  15.689  1.00  0.00     0.144 A 
ATOM     35  N   UNL     1      27.205  29.513  16.273  1.00  0.00    -0.131 NA
ATOM     36  N   UNL     1      28.240  31.364  15.808  1.00  0.00    -0.220 N 
ATOM     37  N   UNL     1      28.368  30.106  16.162  1.00  0.00    -0.062 NA
BRANCH  36  38
ATOM     38  C   UNL     1      29.331  32.259  15.610  1.00  0.00     0.066 A 
ATOM     39  C   UNL     1      29.145  33.607  15.366  1.00  0.00     0.029 A 
ATOM     40  C   UNL     1      30.634  31.808  15.656  1.00  0.00     0.029 A 
ATOM     41  C   UNL     1      30.214  34.464  15.177  1.00  0.00     0.018 A 
ATOM     42  C   UNL     1      31.711  32.665  15.467  1.00  0.00     0.018 A 
ATOM     43  C   UNL     1      31.519  34.005  15.224  1.00  0.00     0.018 A 
ATOM     44  Br  UNL     1      32.954  35.230  14.956  1.00  0.00    -0.051 Br
ENDBRANCH  36  38
ENDBRANCH  32  33
ENDBRANCH  31  32
ENDBRANCH  28  31
ENDBRANCH   1  27
TORSDOF 15
BEGIN_RES LYS A 131
REMARK  4 active torsions:
REMARK  status: ('A' for Active; 'I' for Inactive)
REMARK    1  A    between atoms: CA   and  CB  
REMARK    2  A    between atoms: CB   and  CG  
REMARK    3  A    between atoms: CG   and  CD  
REMARK    4  A    between atoms: CD   and  CE  
ROOT
ATOM      1  CA  LYS A 131      29.867  25.555  16.977  1.00 20.52     0.186 C 
ENDROOT
BRANCH   1   2
ATOM      2  CB  LYS A 131      28.345  25.722  17.026  1.00 20.94     0.034 C 
BRANCH   2   3
ATOM      3  CG  LYS A 131      27.602  24.400  16.909  1.00 22.96     0.005 C 
BRANCH   3   4
ATOM      4  CD  LYS A 131      26.158  24.525  17.312  1.00 24.33     0.041 C 
BRANCH   4   5
ATOM      5  CE  LYS A 131      25.931  23.785  18.626  1.00 26.91     0.338 C 
ATOM      6  NZ  LYS A 131      24.799  22.837  18.499  1.00 27.40     0.618 N 
ENDBRANCH   4   5
ENDBRANCH   3   4
ENDBRANCH   2   3
ENDBRANCH   1   2
END_RES LYS A 131
BEGIN_RES LYS A 135
REMARK  4 active torsions:
REMARK  status: ('A' for Active; 'I' for Inactive)
REMARK    5  A    between atoms: CA   and  CB  
REMARK    6  A    between atoms: CB   and  CG  
REMARK    7  A    between atoms: CG   and  CD  
REMARK    8  A    between atoms: CD   and  CE  
ROOT
ATOM      7  CA  LYS A 135      33.193  34.663   9.290  1.00 25.02     0.186 C 
ENDROOT
BRANCH   7   8
ATOM      8  CB  LYS A 135      32.060  35.360  10.034  1.00 26.63     0.034 C 
BRANCH   8   9
ATOM      9  CG  LYS A 135      30.724  34.682   9.869  1.00 29.45     0.005 C 
BRANCH   9  10
ATOM     10  CD  LYS A 135      30.418  34.450   8.397  1.00 32.00     0.041 C 
BRANCH  10  11
ATOM     11  CE  LYS A 135      28.952  34.708   8.111  1.00 34.25     0.338 C 
ATOM     12  NZ  LYS A 135      28.082  34.021   9.106  1.00 35.99     0.618 N 
ENDBRANCH  10  11
ENDBRANCH   9  10
ENDBRANCH   8   9
ENDBRANCH   7   8
END_RES LYS A 135
