REMARK VINA RESULT:    -3.997      3.908      7.625
REMARK INTER + INTRA:         -13.925
REMARK INTER:                  -8.986
REMARK INTRA:                  -4.939
REMARK UNBOUND:                -7.007
REMARK SMILES CC(=O)N[C@@H]1[C@@H](O)C[C@](O)(C(=O)O)O[C@H]1C(O)[C@H](O)CNC(=O)OCc1cn(-c2ccc(Cl)cc2)nn1
REMARK SMILES IDX 20 1 18 2 16 3 15 4 9 5 8 6 14 7 6 8 5 9 10 10 11 12 12 13
REMARK SMILES IDX 13 14 7 16 4 18 2 19 1 21 3 22 17 23 19 25 21 27 22 28 23 30
REMARK SMILES IDX 24 31 25 32 26 33 27 34 37 35 28 36 36 37 29 38 30 39 35 40
REMARK SMILES IDX 31 41 34 42 32 43 33 44
REMARK H PARENT 10 11 13 15 7 17 4 20 17 24 19 26 21 29
REMARK Flexibility Score: inf
ROOT
ATOM      1  C   UNL     1      29.254  34.574  14.845  1.00  0.00     0.154 C 
ENDROOT
BRANCH   1   2
ATOM      2  C   UNL     1      29.815  33.243  15.231  1.00  0.00     0.165 C 
BRANCH   2   3
ATOM      3  C   UNL     1      30.331  33.350  16.676  1.00  0.00     0.176 C 
BRANCH   3   4
ATOM      4  C   UNL     1      30.385  31.976  17.341  1.00  0.00     0.178 C 
ATOM      5  C   UNL     1      28.303  30.892  17.373  1.00  0.00     0.269 C 
ATOM      6  C   UNL     1      28.501  30.217  18.713  1.00  0.00     0.112 C 
ATOM      7  O   UNL     1      29.436  31.202  16.704  1.00  0.00    -0.332 OA
ATOM      8  C   UNL     1      29.816  30.626  19.271  1.00  0.00     0.145 C 
ATOM      9  C   UNL     1      30.130  32.030  18.791  1.00  0.00     0.142 C 
BRANCH   5  10
ATOM     10  O   UNL     1      27.449  31.969  17.601  1.00  0.00    -0.357 OA
ATOM     11  H   UNL     1      27.209  31.931  18.562  1.00  0.00     0.214 HD
ENDBRANCH   5  10
BRANCH   5  12
ATOM     12  C   UNL     1      27.552  29.916  16.541  1.00  0.00     0.364 C 
ATOM     13  O   UNL     1      26.819  30.362  15.629  1.00  0.00    -0.246 OA
BRANCH  12  14
ATOM     14  O   UNL     1      27.640  28.567  16.745  1.00  0.00    -0.477 OA
ATOM     15  H   UNL     1      27.214  27.925  16.071  1.00  0.00     0.296 HD
ENDBRANCH  12  14
ENDBRANCH   5  12
BRANCH   8  16
ATOM     16  O   UNL     1      29.890  30.519  20.655  1.00  0.00    -0.391 OA
ATOM     17  H   UNL     1      30.462  29.769  20.916  1.00  0.00     0.211 HD
ENDBRANCH   8  16
BRANCH   9  18
ATOM     18  N   UNL     1      31.156  32.550  19.628  1.00  0.00    -0.348 N 
ATOM     19  C   UNL     1      31.004  33.719  20.411  1.00  0.00     0.217 C 
ATOM     20  H   UNL     1      32.059  32.006  19.635  1.00  0.00     0.163 HD
ATOM     21  C   UNL     1      32.092  34.229  21.270  1.00  0.00     0.114 C 
ATOM     22  O   UNL     1      29.876  34.275  20.312  1.00  0.00    -0.275 OA
ENDBRANCH   9  18
ENDBRANCH   3   4
BRANCH   3  23
ATOM     23  O   UNL     1      29.498  34.201  17.410  1.00  0.00    -0.388 OA
ATOM     24  H   UNL     1      29.261  35.019  16.890  1.00  0.00     0.211 HD
ENDBRANCH   3  23
ENDBRANCH   2   3
BRANCH   2  25
ATOM     25  O   UNL     1      30.805  32.802  14.383  1.00  0.00    -0.388 OA
ATOM     26  H   UNL     1      30.583  32.053  13.803  1.00  0.00     0.211 HD
ENDBRANCH   2  25
ENDBRANCH   1   2
BRANCH   1  27
ATOM     27  N   UNL     1      27.898  34.588  14.408  1.00  0.00    -0.319 N 
ATOM     28  C   UNL     1      26.767  34.519  15.259  1.00  0.00     0.407 C 
ATOM     29  H   UNL     1      27.696  34.654  13.372  1.00  0.00     0.167 HD
ATOM     30  O   UNL     1      26.881  34.447  16.494  1.00  0.00    -0.225 OA
BRANCH  28  31
ATOM     31  O   UNL     1      25.470  34.531  14.711  1.00  0.00    -0.443 OA
BRANCH  31  32
ATOM     32  C   UNL     1      25.056  33.514  13.802  1.00  0.00     0.294 C 
BRANCH  32  33
ATOM     33  C   UNL     1      24.836  34.175  12.493  1.00  0.00     0.121 A 
ATOM     34  C   UNL     1      25.794  34.448  11.560  1.00  0.00     0.144 A 
ATOM     35  N   UNL     1      23.682  34.610  12.008  1.00  0.00    -0.131 NA
ATOM     36  N   UNL     1      25.176  35.050  10.523  1.00  0.00    -0.220 N 
ATOM     37  N   UNL     1      23.890  35.142  10.811  1.00  0.00    -0.062 NA
BRANCH  36  38
ATOM     38  C   UNL     1      25.865  35.487   9.348  1.00  0.00     0.066 A 
ATOM     39  C   UNL     1      25.662  36.762   8.880  1.00  0.00     0.030 A 
ATOM     40  C   UNL     1      26.711  34.598   8.735  1.00  0.00     0.030 A 
ATOM     41  C   UNL     1      26.348  37.142   7.742  1.00  0.00     0.023 A 
ATOM     42  C   UNL     1      27.382  35.009   7.600  1.00  0.00     0.023 A 
ATOM     43  C   UNL     1      27.212  36.273   7.093  1.00  0.00     0.041 A 
ATOM     44  Cl  UNL     1      28.087  36.731   5.657  1.00  0.00    -0.084 Cl
ENDBRANCH  36  38
ENDBRANCH  32  33
ENDBRANCH  31  32
ENDBRANCH  28  31
ENDBRANCH   1  27
TORSDOF 15
BEGIN_RES LYS A 131
REMARK  4 active torsions:
REMARK  status: ('A' for Active; 'I' for Inactive)
REMARK    1  A    between atoms: CA   and  CB  
REMARK    2  A    between atoms: CB   and  CG  
REMARK    3  A    between atoms: CG   and  CD  
REMARK    4  A    between atoms: CD   and  CE  
ROOT
ATOM      1  CA  LYS A 131      29.867  25.555  16.977  1.00 20.52     0.186 C 
ENDROOT
BRANCH   1   2
ATOM      2  CB  LYS A 131      28.345  25.722  17.026  1.00 20.94     0.034 C 
BRANCH   2   3
ATOM      3  CG  LYS A 131      27.601  24.401  16.904  1.00 22.96     0.005 C 
BRANCH   3   4
ATOM      4  CD  LYS A 131      26.576  24.226  17.990  1.00 24.33     0.041 C 
BRANCH   4   5
ATOM      5  CE  LYS A 131      25.247  23.804  17.371  1.00 26.91     0.338 C 
ATOM      6  NZ  LYS A 131      25.018  22.353  17.573  1.00 27.40     0.618 N 
ENDBRANCH   4   5
ENDBRANCH   3   4
ENDBRANCH   2   3
ENDBRANCH   1   2
END_RES LYS A 131
BEGIN_RES LYS A 135
REMARK  4 active torsions:
REMARK  status: ('A' for Active; 'I' for Inactive)
REMARK    5  A    between atoms: CA   and  CB  
REMARK    6  A    between atoms: CB   and  CG  
REMARK    7  A    between atoms: CG   and  CD  
REMARK    8  A    between atoms: CD   and  CE  
ROOT
ATOM      7  CA  LYS A 135      33.193  34.663   9.290  1.00 25.02     0.186 C 
ENDROOT
BRANCH   7   8
ATOM      8  CB  LYS A 135      32.060  35.360  10.034  1.00 26.63     0.034 C 
BRANCH   8   9
ATOM      9  CG  LYS A 135      30.747  35.333   9.294  1.00 29.45     0.005 C 
BRANCH   9  10
ATOM     10  CD  LYS A 135      30.260  36.746   9.014  1.00 32.00     0.041 C 
BRANCH  10  11
ATOM     11  CE  LYS A 135      29.513  37.299  10.213  1.00 34.25     0.338 C 
ATOM     12  NZ  LYS A 135      28.927  36.203  11.033  1.00 35.99     0.618 N 
ENDBRANCH  10  11
ENDBRANCH   9  10
ENDBRANCH   8   9
ENDBRANCH   7   8
END_RES LYS A 135
