REMARK VINA RESULT:    -4.467      3.686      7.223
REMARK INTER + INTRA:         -14.286
REMARK INTER:                  -6.938
REMARK INTRA:                  -7.348
REMARK UNBOUND:                -6.295
REMARK SMILES CC(=O)N[C@@H]1[C@@H](O)C[C@](O)(C(=O)O)O[C@H]1C(O)[C@H](O)CNC(=O)OCc1cn(Cc2cccc(Br)c2)nn1
REMARK SMILES IDX 21 1 22 2 23 3 20 5 18 6 16 7 15 8 9 9 8 10 14 11 6 12 5 13
REMARK SMILES IDX 10 14 11 16 12 17 13 18 7 20 4 22 2 23 1 25 3 26 17 27 19 29
REMARK SMILES IDX 24 31 25 32 26 33 27 34 38 35 28 36 37 37 29 38 30 39 31 40
REMARK SMILES IDX 36 41 32 42 34 43 33 44 35 45
REMARK H PARENT 21 4 10 15 13 19 7 21 4 24 17 28 19 30
REMARK Flexibility Score: inf
ROOT
ATOM      1  N   UNL     1      25.240  33.253  15.903  1.00  0.00    -0.319 N 
ATOM      2  C   UNL     1      25.454  32.536  14.701  1.00  0.00     0.407 C 
ATOM      3  O   UNL     1      25.514  31.263  14.706  1.00  0.00    -0.225 OA
ATOM      4  H   UNL     1      25.198  34.292  15.853  1.00  0.00     0.167 HD
ENDROOT
BRANCH   1   5
ATOM      5  C   UNL     1      25.096  32.485  17.110  1.00  0.00     0.154 C 
BRANCH   5   6
ATOM      6  C   UNL     1      26.126  32.912  18.167  1.00  0.00     0.165 C 
BRANCH   6   7
ATOM      7  C   UNL     1      27.045  31.752  18.324  1.00  0.00     0.176 C 
BRANCH   7   8
ATOM      8  C   UNL     1      28.468  31.971  17.901  1.00  0.00     0.178 C 
ATOM      9  C   UNL     1      29.566  33.262  16.293  1.00  0.00     0.269 C 
ATOM     10  C   UNL     1      30.623  32.175  16.241  1.00  0.00     0.112 C 
ATOM     11  O   UNL     1      28.377  32.732  16.729  1.00  0.00    -0.332 OA
ATOM     12  C   UNL     1      29.993  30.800  16.393  1.00  0.00     0.145 C 
ATOM     13  C   UNL     1      29.313  30.764  17.775  1.00  0.00     0.142 C 
BRANCH   9  14
ATOM     14  O   UNL     1      29.343  33.627  14.948  1.00  0.00    -0.357 OA
ATOM     15  H   UNL     1      28.788  32.975  14.479  1.00  0.00     0.214 HD
ENDBRANCH   9  14
BRANCH   9  16
ATOM     16  C   UNL     1      30.022  34.458  17.005  1.00  0.00     0.364 C 
ATOM     17  O   UNL     1      31.107  34.445  17.633  1.00  0.00    -0.246 OA
BRANCH  16  18
ATOM     18  O   UNL     1      29.303  35.644  17.026  1.00  0.00    -0.477 OA
ATOM     19  H   UNL     1      29.449  36.294  17.774  1.00  0.00     0.296 HD
ENDBRANCH  16  18
ENDBRANCH   9  16
BRANCH  12  20
ATOM     20  O   UNL     1      29.116  30.528  15.376  1.00  0.00    -0.391 OA
ATOM     21  H   UNL     1      29.020  31.354  14.805  1.00  0.00     0.211 HD
ENDBRANCH  12  20
BRANCH  13  22
ATOM     22  N   UNL     1      30.437  30.789  18.720  1.00  0.00    -0.348 N 
ATOM     23  C   UNL     1      30.402  30.054  19.935  1.00  0.00     0.217 C 
ATOM     24  H   UNL     1      31.304  31.343  18.545  1.00  0.00     0.163 HD
ATOM     25  C   UNL     1      31.566  30.097  20.891  1.00  0.00     0.114 C 
ATOM     26  O   UNL     1      29.423  29.358  20.251  1.00  0.00    -0.275 OA
ENDBRANCH  13  22
ENDBRANCH   7   8
BRANCH   7  27
ATOM     27  O   UNL     1      26.556  30.751  17.442  1.00  0.00    -0.388 OA
ATOM     28  H   UNL     1      26.246  31.258  16.639  1.00  0.00     0.211 HD
ENDBRANCH   7  27
ENDBRANCH   6   7
BRANCH   6  29
ATOM     29  O   UNL     1      25.388  33.221  19.306  1.00  0.00    -0.388 OA
ATOM     30  H   UNL     1      24.434  33.197  19.074  1.00  0.00     0.211 HD
ENDBRANCH   6  29
ENDBRANCH   5   6
ENDBRANCH   1   5
BRANCH   2  31
ATOM     31  O   UNL     1      25.610  33.151  13.468  1.00  0.00    -0.443 OA
BRANCH  31  32
ATOM     32  C   UNL     1      25.421  34.538  13.254  1.00  0.00     0.294 C 
BRANCH  32  33
ATOM     33  C   UNL     1      26.657  35.307  13.557  1.00  0.00     0.120 A 
ATOM     34  C   UNL     1      27.652  35.666  12.640  1.00  0.00     0.138 A 
ATOM     35  N   UNL     1      27.077  35.808  14.733  1.00  0.00    -0.132 NA
ATOM     36  N   UNL     1      28.600  36.349  13.290  1.00  0.00    -0.248 N 
ATOM     37  N   UNL     1      28.229  36.422  14.554  1.00  0.00    -0.067 NA
BRANCH  36  38
ATOM     38  C   UNL     1      29.820  36.922  12.765  1.00  0.00     0.181 C 
BRANCH  38  39
ATOM     39  C   UNL     1      30.981  36.495  13.587  1.00  0.00    -0.025 A 
ATOM     40  C   UNL     1      31.649  35.320  13.321  1.00  0.00     0.006 A 
ATOM     41  C   UNL     1      31.407  37.272  14.628  1.00  0.00     0.021 A 
ATOM     42  C   UNL     1      32.742  34.916  14.094  1.00  0.00     0.002 A 
ATOM     43  C   UNL     1      32.496  36.880  15.406  1.00  0.00     0.018 A 
ATOM     44  C   UNL     1      33.164  35.697  15.134  1.00  0.00     0.016 A 
ATOM     45  Br  UNL     1      33.058  37.986  16.843  1.00  0.00    -0.051 Br
ENDBRANCH  38  39
ENDBRANCH  36  38
ENDBRANCH  32  33
ENDBRANCH  31  32
ENDBRANCH   2  31
TORSDOF 16
BEGIN_RES LYS A 131
REMARK  4 active torsions:
REMARK  status: ('A' for Active; 'I' for Inactive)
REMARK    1  A    between atoms: CA   and  CB  
REMARK    2  A    between atoms: CB   and  CG  
REMARK    3  A    between atoms: CG   and  CD  
REMARK    4  A    between atoms: CD   and  CE  
ROOT
ATOM      1  CA  LYS A 131      29.867  25.555  16.977  1.00 20.52     0.186 C 
ENDROOT
BRANCH   1   2
ATOM      2  CB  LYS A 131      28.345  25.722  17.026  1.00 20.94     0.034 C 
BRANCH   2   3
ATOM      3  CG  LYS A 131      27.602  24.399  16.921  1.00 22.96     0.005 C 
BRANCH   3   4
ATOM      4  CD  LYS A 131      26.151  24.534  17.291  1.00 24.33     0.041 C 
BRANCH   4   5
ATOM      5  CE  LYS A 131      26.031  25.283  18.614  1.00 26.91     0.338 C 
ATOM      6  NZ  LYS A 131      25.010  26.352  18.514  1.00 27.40     0.618 N 
ENDBRANCH   4   5
ENDBRANCH   3   4
ENDBRANCH   2   3
ENDBRANCH   1   2
END_RES LYS A 131
BEGIN_RES LYS A 135
REMARK  4 active torsions:
REMARK  status: ('A' for Active; 'I' for Inactive)
REMARK    5  A    between atoms: CA   and  CB  
REMARK    6  A    between atoms: CB   and  CG  
REMARK    7  A    between atoms: CG   and  CD  
REMARK    8  A    between atoms: CD   and  CE  
ROOT
ATOM      7  CA  LYS A 135      33.193  34.663   9.290  1.00 25.02     0.186 C 
ENDROOT
BRANCH   7   8
ATOM      8  CB  LYS A 135      32.060  35.360  10.034  1.00 26.63     0.034 C 
BRANCH   8   9
ATOM      9  CG  LYS A 135      30.713  34.721   9.815  1.00 29.45     0.005 C 
BRANCH   9  10
ATOM     10  CD  LYS A 135      30.471  34.474   8.334  1.00 32.00     0.041 C 
BRANCH  10  11
ATOM     11  CE  LYS A 135      29.027  34.767   7.974  1.00 34.25     0.338 C 
ATOM     12  NZ  LYS A 135      28.941  35.762   6.870  1.00 35.99     0.618 N 
ENDBRANCH  10  11
ENDBRANCH   9  10
ENDBRANCH   8   9
ENDBRANCH   7   8
END_RES LYS A 135
