REMARK VINA RESULT:    -5.679      2.819      6.722
REMARK INTER + INTRA:         -14.376
REMARK INTER:                  -7.735
REMARK INTRA:                  -6.641
REMARK UNBOUND:                -4.548
REMARK SMILES CC(=O)N[C@@H]1[C@@H](O)C[C@](O)(C(=O)O)O[C@H]1C(O)[C@H](O)CNC(=O)OCc1cn(-c2ccc3c(c2)OCO3)nn1
REMARK SMILES IDX 20 1 18 2 16 3 15 4 9 5 8 6 14 7 6 8 5 9 10 10 11 12 12 13
REMARK SMILES IDX 13 14 7 16 4 18 2 19 1 21 3 22 17 23 19 25 21 27 22 28 23 30
REMARK SMILES IDX 24 31 25 32 26 33 27 34 39 35 28 36 38 37 29 38 30 39 34 40
REMARK SMILES IDX 31 41 33 42 32 43 35 44 37 45 36 46
REMARK H PARENT 10 11 13 15 7 17 4 20 17 24 19 26 21 29
REMARK Flexibility Score: inf
ROOT
ATOM      1  C   UNL     1      30.294  32.704  20.106  1.00  0.00     0.154 C 
ENDROOT
BRANCH   1   2
ATOM      2  C   UNL     1      29.123  31.785  19.994  1.00  0.00     0.165 C 
BRANCH   2   3
ATOM      3  C   UNL     1      29.577  30.316  19.974  1.00  0.00     0.176 C 
BRANCH   3   4
ATOM      4  C   UNL     1      28.375  29.487  19.698  1.00  0.00     0.178 C 
ATOM      5  C   UNL     1      26.139  29.228  20.059  1.00  0.00     0.269 C 
ATOM      6  C   UNL     1      26.386  28.113  19.065  1.00  0.00     0.112 C 
ATOM      7  O   UNL     1      27.231  30.032  20.271  1.00  0.00    -0.332 OA
ATOM      8  C   UNL     1      27.548  27.229  19.473  1.00  0.00     0.145 C 
ATOM      9  C   UNL     1      28.496  28.070  20.260  1.00  0.00     0.142 C 
BRANCH   5  10
ATOM     10  O   UNL     1      25.682  28.615  21.227  1.00  0.00    -0.357 OA
ATOM     11  H   UNL     1      24.689  28.674  21.193  1.00  0.00     0.214 HD
ENDBRANCH   5  10
BRANCH   5  12
ATOM     12  C   UNL     1      25.065  30.075  19.490  1.00  0.00     0.364 C 
ATOM     13  O   UNL     1      25.308  31.276  19.222  1.00  0.00    -0.246 OA
BRANCH  12  14
ATOM     14  O   UNL     1      23.790  29.598  19.236  1.00  0.00    -0.477 OA
ATOM     15  H   UNL     1      23.315  29.713  18.347  1.00  0.00     0.296 HD
ENDBRANCH  12  14
ENDBRANCH   5  12
BRANCH   8  16
ATOM     16  O   UNL     1      26.987  26.199  20.259  1.00  0.00    -0.391 OA
ATOM     17  H   UNL     1      27.529  26.030  21.051  1.00  0.00     0.211 HD
ENDBRANCH   8  16
BRANCH   9  18
ATOM     18  N   UNL     1      29.832  27.601  20.326  1.00  0.00    -0.348 N 
ATOM     19  C   UNL     1      30.504  27.109  21.477  1.00  0.00     0.217 C 
ATOM     20  H   UNL     1      30.392  27.612  19.446  1.00  0.00     0.163 HD
ATOM     21  C   UNL     1      31.920  26.636  21.439  1.00  0.00     0.114 C 
ATOM     22  O   UNL     1      29.858  27.083  22.549  1.00  0.00    -0.275 OA
ENDBRANCH   9  18
ENDBRANCH   3   4
BRANCH   3  23
ATOM     23  O   UNL     1      30.538  30.193  19.009  1.00  0.00    -0.388 OA
ATOM     24  H   UNL     1      30.776  30.969  18.492  1.00  0.00     0.211 HD
ENDBRANCH   3  23
ENDBRANCH   2   3
BRANCH   2  25
ATOM     25  O   UNL     1      28.396  32.017  18.857  1.00  0.00    -0.388 OA
ATOM     26  H   UNL     1      28.874  32.426  18.103  1.00  0.00     0.211 HD
ENDBRANCH   2  25
ENDBRANCH   1   2
BRANCH   1  27
ATOM     27  N   UNL     1      31.056  32.753  18.908  1.00  0.00    -0.319 N 
ATOM     28  C   UNL     1      31.052  33.848  18.029  1.00  0.00     0.407 C 
ATOM     29  H   UNL     1      31.676  31.933  18.630  1.00  0.00     0.167 HD
ATOM     30  O   UNL     1      30.385  34.885  18.177  1.00  0.00    -0.225 OA
BRANCH  28  31
ATOM     31  O   UNL     1      31.859  33.792  16.878  1.00  0.00    -0.443 OA
BRANCH  31  32
ATOM     32  C   UNL     1      31.267  33.538  15.640  1.00  0.00     0.294 C 
BRANCH  32  33
ATOM     33  C   UNL     1      30.217  32.500  15.806  1.00  0.00     0.121 A 
ATOM     34  C   UNL     1      28.864  32.643  15.519  1.00  0.00     0.144 A 
ATOM     35  N   UNL     1      30.347  31.240  16.256  1.00  0.00    -0.131 NA
ATOM     36  N   UNL     1      28.222  31.494  15.795  1.00  0.00    -0.220 N 
ATOM     37  N   UNL     1      29.156  30.671  16.238  1.00  0.00    -0.062 NA
BRANCH  36  38
ATOM     38  C   UNL     1      26.830  31.252  15.631  1.00  0.00     0.070 A 
ATOM     39  C   UNL     1      26.010  32.220  15.086  1.00  0.00     0.032 A 
ATOM     40  C   UNL     1      26.232  30.064  15.999  1.00  0.00     0.079 A 
ATOM     41  C   UNL     1      24.643  32.004  14.916  1.00  0.00     0.053 A 
ATOM     42  C   UNL     1      24.868  29.826  15.839  1.00  0.00     0.167 A 
ATOM     43  C   UNL     1      24.071  30.808  15.292  1.00  0.00     0.165 A 
ATOM     44  O   UNL     1      24.046  28.739  16.123  1.00  0.00    -0.454 OA
ATOM     45  O   UNL     1      22.765  30.289  15.256  1.00  0.00    -0.454 OA
ATOM     46  C   UNL     1      22.700  29.177  16.156  1.00  0.00     0.468 C 
ENDBRANCH  36  38
ENDBRANCH  32  33
ENDBRANCH  31  32
ENDBRANCH  28  31
ENDBRANCH   1  27
TORSDOF 15
BEGIN_RES LYS A 131
REMARK  4 active torsions:
REMARK  status: ('A' for Active; 'I' for Inactive)
REMARK    1  A    between atoms: CA   and  CB  
REMARK    2  A    between atoms: CB   and  CG  
REMARK    3  A    between atoms: CG   and  CD  
REMARK    4  A    between atoms: CD   and  CE  
ROOT
ATOM      1  CA  LYS A 131      29.867  25.555  16.977  1.00 20.52     0.186 C 
ENDROOT
BRANCH   1   2
ATOM      2  CB  LYS A 131      28.345  25.722  17.026  1.00 20.94     0.034 C 
BRANCH   2   3
ATOM      3  CG  LYS A 131      27.601  24.402  16.894  1.00 22.96     0.005 C 
BRANCH   3   4
ATOM      4  CD  LYS A 131      26.148  24.532  17.255  1.00 24.33     0.041 C 
BRANCH   4   5
ATOM      5  CE  LYS A 131      25.622  23.186  17.744  1.00 26.91     0.338 C 
ATOM      6  NZ  LYS A 131      25.493  23.185  19.221  1.00 27.40     0.618 N 
ENDBRANCH   4   5
ENDBRANCH   3   4
ENDBRANCH   2   3
ENDBRANCH   1   2
END_RES LYS A 131
BEGIN_RES LYS A 135
REMARK  4 active torsions:
REMARK  status: ('A' for Active; 'I' for Inactive)
REMARK    5  A    between atoms: CA   and  CB  
REMARK    6  A    between atoms: CB   and  CG  
REMARK    7  A    between atoms: CG   and  CD  
REMARK    8  A    between atoms: CD   and  CE  
ROOT
ATOM      7  CA  LYS A 135      33.193  34.663   9.290  1.00 25.02     0.186 C 
ENDROOT
BRANCH   7   8
ATOM      8  CB  LYS A 135      32.060  35.360  10.034  1.00 26.63     0.034 C 
BRANCH   8   9
ATOM      9  CG  LYS A 135      30.745  35.323   9.300  1.00 29.45     0.005 C 
BRANCH   9  10
ATOM     10  CD  LYS A 135      29.673  34.659  10.150  1.00 32.00     0.041 C 
BRANCH  10  11
ATOM     11  CE  LYS A 135      28.607  34.034   9.272  1.00 34.25     0.338 C 
ATOM     12  NZ  LYS A 135      28.504  34.743   7.966  1.00 35.99     0.618 N 
ENDBRANCH  10  11
ENDBRANCH   9  10
ENDBRANCH   8   9
ENDBRANCH   7   8
END_RES LYS A 135
