REMARK VINA RESULT:    -5.939      2.329      6.923
REMARK INTER + INTRA:         -15.094
REMARK INTER:                 -10.546
REMARK INTRA:                  -4.548
REMARK UNBOUND:                -3.774
REMARK SMILES CC(=O)N[C@@H]1[C@@H](O)C[C@](O)(C(=O)O)O[C@H]1C(O)[C@H](O)CNC(=O)OCc1cn(COCc2ccccc2)nn1
REMARK SMILES IDX 21 1 22 2 23 3 20 5 18 6 16 7 15 8 9 9 8 10 14 11 6 12 5 13
REMARK SMILES IDX 10 14 11 16 12 17 13 18 7 20 4 22 2 23 1 25 3 26 17 27 19 29
REMARK SMILES IDX 24 31 25 32 26 33 27 34 39 35 28 36 38 37 29 38 30 39 31 40
REMARK SMILES IDX 32 41 33 42 37 43 34 44 36 45 35 46
REMARK H PARENT 21 4 10 15 13 19 7 21 4 24 17 28 19 30
REMARK Flexibility Score: inf
ROOT
ATOM      1  N   UNL     1      25.874  37.698  12.691  1.00  0.00    -0.319 N 
ATOM      2  C   UNL     1      27.108  37.066  12.357  1.00  0.00     0.407 C 
ATOM      3  O   UNL     1      27.214  35.802  12.336  1.00  0.00    -0.225 OA
ATOM      4  H   UNL     1      25.825  38.729  12.697  1.00  0.00     0.167 HD
ENDROOT
BRANCH   1   5
ATOM      5  C   UNL     1      24.752  36.835  13.003  1.00  0.00     0.154 C 
BRANCH   5   6
ATOM      6  C   UNL     1      23.635  36.973  12.004  1.00  0.00     0.165 C 
BRANCH   6   7
ATOM      7  C   UNL     1      23.691  35.836  11.006  1.00  0.00     0.176 C 
BRANCH   7   8
ATOM      8  C   UNL     1      22.339  35.328  10.632  1.00  0.00     0.178 C 
ATOM      9  C   UNL     1      20.423  35.982   9.478  1.00  0.00     0.269 C 
ATOM     10  C   UNL     1      19.718  34.917  10.307  1.00  0.00     0.112 C 
ATOM     11  O   UNL     1      21.646  36.366  10.016  1.00  0.00    -0.332 OA
ATOM     12  C   UNL     1      20.119  35.152  11.748  1.00  0.00     0.145 C 
ATOM     13  C   UNL     1      21.592  34.785  11.830  1.00  0.00     0.142 C 
BRANCH   9  14
ATOM     14  O   UNL     1      19.604  37.107   9.542  1.00  0.00    -0.357 OA
ATOM     15  H   UNL     1      19.840  37.780   8.856  1.00  0.00     0.214 HD
ENDBRANCH   9  14
BRANCH   9  16
ATOM     16  C   UNL     1      20.532  35.557   8.077  1.00  0.00     0.364 C 
ATOM     17  O   UNL     1      19.809  34.619   7.657  1.00  0.00    -0.246 OA
BRANCH  16  18
ATOM     18  O   UNL     1      21.403  36.138   7.164  1.00  0.00    -0.477 OA
ATOM     19  H   UNL     1      21.112  37.002   6.716  1.00  0.00     0.296 HD
ENDBRANCH  16  18
ENDBRANCH   9  16
BRANCH  12  20
ATOM     20  O   UNL     1      19.924  36.478  12.124  1.00  0.00    -0.391 OA
ATOM     21  H   UNL     1      19.620  36.493  13.083  1.00  0.00     0.211 HD
ENDBRANCH  12  20
BRANCH  13  22
ATOM     22  N   UNL     1      21.667  33.340  11.820  1.00  0.00    -0.348 N 
ATOM     23  C   UNL     1      22.484  32.662  12.763  1.00  0.00     0.217 C 
ATOM     24  H   UNL     1      21.139  32.739  11.140  1.00  0.00     0.163 HD
ATOM     25  C   UNL     1      22.597  31.178  12.798  1.00  0.00     0.114 C 
ATOM     26  O   UNL     1      23.150  33.306  13.615  1.00  0.00    -0.275 OA
ENDBRANCH  13  22
ENDBRANCH   7   8
BRANCH   7  27
ATOM     27  O   UNL     1      24.571  34.877  11.444  1.00  0.00    -0.388 OA
ATOM     28  H   UNL     1      25.026  35.236  12.258  1.00  0.00     0.211 HD
ENDBRANCH   7  27
ENDBRANCH   6   7
BRANCH   6  29
ATOM     29  O   UNL     1      23.740  38.209  11.378  1.00  0.00    -0.388 OA
ATOM     30  H   UNL     1      24.612  38.274  10.904  1.00  0.00     0.211 HD
ENDBRANCH   6  29
ENDBRANCH   5   6
ENDBRANCH   1   5
BRANCH   2  31
ATOM     31  O   UNL     1      28.249  37.790  12.040  1.00  0.00    -0.443 OA
BRANCH  31  32
ATOM     32  C   UNL     1      28.238  38.984  11.284  1.00  0.00     0.294 C 
BRANCH  32  33
ATOM     33  C   UNL     1      28.595  38.768   9.865  1.00  0.00     0.120 A 
ATOM     34  C   UNL     1      27.803  38.694   8.738  1.00  0.00     0.141 A 
ATOM     35  N   UNL     1      29.851  38.596   9.418  1.00  0.00    -0.132 NA
ATOM     36  N   UNL     1      28.588  38.481   7.653  1.00  0.00    -0.226 N 
ATOM     37  N   UNL     1      29.823  38.429   8.114  1.00  0.00    -0.065 NA
BRANCH  36  38
ATOM     38  C   UNL     1      28.157  38.338   6.254  1.00  0.00     0.307 C 
BRANCH  38  39
ATOM     39  O   UNL     1      27.297  37.249   6.147  1.00  0.00    -0.355 OA
BRANCH  39  40
ATOM     40  C   UNL     1      27.968  36.056   6.016  1.00  0.00     0.198 C 
BRANCH  40  41
ATOM     41  C   UNL     1      28.079  35.273   7.263  1.00  0.00    -0.022 A 
ATOM     42  C   UNL     1      29.323  34.895   7.726  1.00  0.00     0.006 A 
ATOM     43  C   UNL     1      26.966  34.916   7.981  1.00  0.00     0.006 A 
ATOM     44  C   UNL     1      29.452  34.161   8.908  1.00  0.00     0.000 A 
ATOM     45  C   UNL     1      27.100  34.187   9.152  1.00  0.00     0.000 A 
ATOM     46  C   UNL     1      28.320  33.810   9.616  1.00  0.00     0.000 A 
ENDBRANCH  40  41
ENDBRANCH  39  40
ENDBRANCH  38  39
ENDBRANCH  36  38
ENDBRANCH  32  33
ENDBRANCH  31  32
ENDBRANCH   2  31
TORSDOF 18
BEGIN_RES LYS A 131
REMARK  4 active torsions:
REMARK  status: ('A' for Active; 'I' for Inactive)
REMARK    1  A    between atoms: CA   and  CB  
REMARK    2  A    between atoms: CB   and  CG  
REMARK    3  A    between atoms: CG   and  CD  
REMARK    4  A    between atoms: CD   and  CE  
ROOT
ATOM      1  CA  LYS A 131      29.867  25.555  16.977  1.00 20.52     0.186 C 
ENDROOT
BRANCH   1   2
ATOM      2  CB  LYS A 131      28.345  25.722  17.026  1.00 20.94     0.034 C 
BRANCH   2   3
ATOM      3  CG  LYS A 131      27.601  24.400  16.908  1.00 22.96     0.005 C 
BRANCH   3   4
ATOM      4  CD  LYS A 131      26.359  24.372  17.754  1.00 24.33     0.041 C 
BRANCH   4   5
ATOM      5  CE  LYS A 131      25.628  23.050  17.542  1.00 26.91     0.338 C 
ATOM      6  NZ  LYS A 131      24.928  22.639  18.782  1.00 27.40     0.618 N 
ENDBRANCH   4   5
ENDBRANCH   3   4
ENDBRANCH   2   3
ENDBRANCH   1   2
END_RES LYS A 131
BEGIN_RES LYS A 135
REMARK  4 active torsions:
REMARK  status: ('A' for Active; 'I' for Inactive)
REMARK    5  A    between atoms: CA   and  CB  
REMARK    6  A    between atoms: CB   and  CG  
REMARK    7  A    between atoms: CG   and  CD  
REMARK    8  A    between atoms: CD   and  CE  
ROOT
ATOM      7  CA  LYS A 135      33.193  34.663   9.290  1.00 25.02     0.186 C 
ENDROOT
BRANCH   7   8
ATOM      8  CB  LYS A 135      32.060  35.360  10.034  1.00 26.63     0.034 C 
BRANCH   8   9
ATOM      9  CG  LYS A 135      32.217  35.334  11.532  1.00 29.45     0.005 C 
BRANCH   9  10
ATOM     10  CD  LYS A 135      30.862  35.423  12.216  1.00 32.00     0.041 C 
BRANCH  10  11
ATOM     11  CE  LYS A 135      30.984  36.135  13.550  1.00 34.25     0.338 C 
ATOM     12  NZ  LYS A 135      31.412  37.549  13.366  1.00 35.99     0.618 N 
ENDBRANCH  10  11
ENDBRANCH   9  10
ENDBRANCH   8   9
ENDBRANCH   7   8
END_RES LYS A 135
