REMARK VINA RESULT:    -4.130      7.773     13.412
REMARK INTER + INTRA:         -15.595
REMARK INTER:                 -10.003
REMARK INTRA:                  -5.592
REMARK UNBOUND:                -7.118
REMARK SMILES CC(=O)N[C@@H]1[C@@H](O)C[C@](O)(C(=O)O)O[C@H]1C(O)[C@H](O)CNC(=O)OCc1cn(C[C@H](CC(=O)O)CC(C)C)nn1
REMARK SMILES IDX 24 1 22 2 21 3 23 5 20 6 18 7 16 8 15 9 9 10 8 11 14 12 6 13
REMARK SMILES IDX 5 14 10 15 11 17 12 18 13 19 7 21 4 23 2 24 1 26 3 27 17 28
REMARK SMILES IDX 19 30 25 32 26 33 27 34 40 35 28 36 39 37 29 38 30 39 31 40
REMARK SMILES IDX 32 41 33 42 34 43 35 45 36 46 37 47 38 48
REMARK H PARENT 21 4 10 16 13 20 7 22 4 25 17 29 19 31 34 44
REMARK Flexibility Score: inf
ROOT
ATOM      1  O   UNL     1      23.962  39.163   7.113  1.00  0.00    -0.443 OA
ENDROOT
BRANCH   1   2
ATOM      2  C   UNL     1      24.976  40.110   6.885  1.00  0.00     0.407 C 
ATOM      3  N   UNL     1      26.124  39.789   6.121  1.00  0.00    -0.319 N 
ATOM      4  H   UNL     1      26.165  38.795   5.733  1.00  0.00     0.167 HD
ATOM      5  O   UNL     1      24.831  41.252   7.382  1.00  0.00    -0.225 OA
BRANCH   3   6
ATOM      6  C   UNL     1      27.197  40.722   5.860  1.00  0.00     0.154 C 
BRANCH   6   7
ATOM      7  C   UNL     1      28.393  39.980   5.370  1.00  0.00     0.165 C 
BRANCH   7   8
ATOM      8  C   UNL     1      29.195  39.315   6.478  1.00  0.00     0.176 C 
BRANCH   8   9
ATOM      9  C   UNL     1      30.057  40.300   7.203  1.00  0.00     0.178 C 
ATOM     10  C   UNL     1      32.341  39.973   7.471  1.00  0.00     0.269 C 
ATOM     11  C   UNL     1      32.377  40.578   8.853  1.00  0.00     0.112 C 
ATOM     12  O   UNL     1      31.309  40.478   6.694  1.00  0.00    -0.332 OA
ATOM     13  C   UNL     1      31.015  41.077   9.285  1.00  0.00     0.145 C 
ATOM     14  C   UNL     1      30.018  40.062   8.710  1.00  0.00     0.142 C 
BRANCH  10  15
ATOM     15  O   UNL     1      32.310  38.577   7.537  1.00  0.00    -0.357 OA
ATOM     16  H   UNL     1      31.728  38.235   8.240  1.00  0.00     0.214 HD
ENDBRANCH  10  15
BRANCH  10  17
ATOM     17  C   UNL     1      33.612  40.344   6.795  1.00  0.00     0.364 C 
ATOM     18  O   UNL     1      34.708  39.932   7.285  1.00  0.00    -0.246 OA
BRANCH  17  19
ATOM     19  O   UNL     1      33.674  41.115   5.653  1.00  0.00    -0.477 OA
ATOM     20  H   UNL     1      33.989  40.681   4.772  1.00  0.00     0.296 HD
ENDBRANCH  17  19
ENDBRANCH  10  17
BRANCH  13  21
ATOM     21  O   UNL     1      30.892  41.215  10.645  1.00  0.00    -0.391 OA
ATOM     22  H   UNL     1      30.558  40.333  10.996  1.00  0.00     0.211 HD
ENDBRANCH  13  21
BRANCH  14  23
ATOM     23  N   UNL     1      28.684  40.325   9.189  1.00  0.00    -0.348 N 
ATOM     24  C   UNL     1      27.959  39.329   9.914  1.00  0.00     0.217 C 
ATOM     25  H   UNL     1      28.185  41.236   9.036  1.00  0.00     0.163 HD
ATOM     26  C   UNL     1      26.593  39.566  10.417  1.00  0.00     0.114 C 
ATOM     27  O   UNL     1      28.496  38.214  10.131  1.00  0.00    -0.275 OA
ENDBRANCH  14  23
ENDBRANCH   8   9
BRANCH   8  28
ATOM     28  O   UNL     1      29.863  38.211   6.002  1.00  0.00    -0.388 OA
ATOM     29  H   UNL     1      30.296  38.440   5.154  1.00  0.00     0.211 HD
ENDBRANCH   8  28
ENDBRANCH   7   8
BRANCH   7  30
ATOM     30  O   UNL     1      29.258  40.906   4.739  1.00  0.00    -0.388 OA
ATOM     31  H   UNL     1      29.219  41.785   5.180  1.00  0.00     0.211 HD
ENDBRANCH   7  30
ENDBRANCH   6   7
ENDBRANCH   3   6
ENDBRANCH   1   2
BRANCH   1  32
ATOM     32  C   UNL     1      23.761  38.733   8.436  1.00  0.00     0.294 C 
BRANCH  32  33
ATOM     33  C   UNL     1      24.265  37.368   8.667  1.00  0.00     0.120 A 
ATOM     34  C   UNL     1      25.381  36.728   8.148  1.00  0.00     0.138 A 
ATOM     35  N   UNL     1      23.692  36.463   9.470  1.00  0.00    -0.132 NA
ATOM     36  N   UNL     1      25.442  35.482   8.647  1.00  0.00    -0.252 N 
ATOM     37  N   UNL     1      24.412  35.346   9.442  1.00  0.00    -0.067 NA
BRANCH  36  38
ATOM     38  C   UNL     1      26.502  34.487   8.323  1.00  0.00     0.150 C 
BRANCH  38  39
ATOM     39  C   UNL     1      27.818  34.980   8.813  1.00  0.00     0.022 C 
BRANCH  39  40
ATOM     40  C   UNL     1      28.792  34.938   7.649  1.00  0.00     0.128 C 
BRANCH  40  41
ATOM     41  C   UNL     1      30.152  35.282   8.136  1.00  0.00     0.303 C 
ATOM     42  O   UNL     1      31.012  34.401   8.311  1.00  0.00    -0.252 OA
BRANCH  41  43
ATOM     43  O   UNL     1      30.422  36.630   8.390  1.00  0.00    -0.481 OA
ATOM     44  H   UNL     1      31.326  36.898   8.726  1.00  0.00     0.296 HD
ENDBRANCH  41  43
ENDBRANCH  40  41
ENDBRANCH  39  40
BRANCH  39  45
ATOM     45  C   UNL     1      28.286  34.298  10.031  1.00  0.00     0.009 C 
BRANCH  45  46
ATOM     46  C   UNL     1      28.302  35.060  11.302  1.00  0.00    -0.017 C 
ATOM     47  C   UNL     1      26.914  34.802  11.956  1.00  0.00     0.007 C 
ATOM     48  C   UNL     1      29.331  34.684  12.312  1.00  0.00     0.007 C 
ENDBRANCH  45  46
ENDBRANCH  39  45
ENDBRANCH  38  39
ENDBRANCH  36  38
ENDBRANCH  32  33
ENDBRANCH   1  32
TORSDOF 21
BEGIN_RES LYS A 131
REMARK  4 active torsions:
REMARK  status: ('A' for Active; 'I' for Inactive)
REMARK    1  A    between atoms: CA   and  CB  
REMARK    2  A    between atoms: CB   and  CG  
REMARK    3  A    between atoms: CG   and  CD  
REMARK    4  A    between atoms: CD   and  CE  
ROOT
ATOM      1  CA  LYS A 131      29.867  25.555  16.977  1.00 20.52     0.186 C 
ENDROOT
BRANCH   1   2
ATOM      2  CB  LYS A 131      28.345  25.722  17.026  1.00 20.94     0.034 C 
BRANCH   2   3
ATOM      3  CG  LYS A 131      27.602  24.397  16.948  1.00 22.96     0.005 C 
BRANCH   3   4
ATOM      4  CD  LYS A 131      26.113  24.575  17.051  1.00 24.33     0.041 C 
BRANCH   4   5
ATOM      5  CE  LYS A 131      25.558  23.624  18.107  1.00 26.91     0.338 C 
ATOM      6  NZ  LYS A 131      25.736  24.194  19.463  1.00 27.40     0.618 N 
ENDBRANCH   4   5
ENDBRANCH   3   4
ENDBRANCH   2   3
ENDBRANCH   1   2
END_RES LYS A 131
BEGIN_RES LYS A 135
REMARK  4 active torsions:
REMARK  status: ('A' for Active; 'I' for Inactive)
REMARK    5  A    between atoms: CA   and  CB  
REMARK    6  A    between atoms: CB   and  CG  
REMARK    7  A    between atoms: CG   and  CD  
REMARK    8  A    between atoms: CD   and  CE  
ROOT
ATOM      7  CA  LYS A 135      33.193  34.663   9.290  1.00 25.02     0.186 C 
ENDROOT
BRANCH   7   8
ATOM      8  CB  LYS A 135      32.060  35.360  10.034  1.00 26.63     0.034 C 
BRANCH   8   9
ATOM      9  CG  LYS A 135      32.519  36.129  11.246  1.00 29.45     0.005 C 
BRANCH   9  10
ATOM     10  CD  LYS A 135      31.877  37.508  11.281  1.00 32.00     0.041 C 
BRANCH  10  11
ATOM     11  CE  LYS A 135      31.461  37.866  12.694  1.00 34.25     0.338 C 
ATOM     12  NZ  LYS A 135      31.933  36.843  13.668  1.00 35.99     0.618 N 
ENDBRANCH  10  11
ENDBRANCH   9  10
ENDBRANCH   8   9
ENDBRANCH   7   8
END_RES LYS A 135
