REMARK VINA RESULT:    -4.511      1.868      6.650
REMARK INTER + INTRA:         -14.547
REMARK INTER:                  -7.936
REMARK INTRA:                  -6.611
REMARK UNBOUND:                -5.949
REMARK SMILES CCOC(=O)Cn1cc(COC(=O)NC[C@@H](O)C(O)[C@@H]2O[C@@](O)(C(=O)O)C[C@H](O)[C@H]2NC(C)=O)nn1
REMARK SMILES IDX 14 1 12 2 13 3 15 5 16 6 18 7 20 8 22 9 27 10 21 11 28 12
REMARK SMILES IDX 30 13 23 14 24 16 25 17 26 18 29 20 31 22 32 23 33 25 34 26
REMARK SMILES IDX 19 27 17 29 11 31 10 32 9 33 8 34 35 35 7 36 36 37 6 38 4 39
REMARK SMILES IDX 5 40 3 41 2 42 1 43
REMARK H PARENT 14 4 23 15 26 19 29 21 31 24 19 28 17 30
REMARK Flexibility Score: inf
ROOT
ATOM      1  N   UNL     1      27.700  28.510  18.245  1.00  0.00    -0.319 N 
ATOM      2  C   UNL     1      27.313  29.004  16.979  1.00  0.00     0.407 C 
ATOM      3  O   UNL     1      26.142  28.983  16.586  1.00  0.00    -0.225 OA
ATOM      4  H   UNL     1      28.752  28.607  18.438  1.00  0.00     0.167 HD
ENDROOT
BRANCH   1   5
ATOM      5  C   UNL     1      26.845  27.925  19.226  1.00  0.00     0.154 C 
BRANCH   5   6
ATOM      6  C   UNL     1      27.343  27.891  20.630  1.00  0.00     0.165 C 
BRANCH   6   7
ATOM      7  C   UNL     1      28.821  27.983  20.761  1.00  0.00     0.176 C 
BRANCH   7   8
ATOM      8  C   UNL     1      29.352  29.239  21.397  1.00  0.00     0.178 C 
ATOM      9  C   UNL     1      29.652  30.934  19.814  1.00  0.00     0.269 C 
ATOM     10  C   UNL     1      30.697  31.682  20.614  1.00  0.00     0.112 C 
ATOM     11  O   UNL     1      28.809  30.296  20.670  1.00  0.00    -0.332 OA
ATOM     12  C   UNL     1      31.292  30.774  21.625  1.00  0.00     0.145 C 
ATOM     13  C   UNL     1      30.852  29.310  21.460  1.00  0.00     0.142 C 
BRANCH   9  14
ATOM     14  O   UNL     1      30.333  30.137  18.912  1.00  0.00    -0.357 OA
ATOM     15  H   UNL     1      30.882  30.726  18.345  1.00  0.00     0.214 HD
ENDBRANCH   9  14
BRANCH   9  16
ATOM     16  C   UNL     1      28.879  31.956  19.073  1.00  0.00     0.364 C 
ATOM     17  O   UNL     1      27.658  31.768  18.890  1.00  0.00    -0.246 OA
BRANCH  16  18
ATOM     18  O   UNL     1      29.469  33.096  18.588  1.00  0.00    -0.477 OA
ATOM     19  H   UNL     1      29.454  33.336  17.596  1.00  0.00     0.296 HD
ENDBRANCH  16  18
ENDBRANCH   9  16
BRANCH  12  20
ATOM     20  O   UNL     1      32.683  30.814  21.663  1.00  0.00    -0.391 OA
ATOM     21  H   UNL     1      33.112  30.010  21.309  1.00  0.00     0.211 HD
ENDBRANCH  12  20
BRANCH  13  22
ATOM     22  N   UNL     1      31.369  28.656  22.644  1.00  0.00    -0.348 N 
ATOM     23  C   UNL     1      32.068  27.437  22.661  1.00  0.00     0.217 C 
ATOM     24  H   UNL     1      31.208  29.135  23.557  1.00  0.00     0.163 HD
ATOM     25  C   UNL     1      32.591  26.785  23.886  1.00  0.00     0.114 C 
ATOM     26  O   UNL     1      32.258  26.866  21.542  1.00  0.00    -0.275 OA
ENDBRANCH  13  22
ENDBRANCH   7   8
BRANCH   7  27
ATOM     27  O   UNL     1      29.351  26.841  21.310  1.00  0.00    -0.388 OA
ATOM     28  H   UNL     1      29.858  26.276  20.675  1.00  0.00     0.211 HD
ENDBRANCH   7  27
ENDBRANCH   6   7
BRANCH   6  29
ATOM     29  O   UNL     1      26.979  26.646  21.186  1.00  0.00    -0.388 OA
ATOM     30  H   UNL     1      26.284  26.776  21.896  1.00  0.00     0.211 HD
ENDBRANCH   6  29
ENDBRANCH   5   6
ENDBRANCH   1   5
BRANCH   2  31
ATOM     31  O   UNL     1      28.271  29.553  16.096  1.00  0.00    -0.443 OA
BRANCH  31  32
ATOM     32  C   UNL     1      28.031  30.778  15.431  1.00  0.00     0.294 C 
BRANCH  32  33
ATOM     33  C   UNL     1      29.272  31.587  15.560  1.00  0.00     0.120 A 
ATOM     34  C   UNL     1      29.532  32.832  15.039  1.00  0.00     0.139 A 
ATOM     35  N   UNL     1      30.410  31.248  16.227  1.00  0.00    -0.132 NA
ATOM     36  N   UNL     1      30.796  33.179  15.412  1.00  0.00    -0.241 N 
ATOM     37  N   UNL     1      31.301  32.193  16.133  1.00  0.00    -0.066 NA
BRANCH  36  38
ATOM     38  C   UNL     1      31.505  34.398  15.100  1.00  0.00     0.268 C 
BRANCH  38  39
ATOM     39  C   UNL     1      30.852  35.562  15.719  1.00  0.00     0.327 C 
ATOM     40  O   UNL     1      30.640  35.559  16.951  1.00  0.00    -0.250 OA
BRANCH  39  41
ATOM     41  O   UNL     1      30.491  36.633  14.902  1.00  0.00    -0.465 OA
BRANCH  41  42
ATOM     42  C   UNL     1      31.574  37.426  14.406  1.00  0.00     0.229 C 
ATOM     43  C   UNL     1      31.526  37.381  12.900  1.00  0.00     0.049 C 
ENDBRANCH  41  42
ENDBRANCH  39  41
ENDBRANCH  38  39
ENDBRANCH  36  38
ENDBRANCH  32  33
ENDBRANCH  31  32
ENDBRANCH   2  31
TORSDOF 18
BEGIN_RES LYS A 131
REMARK  4 active torsions:
REMARK  status: ('A' for Active; 'I' for Inactive)
REMARK    1  A    between atoms: CA   and  CB  
REMARK    2  A    between atoms: CB   and  CG  
REMARK    3  A    between atoms: CG   and  CD  
REMARK    4  A    between atoms: CD   and  CE  
ROOT
ATOM      1  CA  LYS A 131      29.867  25.555  16.977  1.00 20.52     0.186 C 
ENDROOT
BRANCH   1   2
ATOM      2  CB  LYS A 131      28.345  25.722  17.026  1.00 20.94     0.034 C 
BRANCH   2   3
ATOM      3  CG  LYS A 131      27.601  24.402  16.897  1.00 22.96     0.005 C 
BRANCH   3   4
ATOM      4  CD  LYS A 131      26.661  24.167  18.047  1.00 24.33     0.041 C 
BRANCH   4   5
ATOM      5  CE  LYS A 131      25.313  24.813  17.742  1.00 26.91     0.338 C 
ATOM      6  NZ  LYS A 131      24.561  25.060  18.995  1.00 27.40     0.618 N 
ENDBRANCH   4   5
ENDBRANCH   3   4
ENDBRANCH   2   3
ENDBRANCH   1   2
END_RES LYS A 131
BEGIN_RES LYS A 135
REMARK  4 active torsions:
REMARK  status: ('A' for Active; 'I' for Inactive)
REMARK    5  A    between atoms: CA   and  CB  
REMARK    6  A    between atoms: CB   and  CG  
REMARK    7  A    between atoms: CG   and  CD  
REMARK    8  A    between atoms: CD   and  CE  
ROOT
ATOM      7  CA  LYS A 135      33.193  34.663   9.290  1.00 25.02     0.186 C 
ENDROOT
BRANCH   7   8
ATOM      8  CB  LYS A 135      32.060  35.360  10.034  1.00 26.63     0.034 C 
BRANCH   8   9
ATOM      9  CG  LYS A 135      30.702  34.773   9.750  1.00 29.45     0.005 C 
BRANCH   9  10
ATOM     10  CD  LYS A 135      30.512  34.558   8.256  1.00 32.00     0.041 C 
BRANCH  10  11
ATOM     11  CE  LYS A 135      29.070  34.810   7.860  1.00 34.25     0.338 C 
ATOM     12  NZ  LYS A 135      28.134  34.370   8.933  1.00 35.99     0.618 N 
ENDBRANCH  10  11
ENDBRANCH   9  10
ENDBRANCH   8   9
ENDBRANCH   7   8
END_RES LYS A 135
