REMARK VINA RESULT:    -4.262      6.645     11.896
REMARK INTER + INTRA:         -14.863
REMARK INTER:                  -8.435
REMARK INTRA:                  -6.428
REMARK UNBOUND:                -7.237
REMARK SMILES CC(=O)N[C@@H]1[C@@H](O)C[C@](O)(C(=O)O)O[C@H]1C(O)[C@H](O)CNC(=O)OCc1cn(-c2ccccc2C(C)C)nn1
REMARK SMILES IDX 21 1 22 2 23 3 20 5 18 6 16 7 15 8 9 9 8 10 14 11 6 12 5 13
REMARK SMILES IDX 10 14 11 16 12 17 13 18 7 20 4 22 2 23 1 25 3 26 17 27 19 29
REMARK SMILES IDX 24 31 25 32 26 33 27 34 39 35 28 36 38 37 29 38 34 39 30 40
REMARK SMILES IDX 33 41 31 42 32 43 35 44 36 45 37 46
REMARK H PARENT 21 4 10 15 13 19 7 21 4 24 17 28 19 30
REMARK Flexibility Score: inf
ROOT
ATOM      1  N   UNL     1      27.109  28.755  17.681  1.00  0.00    -0.319 N 
ATOM      2  C   UNL     1      26.332  29.393  16.695  1.00  0.00     0.407 C 
ATOM      3  O   UNL     1      25.101  29.204  16.618  1.00  0.00    -0.225 OA
ATOM      4  H   UNL     1      28.144  28.963  17.706  1.00  0.00     0.167 HD
ENDROOT
BRANCH   1   5
ATOM      5  C   UNL     1      26.550  27.858  18.632  1.00  0.00     0.154 C 
BRANCH   5   6
ATOM      6  C   UNL     1      27.453  27.556  19.826  1.00  0.00     0.165 C 
BRANCH   6   7
ATOM      7  C   UNL     1      27.928  28.945  20.263  1.00  0.00     0.176 C 
BRANCH   7   8
ATOM      8  C   UNL     1      29.416  29.052  20.353  1.00  0.00     0.178 C 
ATOM      9  C   UNL     1      30.813  28.723  22.175  1.00  0.00     0.269 C 
ATOM     10  C   UNL     1      31.754  29.774  21.704  1.00  0.00     0.112 C 
ATOM     11  O   UNL     1      29.916  28.209  21.287  1.00  0.00    -0.332 OA
ATOM     12  C   UNL     1      31.186  30.761  20.706  1.00  0.00     0.145 C 
ATOM     13  C   UNL     1      29.707  30.513  20.660  1.00  0.00     0.142 C 
BRANCH   9  14
ATOM     14  O   UNL     1      30.175  29.157  23.366  1.00  0.00    -0.357 OA
ATOM     15  H   UNL     1      29.613  29.943  23.241  1.00  0.00     0.214 HD
ENDBRANCH   9  14
BRANCH   9  16
ATOM     16  C   UNL     1      31.668  27.553  22.595  1.00  0.00     0.364 C 
ATOM     17  O   UNL     1      32.053  26.757  21.713  1.00  0.00    -0.246 OA
BRANCH  16  18
ATOM     18  O   UNL     1      32.049  27.329  23.911  1.00  0.00    -0.477 OA
ATOM     19  H   UNL     1      32.997  27.106  24.205  1.00  0.00     0.296 HD
ENDBRANCH  16  18
ENDBRANCH   9  16
BRANCH  12  20
ATOM     20  O   UNL     1      31.419  32.078  21.211  1.00  0.00    -0.391 OA
ATOM     21  H   UNL     1      32.114  32.538  20.684  1.00  0.00     0.211 HD
ENDBRANCH  12  20
BRANCH  13  22
ATOM     22  N   UNL     1      28.902  31.361  19.872  1.00  0.00    -0.348 N 
ATOM     23  C   UNL     1      28.238  32.522  20.336  1.00  0.00     0.217 C 
ATOM     24  H   UNL     1      28.763  31.127  18.830  1.00  0.00     0.163 HD
ATOM     25  C   UNL     1      27.403  33.391  19.497  1.00  0.00     0.114 C 
ATOM     26  O   UNL     1      28.405  32.790  21.601  1.00  0.00    -0.275 OA
ENDBRANCH  13  22
ENDBRANCH   7   8
BRANCH   7  27
ATOM     27  O   UNL     1      27.282  29.176  21.481  1.00  0.00    -0.388 OA
ATOM     28  H   UNL     1      26.749  30.008  21.375  1.00  0.00     0.211 HD
ENDBRANCH   7  27
ENDBRANCH   6   7
BRANCH   6  29
ATOM     29  O   UNL     1      28.519  26.770  19.536  1.00  0.00    -0.388 OA
ATOM     30  H   UNL     1      28.290  25.888  19.250  1.00  0.00     0.211 HD
ENDBRANCH   6  29
ENDBRANCH   5   6
ENDBRANCH   1   5
BRANCH   2  31
ATOM     31  O   UNL     1      26.920  30.259  15.772  1.00  0.00    -0.443 OA
BRANCH  31  32
ATOM     32  C   UNL     1      27.124  31.606  16.172  1.00  0.00     0.294 C 
BRANCH  32  33
ATOM     33  C   UNL     1      28.592  31.750  16.342  1.00  0.00     0.121 A 
ATOM     34  C   UNL     1      29.327  32.840  15.858  1.00  0.00     0.144 A 
ATOM     35  N   UNL     1      29.442  30.985  17.043  1.00  0.00    -0.131 NA
ATOM     36  N   UNL     1      30.580  32.657  16.314  1.00  0.00    -0.220 N 
ATOM     37  N   UNL     1      30.603  31.581  16.991  1.00  0.00    -0.062 NA
BRANCH  36  38
ATOM     38  C   UNL     1      31.617  33.606  16.161  1.00  0.00     0.070 A 
ATOM     39  C   UNL     1      31.888  34.484  17.139  1.00  0.00    -0.020 A 
ATOM     40  C   UNL     1      32.238  33.729  14.909  1.00  0.00     0.029 A 
ATOM     41  C   UNL     1      32.793  35.517  16.894  1.00  0.00     0.006 A 
ATOM     42  C   UNL     1      33.114  34.719  14.655  1.00  0.00     0.002 A 
ATOM     43  C   UNL     1      33.415  35.643  15.645  1.00  0.00     0.000 A 
BRANCH  39  44
ATOM     44  C   UNL     1      31.367  34.303  18.480  1.00  0.00     0.015 C 
ATOM     45  C   UNL     1      30.323  35.346  18.849  1.00  0.00     0.012 C 
ATOM     46  C   UNL     1      32.547  34.771  19.443  1.00  0.00     0.012 C 
ENDBRANCH  39  44
ENDBRANCH  36  38
ENDBRANCH  32  33
ENDBRANCH  31  32
ENDBRANCH   2  31
TORSDOF 16
BEGIN_RES LYS A 131
REMARK  4 active torsions:
REMARK  status: ('A' for Active; 'I' for Inactive)
REMARK    1  A    between atoms: CA   and  CB  
REMARK    2  A    between atoms: CB   and  CG  
REMARK    3  A    between atoms: CG   and  CD  
REMARK    4  A    between atoms: CD   and  CE  
ROOT
ATOM      1  CA  LYS A 131      29.867  25.555  16.977  1.00 20.52     0.186 C 
ENDROOT
BRANCH   1   2
ATOM      2  CB  LYS A 131      28.345  25.722  17.026  1.00 20.94     0.034 C 
BRANCH   2   3
ATOM      3  CG  LYS A 131      27.600  24.408  16.846  1.00 22.96     0.005 C 
BRANCH   3   4
ATOM      4  CD  LYS A 131      26.664  24.126  17.988  1.00 24.33     0.041 C 
BRANCH   4   5
ATOM      5  CE  LYS A 131      25.343  23.591  17.443  1.00 26.91     0.338 C 
ATOM      6  NZ  LYS A 131      24.492  24.705  16.961  1.00 27.40     0.618 N 
ENDBRANCH   4   5
ENDBRANCH   3   4
ENDBRANCH   2   3
ENDBRANCH   1   2
END_RES LYS A 131
BEGIN_RES LYS A 135
REMARK  4 active torsions:
REMARK  status: ('A' for Active; 'I' for Inactive)
REMARK    5  A    between atoms: CA   and  CB  
REMARK    6  A    between atoms: CB   and  CG  
REMARK    7  A    between atoms: CG   and  CD  
REMARK    8  A    between atoms: CD   and  CE  
ROOT
ATOM      7  CA  LYS A 135      33.193  34.663   9.290  1.00 25.02     0.186 C 
ENDROOT
BRANCH   7   8
ATOM      8  CB  LYS A 135      32.060  35.360  10.034  1.00 26.63     0.034 C 
BRANCH   8   9
ATOM      9  CG  LYS A 135      30.757  35.368   9.277  1.00 29.45     0.005 C 
BRANCH   9  10
ATOM     10  CD  LYS A 135      29.646  34.752  10.113  1.00 32.00     0.041 C 
BRANCH  10  11
ATOM     11  CE  LYS A 135      28.669  34.000   9.230  1.00 34.25     0.338 C 
ATOM     12  NZ  LYS A 135      28.393  34.751   7.974  1.00 35.99     0.618 N 
ENDBRANCH  10  11
ENDBRANCH   9  10
ENDBRANCH   8   9
ENDBRANCH   7   8
END_RES LYS A 135
