REMARK VINA RESULT:    -5.087      3.516      5.177
REMARK INTER + INTRA:         -14.829
REMARK INTER:                  -8.911
REMARK INTRA:                  -5.918
REMARK UNBOUND:                -5.578
REMARK SMILES CC(=O)N[C@@H]1[C@@H](O)C[C@](O)(C(=O)O)O[C@H]1C(O)[C@H](O)CNC(=O)OCc1cn(C(C)(C)C(=O)O)nn1
REMARK SMILES IDX 21 1 22 2 23 3 20 5 18 6 16 7 15 8 9 9 8 10 14 11 6 12 5 13
REMARK SMILES IDX 10 14 11 16 12 17 13 18 7 20 4 22 2 23 1 25 3 26 17 27 19 29
REMARK SMILES IDX 24 31 25 32 26 33 27 34 36 35 28 36 35 37 29 38 30 39 31 40
REMARK SMILES IDX 32 41 33 42 34 43
REMARK H PARENT 21 4 10 15 13 19 7 21 4 24 17 28 19 30 34 44
REMARK Flexibility Score: inf
ROOT
ATOM      1  N   UNL     1      28.739  29.659  16.038  1.00  0.00    -0.319 N 
ATOM      2  C   UNL     1      27.445  29.655  16.609  1.00  0.00     0.407 C 
ATOM      3  O   UNL     1      26.743  30.724  16.642  1.00  0.00    -0.225 OA
ATOM      4  H   UNL     1      29.299  28.787  16.014  1.00  0.00     0.167 HD
ENDROOT
BRANCH   1   5
ATOM      5  C   UNL     1      29.235  30.899  15.497  1.00  0.00     0.154 C 
BRANCH   5   6
ATOM      6  C   UNL     1      30.503  31.394  16.096  1.00  0.00     0.165 C 
BRANCH   6   7
ATOM      7  C   UNL     1      30.309  32.541  17.056  1.00  0.00     0.176 C 
BRANCH   7   8
ATOM      8  C   UNL     1      30.661  33.837  16.316  1.00  0.00     0.178 C 
ATOM      9  C   UNL     1      32.477  35.275  16.106  1.00  0.00     0.269 C 
ATOM     10  C   UNL     1      31.587  36.478  16.324  1.00  0.00     0.112 C 
ATOM     11  O   UNL     1      31.980  34.117  16.654  1.00  0.00    -0.332 OA
ATOM     12  C   UNL     1      30.484  36.135  17.283  1.00  0.00     0.145 C 
ATOM     13  C   UNL     1      29.720  34.940  16.749  1.00  0.00     0.142 C 
BRANCH   9  14
ATOM     14  O   UNL     1      33.675  35.550  16.784  1.00  0.00    -0.357 OA
ATOM     15  H   UNL     1      33.517  36.206  17.487  1.00  0.00     0.214 HD
ENDBRANCH   9  14
BRANCH   9  16
ATOM     16  C   UNL     1      32.795  35.115  14.670  1.00  0.00     0.364 C 
ATOM     17  O   UNL     1      32.538  36.034  13.867  1.00  0.00    -0.246 OA
BRANCH  16  18
ATOM     18  O   UNL     1      33.379  33.960  14.170  1.00  0.00    -0.477 OA
ATOM     19  H   UNL     1      33.464  33.116  14.718  1.00  0.00     0.296 HD
ENDBRANCH  16  18
ENDBRANCH   9  16
BRANCH  12  20
ATOM     20  O   UNL     1      30.922  35.947  18.572  1.00  0.00    -0.391 OA
ATOM     21  H   UNL     1      31.096  35.013  18.816  1.00  0.00     0.211 HD
ENDBRANCH  12  20
BRANCH  13  22
ATOM     22  N   UNL     1      28.929  35.423  15.619  1.00  0.00    -0.348 N 
ATOM     23  C   UNL     1      27.607  34.954  15.387  1.00  0.00     0.217 C 
ATOM     24  H   UNL     1      29.330  36.125  14.963  1.00  0.00     0.163 HD
ATOM     25  C   UNL     1      26.785  35.437  14.238  1.00  0.00     0.114 C 
ATOM     26  O   UNL     1      27.163  34.097  16.216  1.00  0.00    -0.275 OA
ENDBRANCH  13  22
ENDBRANCH   7   8
BRANCH   7  27
ATOM     27  O   UNL     1      29.073  32.614  17.634  1.00  0.00    -0.388 OA
ATOM     28  H   UNL     1      28.838  31.772  18.068  1.00  0.00     0.211 HD
ENDBRANCH   7  27
ENDBRANCH   6   7
BRANCH   6  29
ATOM     29  O   UNL     1      31.298  31.842  15.010  1.00  0.00    -0.388 OA
ATOM     30  H   UNL     1      31.341  32.841  15.047  1.00  0.00     0.211 HD
ENDBRANCH   6  29
ENDBRANCH   5   6
ENDBRANCH   1   5
BRANCH   2  31
ATOM     31  O   UNL     1      26.853  28.537  17.162  1.00  0.00    -0.443 OA
BRANCH  31  32
ATOM     32  C   UNL     1      26.441  28.511  18.540  1.00  0.00     0.294 C 
BRANCH  32  33
ATOM     33  C   UNL     1      27.658  28.302  19.367  1.00  0.00     0.120 A 
ATOM     34  C   UNL     1      28.594  29.275  19.680  1.00  0.00     0.139 A 
ATOM     35  N   UNL     1      28.108  27.185  19.969  1.00  0.00    -0.132 NA
ATOM     36  N   UNL     1      29.567  28.734  20.448  1.00  0.00    -0.235 N 
ATOM     37  N   UNL     1      29.239  27.465  20.603  1.00  0.00    -0.066 NA
BRANCH  36  38
ATOM     38  C   UNL     1      30.719  29.437  20.976  1.00  0.00     0.155 C 
ATOM     39  C   UNL     1      30.800  30.828  20.382  1.00  0.00     0.049 C 
ATOM     40  C   UNL     1      30.603  29.529  22.483  1.00  0.00     0.049 C 
BRANCH  38  41
ATOM     41  C   UNL     1      31.985  28.736  20.611  1.00  0.00     0.331 C 
ATOM     42  O   UNL     1      33.063  29.249  21.004  1.00  0.00    -0.250 OA
BRANCH  41  43
ATOM     43  O   UNL     1      31.997  27.567  19.874  1.00  0.00    -0.479 OA
ATOM     44  H   UNL     1      32.474  27.587  18.977  1.00  0.00     0.296 HD
ENDBRANCH  41  43
ENDBRANCH  38  41
ENDBRANCH  36  38
ENDBRANCH  32  33
ENDBRANCH  31  32
ENDBRANCH   2  31
TORSDOF 17
BEGIN_RES LYS A 131
REMARK  4 active torsions:
REMARK  status: ('A' for Active; 'I' for Inactive)
REMARK    1  A    between atoms: CA   and  CB  
REMARK    2  A    between atoms: CB   and  CG  
REMARK    3  A    between atoms: CG   and  CD  
REMARK    4  A    between atoms: CD   and  CE  
ROOT
ATOM      1  CA  LYS A 131      29.867  25.555  16.977  1.00 20.52     0.186 C 
ENDROOT
BRANCH   1   2
ATOM      2  CB  LYS A 131      28.345  25.722  17.026  1.00 20.94     0.034 C 
BRANCH   2   3
ATOM      3  CG  LYS A 131      27.603  24.395  16.974  1.00 22.96     0.005 C 
BRANCH   3   4
ATOM      4  CD  LYS A 131      26.140  24.552  17.283  1.00 24.33     0.041 C 
BRANCH   4   5
ATOM      5  CE  LYS A 131      25.934  24.540  18.794  1.00 26.91     0.338 C 
ATOM      6  NZ  LYS A 131      25.520  23.192  19.251  1.00 27.40     0.618 N 
ENDBRANCH   4   5
ENDBRANCH   3   4
ENDBRANCH   2   3
ENDBRANCH   1   2
END_RES LYS A 131
BEGIN_RES LYS A 135
REMARK  4 active torsions:
REMARK  status: ('A' for Active; 'I' for Inactive)
REMARK    5  A    between atoms: CA   and  CB  
REMARK    6  A    between atoms: CB   and  CG  
REMARK    7  A    between atoms: CG   and  CD  
REMARK    8  A    between atoms: CD   and  CE  
ROOT
ATOM      7  CA  LYS A 135      33.193  34.663   9.290  1.00 25.02     0.186 C 
ENDROOT
BRANCH   7   8
ATOM      8  CB  LYS A 135      32.060  35.360  10.034  1.00 26.63     0.034 C 
BRANCH   8   9
ATOM      9  CG  LYS A 135      30.855  35.639   9.173  1.00 29.45     0.005 C 
BRANCH   9  10
ATOM     10  CD  LYS A 135      30.315  34.350   8.572  1.00 32.00     0.041 C 
BRANCH  10  11
ATOM     11  CE  LYS A 135      28.816  34.446   8.366  1.00 34.25     0.338 C 
ATOM     12  NZ  LYS A 135      28.355  35.861   8.426  1.00 35.99     0.618 N 
ENDBRANCH  10  11
ENDBRANCH   9  10
ENDBRANCH   8   9
ENDBRANCH   7   8
END_RES LYS A 135
