REMARK VINA RESULT:    -4.791      3.539      8.872
REMARK INTER + INTRA:         -13.317
REMARK INTER:                  -8.292
REMARK INTRA:                  -5.026
REMARK UNBOUND:                -5.026
REMARK SMILES CC(=O)N[C@@H]1[C@@H](O)C[C@](O)(C(=O)O)O[C@H]1C(O)[C@H](O)CNC(=O)OCc1cn(C2CCCC2)nn1
REMARK SMILES IDX 20 1 18 2 16 3 15 4 9 5 8 6 14 7 6 8 5 9 10 10 11 12 12 13
REMARK SMILES IDX 13 14 7 16 4 18 2 19 1 21 3 22 17 23 19 25 21 27 22 28 23 30
REMARK SMILES IDX 24 31 25 32 26 33 27 34 35 35 28 36 34 37 29 38 30 39 33 40
REMARK SMILES IDX 31 41 32 42
REMARK H PARENT 10 11 13 15 7 17 4 20 17 24 19 26 21 29
REMARK Flexibility Score: inf
ROOT
ATOM      1  C   UNL     1      27.114  29.071  18.292  1.00  0.00     0.154 C 
ENDROOT
BRANCH   1   2
ATOM      2  C   UNL     1      27.240  27.892  19.217  1.00  0.00     0.165 C 
BRANCH   2   3
ATOM      3  C   UNL     1      26.911  28.401  20.606  1.00  0.00     0.176 C 
BRANCH   3   4
ATOM      4  C   UNL     1      26.908  27.312  21.631  1.00  0.00     0.178 C 
ATOM      5  C   UNL     1      25.445  26.048  22.908  1.00  0.00     0.269 C 
ATOM      6  C   UNL     1      26.770  25.482  23.397  1.00  0.00     0.112 C 
ATOM      7  O   UNL     1      25.698  27.269  22.281  1.00  0.00    -0.332 OA
ATOM      8  C   UNL     1      27.604  26.656  23.866  1.00  0.00     0.145 C 
ATOM      9  C   UNL     1      28.043  27.401  22.612  1.00  0.00     0.142 C 
BRANCH   5  10
ATOM     10  O   UNL     1      24.650  26.224  24.035  1.00  0.00    -0.357 OA
ATOM     11  H   UNL     1      24.539  27.217  24.161  1.00  0.00     0.214 HD
ENDBRANCH   5  10
BRANCH   5  12
ATOM     12  C   UNL     1      24.763  25.135  21.983  1.00  0.00     0.364 C 
ATOM     13  O   UNL     1      23.543  25.265  21.711  1.00  0.00    -0.246 OA
BRANCH  12  14
ATOM     14  O   UNL     1      25.451  24.097  21.377  1.00  0.00    -0.477 OA
ATOM     15  H   UNL     1      24.997  23.207  21.130  1.00  0.00     0.296 HD
ENDBRANCH  12  14
ENDBRANCH   5  12
BRANCH   8  16
ATOM     16  O   UNL     1      26.755  27.479  24.625  1.00  0.00    -0.391 OA
ATOM     17  H   UNL     1      27.311  28.228  24.969  1.00  0.00     0.211 HD
ENDBRANCH   8  16
BRANCH   9  18
ATOM     18  N   UNL     1      29.254  26.786  22.107  1.00  0.00    -0.348 N 
ATOM     19  C   UNL     1      30.467  27.507  22.052  1.00  0.00     0.217 C 
ATOM     20  H   UNL     1      29.240  25.803  21.781  1.00  0.00     0.163 HD
ATOM     21  C   UNL     1      31.742  26.939  21.549  1.00  0.00     0.114 C 
ATOM     22  O   UNL     1      30.467  28.694  22.452  1.00  0.00    -0.275 OA
ENDBRANCH   9  18
ENDBRANCH   3   4
BRANCH   3  23
ATOM     23  O   UNL     1      27.918  29.306  20.945  1.00  0.00    -0.388 OA
ATOM     24  H   UNL     1      27.631  30.240  20.927  1.00  0.00     0.211 HD
ENDBRANCH   3  23
ENDBRANCH   2   3
BRANCH   2  25
ATOM     25  O   UNL     1      28.507  27.357  19.203  1.00  0.00    -0.388 OA
ATOM     26  H   UNL     1      28.523  26.537  19.766  1.00  0.00     0.211 HD
ENDBRANCH   2  25
ENDBRANCH   1   2
BRANCH   1  27
ATOM     27  N   UNL     1      28.342  29.642  17.838  1.00  0.00    -0.319 N 
ATOM     28  C   UNL     1      28.849  30.898  18.188  1.00  0.00     0.407 C 
ATOM     29  H   UNL     1      28.919  29.042  17.166  1.00  0.00     0.167 HD
ATOM     30  O   UNL     1      28.209  31.642  18.965  1.00  0.00    -0.225 OA
BRANCH  28  31
ATOM     31  O   UNL     1      30.083  31.336  17.672  1.00  0.00    -0.443 OA
BRANCH  31  32
ATOM     32  C   UNL     1      30.359  31.042  16.315  1.00  0.00     0.294 C 
BRANCH  32  33
ATOM     33  C   UNL     1      30.474  32.320  15.577  1.00  0.00     0.120 A 
ATOM     34  C   UNL     1      31.646  33.060  15.499  1.00  0.00     0.138 A 
ATOM     35  N   UNL     1      29.568  32.997  14.883  1.00  0.00    -0.132 NA
ATOM     36  N   UNL     1      31.392  34.143  14.764  1.00  0.00    -0.249 N 
ATOM     37  N   UNL     1      30.127  34.093  14.396  1.00  0.00    -0.067 NA
BRANCH  36  38
ATOM     38  C   UNL     1      32.387  35.165  14.460  1.00  0.00     0.109 C 
ATOM     39  C   UNL     1      32.525  35.235  12.965  1.00  0.00     0.027 C 
ATOM     40  C   UNL     1      31.866  36.507  14.923  1.00  0.00     0.027 C 
ATOM     41  C   UNL     1      32.245  36.651  12.573  1.00  0.00     0.002 C 
ATOM     42  C   UNL     1      31.333  37.156  13.658  1.00  0.00     0.002 C 
ENDBRANCH  36  38
ENDBRANCH  32  33
ENDBRANCH  31  32
ENDBRANCH  28  31
ENDBRANCH   1  27
TORSDOF 15
BEGIN_RES LYS A 131
REMARK  4 active torsions:
REMARK  status: ('A' for Active; 'I' for Inactive)
REMARK    1  A    between atoms: CA   and  CB  
REMARK    2  A    between atoms: CB   and  CG  
REMARK    3  A    between atoms: CG   and  CD  
REMARK    4  A    between atoms: CD   and  CE  
ROOT
ATOM      1  CA  LYS A 131      29.867  25.555  16.977  1.00 20.52     0.186 C 
ENDROOT
BRANCH   1   2
ATOM      2  CB  LYS A 131      28.345  25.722  17.026  1.00 20.94     0.034 C 
BRANCH   2   3
ATOM      3  CG  LYS A 131      27.601  24.401  16.905  1.00 22.96     0.005 C 
BRANCH   3   4
ATOM      4  CD  LYS A 131      26.586  24.220  17.999  1.00 24.33     0.041 C 
BRANCH   4   5
ATOM      5  CE  LYS A 131      25.314  23.611  17.418  1.00 26.91     0.338 C 
ATOM      6  NZ  LYS A 131      24.820  22.516  18.286  1.00 27.40     0.618 N 
ENDBRANCH   4   5
ENDBRANCH   3   4
ENDBRANCH   2   3
ENDBRANCH   1   2
END_RES LYS A 131
BEGIN_RES LYS A 135
REMARK  4 active torsions:
REMARK  status: ('A' for Active; 'I' for Inactive)
REMARK    5  A    between atoms: CA   and  CB  
REMARK    6  A    between atoms: CB   and  CG  
REMARK    7  A    between atoms: CG   and  CD  
REMARK    8  A    between atoms: CD   and  CE  
ROOT
ATOM      7  CA  LYS A 135      33.193  34.663   9.290  1.00 25.02     0.186 C 
ENDROOT
BRANCH   7   8
ATOM      8  CB  LYS A 135      32.060  35.360  10.034  1.00 26.63     0.034 C 
BRANCH   8   9
ATOM      9  CG  LYS A 135      30.795  35.485   9.225  1.00 29.45     0.005 C 
BRANCH   9  10
ATOM     10  CD  LYS A 135      30.253  34.111   8.861  1.00 32.00     0.041 C 
BRANCH  10  11
ATOM     11  CE  LYS A 135      28.785  34.004   9.225  1.00 34.25     0.338 C 
ATOM     12  NZ  LYS A 135      28.109  35.327   9.125  1.00 35.99     0.618 N 
ENDBRANCH  10  11
ENDBRANCH   9  10
ENDBRANCH   8   9
ENDBRANCH   7   8
END_RES LYS A 135
