REMARK VINA RESULT:    -4.988      3.130      7.708
REMARK INTER + INTRA:         -13.795
REMARK INTER:                  -8.757
REMARK INTRA:                  -5.038
REMARK UNBOUND:                -4.724
REMARK SMILES CC(=O)N[C@@H]1[C@@H](O)C[C@](O)(C(=O)O)O[C@H]1C(O)[C@H](O)CNC(=O)OCc1cn([C@@H](C)C(=O)O)nn1
REMARK SMILES IDX 21 1 22 2 23 3 20 5 18 6 16 7 15 8 9 9 8 10 14 11 6 12 5 13
REMARK SMILES IDX 10 14 11 16 12 17 13 18 7 20 4 22 2 23 1 25 3 26 17 27 19 29
REMARK SMILES IDX 24 31 25 32 26 33 27 34 35 35 28 36 34 37 29 38 30 39 31 40
REMARK SMILES IDX 32 41 33 42
REMARK H PARENT 21 4 10 15 13 19 7 21 4 24 17 28 19 30 33 43
REMARK Flexibility Score: inf
ROOT
ATOM      1  N   UNL     1      28.820  31.161  18.596  1.00  0.00    -0.319 N 
ATOM      2  C   UNL     1      28.730  32.319  17.790  1.00  0.00     0.407 C 
ATOM      3  O   UNL     1      29.009  33.460  18.237  1.00  0.00    -0.225 OA
ATOM      4  H   UNL     1      28.578  30.243  18.180  1.00  0.00     0.167 HD
ENDROOT
BRANCH   1   5
ATOM      5  C   UNL     1      29.236  31.221  19.967  1.00  0.00     0.154 C 
BRANCH   5   6
ATOM      6  C   UNL     1      30.752  31.071  20.138  1.00  0.00     0.165 C 
BRANCH   6   7
ATOM      7  C   UNL     1      30.981  30.279  21.378  1.00  0.00     0.176 C 
BRANCH   7   8
ATOM      8  C   UNL     1      30.050  29.141  21.625  1.00  0.00     0.178 C 
ATOM      9  C   UNL     1      31.294  28.003  23.240  1.00  0.00     0.269 C 
ATOM     10  C   UNL     1      32.036  27.395  22.118  1.00  0.00     0.112 C 
ATOM     11  O   UNL     1      30.195  28.767  22.953  1.00  0.00    -0.332 OA
ATOM     12  C   UNL     1      31.273  27.091  20.877  1.00  0.00     0.145 C 
ATOM     13  C   UNL     1      30.093  28.000  20.683  1.00  0.00     0.142 C 
BRANCH   9  14
ATOM     14  O   UNL     1      32.203  28.886  23.881  1.00  0.00    -0.357 OA
ATOM     15  H   UNL     1      33.073  28.433  23.906  1.00  0.00     0.214 HD
ENDBRANCH   9  14
BRANCH   9  16
ATOM     16  C   UNL     1      30.969  26.952  24.243  1.00  0.00     0.364 C 
ATOM     17  O   UNL     1      29.781  26.700  24.585  1.00  0.00    -0.246 OA
BRANCH  16  18
ATOM     18  O   UNL     1      31.970  26.206  24.840  1.00  0.00    -0.477 OA
ATOM     19  H   UNL     1      31.792  25.397  25.426  1.00  0.00     0.296 HD
ENDBRANCH  16  18
ENDBRANCH   9  16
BRANCH  12  20
ATOM     20  O   UNL     1      32.175  27.178  19.800  1.00  0.00    -0.391 OA
ATOM     21  H   UNL     1      32.606  28.064  19.876  1.00  0.00     0.211 HD
ENDBRANCH  12  20
BRANCH  13  22
ATOM     22  N   UNL     1      28.862  27.219  20.922  1.00  0.00    -0.348 N 
ATOM     23  C   UNL     1      27.734  27.355  20.083  1.00  0.00     0.217 C 
ATOM     24  H   UNL     1      28.781  26.548  21.708  1.00  0.00     0.163 HD
ATOM     25  C   UNL     1      26.485  26.597  20.284  1.00  0.00     0.114 C 
ATOM     26  O   UNL     1      27.772  28.165  19.099  1.00  0.00    -0.275 OA
ENDBRANCH  13  22
ENDBRANCH   7   8
BRANCH   7  27
ATOM     27  O   UNL     1      30.723  31.193  22.451  1.00  0.00    -0.388 OA
ATOM     28  H   UNL     1      30.906  30.665  23.268  1.00  0.00     0.211 HD
ENDBRANCH   7  27
ENDBRANCH   6   7
BRANCH   6  29
ATOM     29  O   UNL     1      31.233  32.368  20.255  1.00  0.00    -0.388 OA
ATOM     30  H   UNL     1      30.463  32.979  20.126  1.00  0.00     0.211 HD
ENDBRANCH   6  29
ENDBRANCH   5   6
ENDBRANCH   1   5
BRANCH   2  31
ATOM     31  O   UNL     1      28.320  32.233  16.445  1.00  0.00    -0.443 OA
BRANCH  31  32
ATOM     32  C   UNL     1      29.206  31.753  15.450  1.00  0.00     0.294 C 
BRANCH  32  33
ATOM     33  C   UNL     1      30.312  32.712  15.208  1.00  0.00     0.120 A 
ATOM     34  C   UNL     1      30.222  33.918  14.509  1.00  0.00     0.139 A 
ATOM     35  N   UNL     1      31.606  32.641  15.595  1.00  0.00    -0.132 NA
ATOM     36  N   UNL     1      31.422  34.505  14.501  1.00  0.00    -0.238 N 
ATOM     37  N   UNL     1      32.250  33.731  15.156  1.00  0.00    -0.066 NA
BRANCH  36  38
ATOM     38  C   UNL     1      31.772  35.786  13.877  1.00  0.00     0.215 C 
ATOM     39  C   UNL     1      32.292  36.747  14.933  1.00  0.00     0.046 C 
BRANCH  38  40
ATOM     40  C   UNL     1      32.752  35.623  12.806  1.00  0.00     0.328 C 
ATOM     41  O   UNL     1      32.762  36.419  11.840  1.00  0.00    -0.250 OA
BRANCH  40  42
ATOM     42  O   UNL     1      33.709  34.610  12.779  1.00  0.00    -0.480 OA
ATOM     43  H   UNL     1      33.711  33.873  13.476  1.00  0.00     0.296 HD
ENDBRANCH  40  42
ENDBRANCH  38  40
ENDBRANCH  36  38
ENDBRANCH  32  33
ENDBRANCH  31  32
ENDBRANCH   2  31
TORSDOF 17
BEGIN_RES LYS A 131
REMARK  4 active torsions:
REMARK  status: ('A' for Active; 'I' for Inactive)
REMARK    1  A    between atoms: CA   and  CB  
REMARK    2  A    between atoms: CB   and  CG  
REMARK    3  A    between atoms: CG   and  CD  
REMARK    4  A    between atoms: CD   and  CE  
ROOT
ATOM      1  CA  LYS A 131      29.867  25.555  16.977  1.00 20.52     0.186 C 
ENDROOT
BRANCH   1   2
ATOM      2  CB  LYS A 131      28.345  25.722  17.026  1.00 20.94     0.034 C 
BRANCH   2   3
ATOM      3  CG  LYS A 131      27.599  24.424  16.756  1.00 22.96     0.005 C 
BRANCH   3   4
ATOM      4  CD  LYS A 131      26.212  24.437  17.336  1.00 24.33     0.041 C 
BRANCH   4   5
ATOM      5  CE  LYS A 131      26.145  23.474  18.517  1.00 26.91     0.338 C 
ATOM      6  NZ  LYS A 131      24.898  22.675  18.464  1.00 27.40     0.618 N 
ENDBRANCH   4   5
ENDBRANCH   3   4
ENDBRANCH   2   3
ENDBRANCH   1   2
END_RES LYS A 131
BEGIN_RES LYS A 135
REMARK  4 active torsions:
REMARK  status: ('A' for Active; 'I' for Inactive)
REMARK    5  A    between atoms: CA   and  CB  
REMARK    6  A    between atoms: CB   and  CG  
REMARK    7  A    between atoms: CG   and  CD  
REMARK    8  A    between atoms: CD   and  CE  
ROOT
ATOM      7  CA  LYS A 135      33.193  34.663   9.290  1.00 25.02     0.186 C 
ENDROOT
BRANCH   7   8
ATOM      8  CB  LYS A 135      32.060  35.360  10.034  1.00 26.63     0.034 C 
BRANCH   8   9
ATOM      9  CG  LYS A 135      30.793  35.480   9.227  1.00 29.45     0.005 C 
BRANCH   9  10
ATOM     10  CD  LYS A 135      30.254  34.105   8.867  1.00 32.00     0.041 C 
BRANCH  10  11
ATOM     11  CE  LYS A 135      28.807  33.970   9.301  1.00 34.25     0.338 C 
ATOM     12  NZ  LYS A 135      27.890  34.616   8.322  1.00 35.99     0.618 N 
ENDBRANCH  10  11
ENDBRANCH   9  10
ENDBRANCH   8   9
ENDBRANCH   7   8
END_RES LYS A 135
