REMARK VINA RESULT:    -5.555      2.122      2.846
REMARK INTER + INTRA:         -14.110
REMARK INTER:                  -8.433
REMARK INTRA:                  -5.677
REMARK UNBOUND:                -4.497
REMARK SMILES CC(=O)N[C@@H]1[C@@H](O)C[C@](O)(C(=O)O)O[C@H]1C(O)[C@H](O)CNC(=O)OCc1cn(-c2cccc(Cl)c2)nn1
REMARK SMILES IDX 20 1 18 2 16 3 15 4 9 5 8 6 14 7 6 8 5 9 10 10 11 12 12 13
REMARK SMILES IDX 13 14 7 16 4 18 2 19 1 21 3 22 17 23 19 25 21 27 22 28 23 30
REMARK SMILES IDX 24 31 25 32 26 33 27 34 37 35 28 36 36 37 29 38 30 39 35 40
REMARK SMILES IDX 31 41 33 42 32 43 34 44
REMARK H PARENT 10 11 13 15 7 17 4 20 17 24 19 26 21 29
REMARK Flexibility Score: inf
ROOT
ATOM      1  C   UNL     1      26.375  29.445  19.675  1.00  0.00     0.154 C 
ENDROOT
BRANCH   1   2
ATOM      2  C   UNL     1      27.691  28.753  19.467  1.00  0.00     0.165 C 
BRANCH   2   3
ATOM      3  C   UNL     1      28.872  29.653  19.691  1.00  0.00     0.176 C 
BRANCH   3   4
ATOM      4  C   UNL     1      29.364  29.556  21.137  1.00  0.00     0.178 C 
ATOM      5  C   UNL     1      31.696  29.289  21.276  1.00  0.00     0.269 C 
ATOM      6  C   UNL     1      31.480  28.165  22.280  1.00  0.00     0.112 C 
ATOM      7  O   UNL     1      30.597  30.072  21.200  1.00  0.00    -0.332 OA
ATOM      8  C   UNL     1      30.389  27.309  21.639  1.00  0.00     0.145 C 
ATOM      9  C   UNL     1      29.149  28.159  21.602  1.00  0.00     0.142 C 
BRANCH   5  10
ATOM     10  O   UNL     1      32.049  28.672  20.083  1.00  0.00    -0.357 OA
ATOM     11  H   UNL     1      31.345  28.017  19.849  1.00  0.00     0.214 HD
ENDBRANCH   5  10
BRANCH   5  12
ATOM     12  C   UNL     1      32.834  30.128  21.720  1.00  0.00     0.364 C 
ATOM     13  O   UNL     1      32.610  31.290  22.131  1.00  0.00    -0.246 OA
BRANCH  12  14
ATOM     14  O   UNL     1      34.147  29.682  21.704  1.00  0.00    -0.477 OA
ATOM     15  H   UNL     1      34.324  28.689  21.892  1.00  0.00     0.296 HD
ENDBRANCH  12  14
ENDBRANCH   5  12
BRANCH   8  16
ATOM     16  O   UNL     1      30.713  26.964  20.331  1.00  0.00    -0.391 OA
ATOM     17  H   UNL     1      29.949  27.105  19.703  1.00  0.00     0.211 HD
ENDBRANCH   8  16
BRANCH   9  18
ATOM     18  N   UNL     1      28.585  28.138  22.935  1.00  0.00    -0.348 N 
ATOM     19  C   UNL     1      27.385  27.422  23.178  1.00  0.00     0.217 C 
ATOM     20  H   UNL     1      29.050  28.650  23.740  1.00  0.00     0.163 HD
ATOM     21  C   UNL     1      26.811  27.405  24.549  1.00  0.00     0.114 C 
ATOM     22  O   UNL     1      26.818  26.810  22.236  1.00  0.00    -0.275 OA
ENDBRANCH   9  18
ENDBRANCH   3   4
BRANCH   3  23
ATOM     23  O   UNL     1      28.422  30.966  19.436  1.00  0.00    -0.388 OA
ATOM     24  H   UNL     1      28.457  31.171  18.491  1.00  0.00     0.211 HD
ENDBRANCH   3  23
ENDBRANCH   2   3
BRANCH   2  25
ATOM     25  O   UNL     1      27.740  28.263  18.150  1.00  0.00    -0.388 OA
ATOM     26  H   UNL     1      27.820  29.017  17.539  1.00  0.00     0.211 HD
ENDBRANCH   2  25
ENDBRANCH   1   2
BRANCH   1  27
ATOM     27  N   UNL     1      25.753  29.725  18.386  1.00  0.00    -0.319 N 
ATOM     28  C   UNL     1      25.384  31.046  18.031  1.00  0.00     0.407 C 
ATOM     29  H   UNL     1      25.591  28.926  17.740  1.00  0.00     0.167 HD
ATOM     30  O   UNL     1      25.599  31.980  18.844  1.00  0.00    -0.225 OA
BRANCH  28  31
ATOM     31  O   UNL     1      24.791  31.355  16.818  1.00  0.00    -0.443 OA
BRANCH  31  32
ATOM     32  C   UNL     1      25.383  30.857  15.638  1.00  0.00     0.294 C 
BRANCH  32  33
ATOM     33  C   UNL     1      26.862  30.902  15.775  1.00  0.00     0.121 A 
ATOM     34  C   UNL     1      27.648  32.036  15.885  1.00  0.00     0.144 A 
ATOM     35  N   UNL     1      27.730  29.875  15.819  1.00  0.00    -0.131 NA
ATOM     36  N   UNL     1      28.948  31.675  15.992  1.00  0.00    -0.220 N 
ATOM     37  N   UNL     1      28.959  30.353  15.947  1.00  0.00    -0.062 NA
BRANCH  36  38
ATOM     38  C   UNL     1      30.067  32.543  16.123  1.00  0.00     0.068 A 
ATOM     39  C   UNL     1      30.812  32.852  15.006  1.00  0.00     0.028 A 
ATOM     40  C   UNL     1      30.455  33.102  17.323  1.00  0.00     0.049 A 
ATOM     41  C   UNL     1      31.911  33.693  15.083  1.00  0.00     0.004 A 
ATOM     42  C   UNL     1      31.542  33.942  17.436  1.00  0.00     0.043 A 
ATOM     43  C   UNL     1      32.268  34.232  16.298  1.00  0.00     0.020 A 
ATOM     44  Cl  UNL     1      32.006  34.638  18.996  1.00  0.00    -0.084 Cl
ENDBRANCH  36  38
ENDBRANCH  32  33
ENDBRANCH  31  32
ENDBRANCH  28  31
ENDBRANCH   1  27
TORSDOF 15
BEGIN_RES LYS A 131
REMARK  4 active torsions:
REMARK  status: ('A' for Active; 'I' for Inactive)
REMARK    1  A    between atoms: CA   and  CB  
REMARK    2  A    between atoms: CB   and  CG  
REMARK    3  A    between atoms: CG   and  CD  
REMARK    4  A    between atoms: CD   and  CE  
ROOT
ATOM      1  CA  LYS A 131      29.867  25.555  16.977  1.00 20.52     0.186 C 
ENDROOT
BRANCH   1   2
ATOM      2  CB  LYS A 131      28.345  25.722  17.026  1.00 20.94     0.034 C 
BRANCH   2   3
ATOM      3  CG  LYS A 131      27.602  24.400  16.913  1.00 22.96     0.005 C 
BRANCH   3   4
ATOM      4  CD  LYS A 131      26.156  24.528  17.305  1.00 24.33     0.041 C 
BRANCH   4   5
ATOM      5  CE  LYS A 131      26.060  24.933  18.773  1.00 26.91     0.338 C 
ATOM      6  NZ  LYS A 131      25.144  26.087  18.934  1.00 27.40     0.618 N 
ENDBRANCH   4   5
ENDBRANCH   3   4
ENDBRANCH   2   3
ENDBRANCH   1   2
END_RES LYS A 131
BEGIN_RES LYS A 135
REMARK  4 active torsions:
REMARK  status: ('A' for Active; 'I' for Inactive)
REMARK    5  A    between atoms: CA   and  CB  
REMARK    6  A    between atoms: CB   and  CG  
REMARK    7  A    between atoms: CG   and  CD  
REMARK    8  A    between atoms: CD   and  CE  
ROOT
ATOM      7  CA  LYS A 135      33.193  34.663   9.290  1.00 25.02     0.186 C 
ENDROOT
BRANCH   7   8
ATOM      8  CB  LYS A 135      32.060  35.360  10.034  1.00 26.63     0.034 C 
BRANCH   8   9
ATOM      9  CG  LYS A 135      30.793  35.479   9.227  1.00 29.45     0.005 C 
BRANCH   9  10
ATOM     10  CD  LYS A 135      30.227  34.103   8.910  1.00 32.00     0.041 C 
BRANCH  10  11
ATOM     11  CE  LYS A 135      28.733  34.069   9.171  1.00 34.25     0.338 C 
ATOM     12  NZ  LYS A 135      28.416  34.561  10.540  1.00 35.99     0.618 N 
ENDBRANCH  10  11
ENDBRANCH   9  10
ENDBRANCH   8   9
ENDBRANCH   7   8
END_RES LYS A 135
