REMARK VINA RESULT:    -5.621      2.081      4.999
REMARK INTER + INTRA:         -15.563
REMARK INTER:                  -8.704
REMARK INTRA:                  -6.859
REMARK UNBOUND:                -5.012
REMARK SMILES CC(=O)N[C@@H]1[C@@H](O)C[C@](O)(C(=O)O)O[C@H]1C(O)[C@H](O)CNC(=O)OCc1cn(CC(O)c2ccccc2)nn1
REMARK SMILES IDX 21 1 22 2 23 3 20 5 18 6 16 7 15 8 9 9 8 10 14 11 6 12 5 13
REMARK SMILES IDX 10 14 11 16 12 17 13 18 7 20 4 22 2 23 1 25 3 26 17 27 19 29
REMARK SMILES IDX 24 31 25 32 26 33 27 34 39 35 28 36 38 37 29 38 30 39 31 40
REMARK SMILES IDX 32 42 33 43 37 44 34 45 36 46 35 47
REMARK H PARENT 21 4 10 15 13 19 7 21 4 24 17 28 19 30 31 41
REMARK Flexibility Score: inf
ROOT
ATOM      1  N   UNL     1      29.785  33.017  18.723  1.00  0.00    -0.319 N 
ATOM      2  C   UNL     1      30.262  33.584  17.515  1.00  0.00     0.407 C 
ATOM      3  O   UNL     1      31.486  33.521  17.262  1.00  0.00    -0.225 OA
ATOM      4  H   UNL     1      28.731  33.110  18.860  1.00  0.00     0.167 HD
ENDROOT
BRANCH   1   5
ATOM      5  C   UNL     1      30.610  32.364  19.713  1.00  0.00     0.154 C 
BRANCH   5   6
ATOM      6  C   UNL     1      30.255  30.901  19.877  1.00  0.00     0.165 C 
BRANCH   6   7
ATOM      7  C   UNL     1      31.241  30.222  20.830  1.00  0.00     0.176 C 
BRANCH   7   8
ATOM      8  C   UNL     1      30.610  29.725  22.103  1.00  0.00     0.178 C 
ATOM      9  C   UNL     1      32.193  28.046  22.498  1.00  0.00     0.269 C 
ATOM     10  C   UNL     1      31.500  27.211  21.498  1.00  0.00     0.112 C 
ATOM     11  O   UNL     1      31.625  29.204  22.908  1.00  0.00    -0.332 OA
ATOM     12  C   UNL     1      30.035  27.445  21.300  1.00  0.00     0.145 C 
ATOM     13  C   UNL     1      29.534  28.753  21.864  1.00  0.00     0.142 C 
BRANCH   9  14
ATOM     14  O   UNL     1      33.438  28.416  21.906  1.00  0.00    -0.357 OA
ATOM     15  H   UNL     1      33.311  29.340  21.597  1.00  0.00     0.214 HD
ENDBRANCH   9  14
BRANCH   9  16
ATOM     16  C   UNL     1      32.594  27.168  23.660  1.00  0.00     0.364 C 
ATOM     17  O   UNL     1      33.792  26.898  23.910  1.00  0.00    -0.246 OA
BRANCH  16  18
ATOM     18  O   UNL     1      31.613  26.632  24.490  1.00  0.00    -0.477 OA
ATOM     19  H   UNL     1      31.774  25.856  25.113  1.00  0.00     0.296 HD
ENDBRANCH  16  18
ENDBRANCH   9  16
BRANCH  12  20
ATOM     20  O   UNL     1      29.725  27.360  19.913  1.00  0.00    -0.391 OA
ATOM     21  H   UNL     1      28.867  27.809  19.792  1.00  0.00     0.211 HD
ENDBRANCH  12  20
BRANCH  13  22
ATOM     22  N   UNL     1      28.774  28.406  23.055  1.00  0.00    -0.348 N 
ATOM     23  C   UNL     1      27.399  28.694  23.228  1.00  0.00     0.217 C 
ATOM     24  H   UNL     1      29.313  27.915  23.801  1.00  0.00     0.163 HD
ATOM     25  C   UNL     1      26.652  28.326  24.455  1.00  0.00     0.114 C 
ATOM     26  O   UNL     1      26.837  29.288  22.271  1.00  0.00    -0.275 OA
ENDBRANCH  13  22
ENDBRANCH   7   8
BRANCH   7  27
ATOM     27  O   UNL     1      32.079  31.337  21.219  1.00  0.00    -0.388 OA
ATOM     28  H   UNL     1      32.283  31.306  22.166  1.00  0.00     0.211 HD
ENDBRANCH   7  27
ENDBRANCH   6   7
BRANCH   6  29
ATOM     29  O   UNL     1      30.205  30.311  18.635  1.00  0.00    -0.388 OA
ATOM     30  H   UNL     1      29.868  30.982  17.996  1.00  0.00     0.211 HD
ENDBRANCH   6  29
ENDBRANCH   5   6
ENDBRANCH   1   5
BRANCH   2  31
ATOM     31  O   UNL     1      29.434  34.206  16.593  1.00  0.00    -0.443 OA
BRANCH  31  32
ATOM     32  C   UNL     1      29.050  33.592  15.378  1.00  0.00     0.294 C 
BRANCH  32  33
ATOM     33  C   UNL     1      28.699  32.183  15.648  1.00  0.00     0.120 A 
ATOM     34  C   UNL     1      27.476  31.712  16.100  1.00  0.00     0.138 A 
ATOM     35  N   UNL     1      29.460  31.070  15.520  1.00  0.00    -0.132 NA
ATOM     36  N   UNL     1      27.530  30.375  16.230  1.00  0.00    -0.249 N 
ATOM     37  N   UNL     1      28.739  30.017  15.873  1.00  0.00    -0.067 NA
BRANCH  36  38
ATOM     38  C   UNL     1      26.424  29.521  16.685  1.00  0.00     0.182 C 
BRANCH  38  39
ATOM     39  C   UNL     1      26.997  28.311  17.380  1.00  0.00     0.166 C 
BRANCH  39  40
ATOM     40  O   UNL     1      27.991  28.780  18.268  1.00  0.00    -0.386 OA
ATOM     41  H   UNL     1      28.418  28.000  18.717  1.00  0.00     0.211 HD
ENDBRANCH  39  40
BRANCH  39  42
ATOM     42  C   UNL     1      25.949  27.653  18.185  1.00  0.00    -0.018 A 
ATOM     43  C   UNL     1      24.681  27.408  17.699  1.00  0.00     0.006 A 
ATOM     44  C   UNL     1      26.252  27.259  19.495  1.00  0.00     0.006 A 
ATOM     45  C   UNL     1      23.720  26.794  18.464  1.00  0.00     0.000 A 
ATOM     46  C   UNL     1      25.298  26.647  20.258  1.00  0.00     0.000 A 
ATOM     47  C   UNL     1      24.042  26.416  19.747  1.00  0.00     0.000 A 
ENDBRANCH  39  42
ENDBRANCH  38  39
ENDBRANCH  36  38
ENDBRANCH  32  33
ENDBRANCH  31  32
ENDBRANCH   2  31
TORSDOF 18
BEGIN_RES LYS A 131
REMARK  4 active torsions:
REMARK  status: ('A' for Active; 'I' for Inactive)
REMARK    1  A    between atoms: CA   and  CB  
REMARK    2  A    between atoms: CB   and  CG  
REMARK    3  A    between atoms: CG   and  CD  
REMARK    4  A    between atoms: CD   and  CE  
ROOT
ATOM      1  CA  LYS A 131      29.867  25.555  16.977  1.00 20.52     0.186 C 
ENDROOT
BRANCH   1   2
ATOM      2  CB  LYS A 131      28.345  25.722  17.026  1.00 20.94     0.034 C 
BRANCH   2   3
ATOM      3  CG  LYS A 131      27.600  24.413  16.813  1.00 22.96     0.005 C 
BRANCH   3   4
ATOM      4  CD  LYS A 131      26.825  23.998  18.033  1.00 24.33     0.041 C 
BRANCH   4   5
ATOM      5  CE  LYS A 131      25.712  23.038  17.627  1.00 26.91     0.338 C 
ATOM      6  NZ  LYS A 131      24.612  23.774  16.959  1.00 27.40     0.618 N 
ENDBRANCH   4   5
ENDBRANCH   3   4
ENDBRANCH   2   3
ENDBRANCH   1   2
END_RES LYS A 131
BEGIN_RES LYS A 135
REMARK  4 active torsions:
REMARK  status: ('A' for Active; 'I' for Inactive)
REMARK    5  A    between atoms: CA   and  CB  
REMARK    6  A    between atoms: CB   and  CG  
REMARK    7  A    between atoms: CG   and  CD  
REMARK    8  A    between atoms: CD   and  CE  
ROOT
ATOM      7  CA  LYS A 135      33.193  34.663   9.290  1.00 25.02     0.186 C 
ENDROOT
BRANCH   7   8
ATOM      8  CB  LYS A 135      32.060  35.360  10.034  1.00 26.63     0.034 C 
BRANCH   8   9
ATOM      9  CG  LYS A 135      30.709  34.738   9.793  1.00 29.45     0.005 C 
BRANCH   9  10
ATOM     10  CD  LYS A 135      30.472  34.530   8.305  1.00 32.00     0.041 C 
BRANCH  10  11
ATOM     11  CE  LYS A 135      29.023  34.806   7.952  1.00 34.25     0.338 C 
ATOM     12  NZ  LYS A 135      28.913  35.506   6.643  1.00 35.99     0.618 N 
ENDBRANCH  10  11
ENDBRANCH   9  10
ENDBRANCH   8   9
ENDBRANCH   7   8
END_RES LYS A 135
