REMARK VINA RESULT:    -6.078      4.069      8.136
REMARK INTER + INTRA:         -16.623
REMARK INTER:                  -9.013
REMARK INTRA:                  -7.610
REMARK UNBOUND:                -5.216
REMARK SMILES CC(=O)N[C@@H]1[C@@H](O)C[C@](O)(C(=O)O)O[C@H]1C(O)[C@H](O)CNC(=O)OCc1cn(-c2cc(C(=O)O)nc(-c3ccccc3)c2)nn1
REMARK SMILES IDX 21 1 22 2 23 3 20 5 18 6 16 7 15 8 9 9 8 10 14 11 6 12 5 13
REMARK SMILES IDX 10 14 11 16 12 17 13 18 7 20 4 22 2 23 1 25 3 26 17 27 19 29
REMARK SMILES IDX 24 31 25 32 26 33 27 34 45 35 28 36 44 37 29 38 30 39 43 40
REMARK SMILES IDX 31 41 36 42 35 43 32 44 33 45 34 46 37 48 38 49 42 50 39 51
REMARK SMILES IDX 41 52 40 53
REMARK H PARENT 21 4 10 15 13 19 7 21 4 24 17 28 19 30 34 47
REMARK Flexibility Score: inf
ROOT
ATOM      1  N   UNL     1      26.000  27.858  20.061  1.00  0.00    -0.319 N 
ATOM      2  C   UNL     1      26.722  27.725  18.833  1.00  0.00     0.407 C 
ATOM      3  O   UNL     1      27.710  26.946  18.806  1.00  0.00    -0.225 OA
ATOM      4  H   UNL     1      25.179  28.530  20.017  1.00  0.00     0.167 HD
ENDROOT
BRANCH   1   5
ATOM      5  C   UNL     1      26.342  27.151  21.265  1.00  0.00     0.154 C 
BRANCH   5   6
ATOM      6  C   UNL     1      26.888  28.082  22.304  1.00  0.00     0.165 C 
BRANCH   6   7
ATOM      7  C   UNL     1      28.409  28.044  22.219  1.00  0.00     0.176 C 
BRANCH   7   8
ATOM      8  C   UNL     1      28.935  29.390  21.863  1.00  0.00     0.178 C 
ATOM      9  C   UNL     1      28.829  30.972  20.161  1.00  0.00     0.269 C 
ATOM     10  C   UNL     1      29.533  31.803  21.226  1.00  0.00     0.112 C 
ATOM     11  O   UNL     1      28.352  29.778  20.637  1.00  0.00    -0.332 OA
ATOM     12  C   UNL     1      30.711  31.028  21.699  1.00  0.00     0.145 C 
ATOM     13  C   UNL     1      30.408  29.514  21.668  1.00  0.00     0.142 C 
BRANCH   9  14
ATOM     14  O   UNL     1      29.808  30.780  19.157  1.00  0.00    -0.357 OA
ATOM     15  H   UNL     1      30.101  29.838  19.260  1.00  0.00     0.214 HD
ENDBRANCH   9  14
BRANCH   9  16
ATOM     16  C   UNL     1      27.699  31.710  19.566  1.00  0.00     0.364 C 
ATOM     17  O   UNL     1      27.831  32.906  19.250  1.00  0.00    -0.246 OA
BRANCH  16  18
ATOM     18  O   UNL     1      26.490  31.085  19.352  1.00  0.00    -0.477 OA
ATOM     19  H   UNL     1      26.409  30.171  18.915  1.00  0.00     0.296 HD
ENDBRANCH  16  18
ENDBRANCH   9  16
BRANCH  12  20
ATOM     20  O   UNL     1      31.879  31.308  21.024  1.00  0.00    -0.391 OA
ATOM     21  H   UNL     1      32.502  30.550  21.073  1.00  0.00     0.211 HD
ENDBRANCH  12  20
BRANCH  13  22
ATOM     22  N   UNL     1      31.234  28.868  22.652  1.00  0.00    -0.348 N 
ATOM     23  C   UNL     1      32.029  27.710  22.320  1.00  0.00     0.217 C 
ATOM     24  H   UNL     1      31.275  29.231  23.607  1.00  0.00     0.163 HD
ATOM     25  C   UNL     1      32.887  27.020  23.295  1.00  0.00     0.114 C 
ATOM     26  O   UNL     1      31.939  27.319  21.118  1.00  0.00    -0.275 OA
ENDBRANCH  13  22
ENDBRANCH   7   8
BRANCH   7  27
ATOM     27  O   UNL     1      28.893  27.031  21.437  1.00  0.00    -0.388 OA
ATOM     28  H   UNL     1      28.928  27.206  20.480  1.00  0.00     0.211 HD
ENDBRANCH   7  27
ENDBRANCH   6   7
BRANCH   6  29
ATOM     29  O   UNL     1      26.487  27.543  23.543  1.00  0.00    -0.388 OA
ATOM     30  H   UNL     1      26.858  26.636  23.566  1.00  0.00     0.211 HD
ENDBRANCH   6  29
ENDBRANCH   5   6
ENDBRANCH   1   5
BRANCH   2  31
ATOM     31  O   UNL     1      26.337  28.438  17.708  1.00  0.00    -0.443 OA
BRANCH  31  32
ATOM     32  C   UNL     1      27.248  28.516  16.631  1.00  0.00     0.294 C 
BRANCH  32  33
ATOM     33  C   UNL     1      27.441  29.957  16.325  1.00  0.00     0.121 A 
ATOM     34  C   UNL     1      28.659  30.636  16.197  1.00  0.00     0.144 A 
ATOM     35  N   UNL     1      26.518  30.924  16.105  1.00  0.00    -0.131 NA
ATOM     36  N   UNL     1      28.432  31.931  15.916  1.00  0.00    -0.220 N 
ATOM     37  N   UNL     1      27.129  32.077  15.866  1.00  0.00    -0.062 NA
BRANCH  36  38
ATOM     38  C   UNL     1      29.478  32.905  15.721  1.00  0.00     0.071 A 
ATOM     39  C   UNL     1      29.728  33.458  14.492  1.00  0.00     0.064 A 
ATOM     40  C   UNL     1      30.269  33.308  16.790  1.00  0.00     0.057 A 
ATOM     41  C   UNL     1      30.720  34.390  14.271  1.00  0.00     0.151 A 
ATOM     42  C   UNL     1      31.259  34.234  16.585  1.00  0.00     0.073 A 
ATOM     43  N   UNL     1      31.448  34.737  15.344  1.00  0.00    -0.241 NA
BRANCH  41  44
ATOM     44  C   UNL     1      30.967  34.963  12.958  1.00  0.00     0.354 C 
ATOM     45  O   UNL     1      30.061  35.617  12.404  1.00  0.00    -0.245 OA
BRANCH  44  46
ATOM     46  O   UNL     1      32.175  34.802  12.315  1.00  0.00    -0.477 OA
ATOM     47  H   UNL     1      32.531  35.472  11.624  1.00  0.00     0.297 HD
ENDBRANCH  44  46
ENDBRANCH  41  44
BRANCH  42  48
ATOM     48  C   UNL     1      32.114  34.680  17.701  1.00  0.00     0.000 A 
ATOM     49  C   UNL     1      33.149  35.547  17.419  1.00  0.00     0.010 A 
ATOM     50  C   UNL     1      31.879  34.241  18.972  1.00  0.00     0.010 A 
ATOM     51  C   UNL     1      33.948  35.965  18.457  1.00  0.00     0.001 A 
ATOM     52  C   UNL     1      32.707  34.686  19.985  1.00  0.00     0.001 A 
ATOM     53  C   UNL     1      33.753  35.552  19.757  1.00  0.00     0.000 A 
ENDBRANCH  42  48
ENDBRANCH  36  38
ENDBRANCH  32  33
ENDBRANCH  31  32
ENDBRANCH   2  31
TORSDOF 18
BEGIN_RES LYS A 131
REMARK  4 active torsions:
REMARK  status: ('A' for Active; 'I' for Inactive)
REMARK    1  A    between atoms: CA   and  CB  
REMARK    2  A    between atoms: CB   and  CG  
REMARK    3  A    between atoms: CG   and  CD  
REMARK    4  A    between atoms: CD   and  CE  
ROOT
ATOM      1  CA  LYS A 131      29.867  25.555  16.977  1.00 20.52     0.186 C 
ENDROOT
BRANCH   1   2
ATOM      2  CB  LYS A 131      28.345  25.722  17.026  1.00 20.94     0.034 C 
BRANCH   2   3
ATOM      3  CG  LYS A 131      27.599  24.477  16.570  1.00 22.96     0.005 C 
BRANCH   3   4
ATOM      4  CD  LYS A 131      27.023  23.707  17.726  1.00 24.33     0.041 C 
BRANCH   4   5
ATOM      5  CE  LYS A 131      25.502  23.677  17.609  1.00 26.91     0.338 C 
ATOM      6  NZ  LYS A 131      24.890  24.630  18.565  1.00 27.40     0.618 N 
ENDBRANCH   4   5
ENDBRANCH   3   4
ENDBRANCH   2   3
ENDBRANCH   1   2
END_RES LYS A 131
BEGIN_RES LYS A 135
REMARK  4 active torsions:
REMARK  status: ('A' for Active; 'I' for Inactive)
REMARK    5  A    between atoms: CA   and  CB  
REMARK    6  A    between atoms: CB   and  CG  
REMARK    7  A    between atoms: CG   and  CD  
REMARK    8  A    between atoms: CD   and  CE  
ROOT
ATOM      7  CA  LYS A 135      33.193  34.663   9.290  1.00 25.02     0.186 C 
ENDROOT
BRANCH   7   8
ATOM      8  CB  LYS A 135      32.060  35.360  10.034  1.00 26.63     0.034 C 
BRANCH   8   9
ATOM      9  CG  LYS A 135      30.803  35.506   9.216  1.00 29.45     0.005 C 
BRANCH   9  10
ATOM     10  CD  LYS A 135      30.077  34.174   9.105  1.00 32.00     0.041 C 
BRANCH  10  11
ATOM     11  CE  LYS A 135      28.625  34.389   8.725  1.00 34.25     0.338 C 
ATOM     12  NZ  LYS A 135      27.716  33.626   9.624  1.00 35.99     0.618 N 
ENDBRANCH  10  11
ENDBRANCH   9  10
ENDBRANCH   8   9
ENDBRANCH   7   8
END_RES LYS A 135
