REMARK VINA RESULT:    -4.286      3.233      7.076
REMARK INTER + INTRA:         -14.472
REMARK INTER:                  -9.308
REMARK INTRA:                  -5.164
REMARK UNBOUND:                -6.804
REMARK SMILES CC(=O)N[C@@H]1[C@@H](O)C[C@](O)(C(=O)O)O[C@H]1C(O)[C@H](O)CNC(=O)OCc1cn(-c2ccccc2C(C)=O)nn1
REMARK SMILES IDX 21 1 22 2 23 3 20 5 18 6 16 7 15 8 9 9 8 10 14 11 6 12 5 13
REMARK SMILES IDX 10 14 11 16 12 17 13 18 7 20 4 22 2 23 1 25 3 26 17 27 19 29
REMARK SMILES IDX 24 31 25 32 26 33 27 34 39 35 28 36 38 37 29 38 34 39 30 40
REMARK SMILES IDX 33 41 31 42 32 43 35 44 37 45 36 46
REMARK H PARENT 21 4 10 15 13 19 7 21 4 24 17 28 19 30
REMARK Flexibility Score: inf
ROOT
ATOM      1  N   UNL     1      25.194  34.800  13.167  1.00  0.00    -0.319 N 
ATOM      2  C   UNL     1      24.728  36.032  12.591  1.00  0.00     0.407 C 
ATOM      3  O   UNL     1      25.145  37.116  13.064  1.00  0.00    -0.225 OA
ATOM      4  H   UNL     1      24.832  33.923  12.743  1.00  0.00     0.167 HD
ENDROOT
BRANCH   1   5
ATOM      5  C   UNL     1      26.107  34.828  14.272  1.00  0.00     0.154 C 
BRANCH   5   6
ATOM      6  C   UNL     1      27.559  34.722  13.941  1.00  0.00     0.165 C 
BRANCH   6   7
ATOM      7  C   UNL     1      28.411  34.190  15.054  1.00  0.00     0.176 C 
BRANCH   7   8
ATOM      8  C   UNL     1      29.829  34.697  15.054  1.00  0.00     0.178 C 
ATOM      9  C   UNL     1      31.686  35.039  13.724  1.00  0.00     0.269 C 
ATOM     10  C   UNL     1      32.609  34.247  14.631  1.00  0.00     0.112 C 
ATOM     11  O   UNL     1      30.419  34.594  13.843  1.00  0.00    -0.332 OA
ATOM     12  C   UNL     1      31.854  33.362  15.565  1.00  0.00     0.145 C 
ATOM     13  C   UNL     1      30.630  33.986  16.123  1.00  0.00     0.142 C 
BRANCH   9  14
ATOM     14  O   UNL     1      32.172  34.739  12.406  1.00  0.00    -0.357 OA
ATOM     15  H   UNL     1      32.372  35.609  11.940  1.00  0.00     0.214 HD
ENDBRANCH   9  14
BRANCH   9  16
ATOM     16  C   UNL     1      31.938  36.473  13.903  1.00  0.00     0.364 C 
ATOM     17  O   UNL     1      31.767  37.323  13.001  1.00  0.00    -0.246 OA
BRANCH  16  18
ATOM     18  O   UNL     1      32.392  36.978  15.124  1.00  0.00    -0.477 OA
ATOM     19  H   UNL     1      31.931  36.722  15.990  1.00  0.00     0.296 HD
ENDBRANCH  16  18
ENDBRANCH   9  16
BRANCH  12  20
ATOM     20  O   UNL     1      31.485  32.201  14.864  1.00  0.00    -0.391 OA
ATOM     21  H   UNL     1      31.451  32.343  13.887  1.00  0.00     0.211 HD
ENDBRANCH  12  20
BRANCH  13  22
ATOM     22  N   UNL     1      30.916  34.787  17.270  1.00  0.00    -0.348 N 
ATOM     23  C   UNL     1      30.998  34.256  18.587  1.00  0.00     0.217 C 
ATOM     24  H   UNL     1      31.078  35.805  17.153  1.00  0.00     0.163 HD
ATOM     25  C   UNL     1      31.299  35.134  19.747  1.00  0.00     0.114 C 
ATOM     26  O   UNL     1      30.820  33.031  18.811  1.00  0.00    -0.275 OA
ENDBRANCH  13  22
ENDBRANCH   7   8
BRANCH   7  27
ATOM     27  O   UNL     1      28.265  32.848  15.290  1.00  0.00    -0.388 OA
ATOM     28  H   UNL     1      27.679  32.753  16.099  1.00  0.00     0.211 HD
ENDBRANCH   7  27
ENDBRANCH   6   7
BRANCH   6  29
ATOM     29  O   UNL     1      28.004  36.095  13.754  1.00  0.00    -0.388 OA
ATOM     30  H   UNL     1      27.497  36.385  12.949  1.00  0.00     0.211 HD
ENDBRANCH   6  29
ENDBRANCH   5   6
ENDBRANCH   1   5
BRANCH   2  31
ATOM     31  O   UNL     1      23.841  36.079  11.542  1.00  0.00    -0.443 OA
BRANCH  31  32
ATOM     32  C   UNL     1      24.194  35.623  10.239  1.00  0.00     0.294 C 
BRANCH  32  33
ATOM     33  C   UNL     1      25.052  36.607   9.532  1.00  0.00     0.121 A 
ATOM     34  C   UNL     1      26.420  36.675   9.503  1.00  0.00     0.144 A 
ATOM     35  N   UNL     1      24.621  37.648   8.768  1.00  0.00    -0.131 NA
ATOM     36  N   UNL     1      26.775  37.750   8.726  1.00  0.00    -0.220 N 
ATOM     37  N   UNL     1      25.654  38.304   8.306  1.00  0.00    -0.062 NA
BRANCH  36  38
ATOM     38  C   UNL     1      28.075  38.240   8.445  1.00  0.00     0.077 A 
ATOM     39  C   UNL     1      28.746  38.042   7.288  1.00  0.00     0.043 A 
ATOM     40  C   UNL     1      28.647  38.993   9.494  1.00  0.00     0.029 A 
ATOM     41  C   UNL     1      30.021  38.597   7.144  1.00  0.00     0.014 A 
ATOM     42  C   UNL     1      29.900  39.532   9.339  1.00  0.00     0.002 A 
ATOM     43  C   UNL     1      30.566  39.323   8.161  1.00  0.00     0.001 A 
BRANCH  39  44
ATOM     44  C   UNL     1      28.235  37.278   6.171  1.00  0.00     0.161 C 
ATOM     45  O   UNL     1      27.805  37.961   5.155  1.00  0.00    -0.294 OA
ATOM     46  C   UNL     1      28.142  35.824   6.043  1.00  0.00     0.093 C 
ENDBRANCH  39  44
ENDBRANCH  36  38
ENDBRANCH  32  33
ENDBRANCH  31  32
ENDBRANCH   2  31
TORSDOF 16
BEGIN_RES LYS A 131
REMARK  4 active torsions:
REMARK  status: ('A' for Active; 'I' for Inactive)
REMARK    1  A    between atoms: CA   and  CB  
REMARK    2  A    between atoms: CB   and  CG  
REMARK    3  A    between atoms: CG   and  CD  
REMARK    4  A    between atoms: CD   and  CE  
ROOT
ATOM      1  CA  LYS A 131      29.867  25.555  16.977  1.00 20.52     0.186 C 
ENDROOT
BRANCH   1   2
ATOM      2  CB  LYS A 131      28.345  25.722  17.026  1.00 20.94     0.034 C 
BRANCH   2   3
ATOM      3  CG  LYS A 131      27.604  24.394  16.999  1.00 22.96     0.005 C 
BRANCH   3   4
ATOM      4  CD  LYS A 131      26.124  24.568  17.199  1.00 24.33     0.041 C 
BRANCH   4   5
ATOM      5  CE  LYS A 131      25.869  25.783  18.084  1.00 26.91     0.338 C 
ATOM      6  NZ  LYS A 131      25.812  25.383  19.510  1.00 27.40     0.618 N 
ENDBRANCH   4   5
ENDBRANCH   3   4
ENDBRANCH   2   3
ENDBRANCH   1   2
END_RES LYS A 131
BEGIN_RES LYS A 135
REMARK  4 active torsions:
REMARK  status: ('A' for Active; 'I' for Inactive)
REMARK    5  A    between atoms: CA   and  CB  
REMARK    6  A    between atoms: CB   and  CG  
REMARK    7  A    between atoms: CG   and  CD  
REMARK    8  A    between atoms: CD   and  CE  
ROOT
ATOM      7  CA  LYS A 135      33.193  34.663   9.290  1.00 25.02     0.186 C 
ENDROOT
BRANCH   7   8
ATOM      8  CB  LYS A 135      32.060  35.360  10.034  1.00 26.63     0.034 C 
BRANCH   8   9
ATOM      9  CG  LYS A 135      30.829  35.577   9.192  1.00 29.45     0.005 C 
BRANCH   9  10
ATOM     10  CD  LYS A 135      30.291  34.250   8.678  1.00 32.00     0.041 C 
BRANCH  10  11
ATOM     11  CE  LYS A 135      28.899  33.993   9.224  1.00 34.25     0.338 C 
ATOM     12  NZ  LYS A 135      28.802  34.395  10.654  1.00 35.99     0.618 N 
ENDBRANCH  10  11
ENDBRANCH   9  10
ENDBRANCH   8   9
ENDBRANCH   7   8
END_RES LYS A 135
