REMARK VINA RESULT:    -5.314      0.000      0.000
REMARK INTER + INTRA:         -14.387
REMARK INTER:                  -7.454
REMARK INTRA:                  -6.933
REMARK UNBOUND:                -4.724
REMARK SMILES CC(=O)N[C@@H]1[C@@H](O)C[C@](O)(C(=O)O)O[C@H]1C(O)[C@H](O)CNC(=O)OCc1cn([C@@H](C)C(=O)O)nn1
REMARK SMILES IDX 21 1 22 2 23 3 20 5 18 6 16 7 15 8 9 9 8 10 14 11 6 12 5 13
REMARK SMILES IDX 10 14 11 16 12 17 13 18 7 20 4 22 2 23 1 25 3 26 17 27 19 29
REMARK SMILES IDX 24 31 25 32 26 33 27 34 35 35 28 36 34 37 29 38 30 39 31 40
REMARK SMILES IDX 32 41 33 42
REMARK H PARENT 21 4 10 15 13 19 7 21 4 24 17 28 19 30 33 43
REMARK Flexibility Score: inf
ROOT
ATOM      1  N   UNL     1      29.439  29.850  19.201  1.00  0.00    -0.319 N 
ATOM      2  C   UNL     1      28.163  29.704  19.793  1.00  0.00     0.407 C 
ATOM      3  O   UNL     1      27.614  30.643  20.422  1.00  0.00    -0.225 OA
ATOM      4  H   UNL     1      29.848  29.044  18.693  1.00  0.00     0.167 HD
ENDROOT
BRANCH   1   5
ATOM      5  C   UNL     1      30.178  31.076  19.282  1.00  0.00     0.154 C 
BRANCH   5   6
ATOM      6  C   UNL     1      30.382  31.740  17.916  1.00  0.00     0.165 C 
BRANCH   6   7
ATOM      7  C   UNL     1      29.250  32.686  17.710  1.00  0.00     0.176 C 
BRANCH   7   8
ATOM      8  C   UNL     1      29.585  34.005  17.102  1.00  0.00     0.178 C 
ATOM      9  C   UNL     1      28.196  33.900  15.228  1.00  0.00     0.269 C 
ATOM     10  C   UNL     1      29.270  33.120  14.581  1.00  0.00     0.112 C 
ATOM     11  O   UNL     1      28.448  34.462  16.451  1.00  0.00    -0.332 OA
ATOM     12  C   UNL     1      30.674  33.484  14.911  1.00  0.00     0.145 C 
ATOM     13  C   UNL     1      30.812  34.092  16.278  1.00  0.00     0.142 C 
BRANCH   9  14
ATOM     14  O   UNL     1      27.128  32.990  15.450  1.00  0.00    -0.357 OA
ATOM     15  H   UNL     1      26.370  33.301  14.912  1.00  0.00     0.214 HD
ENDBRANCH   9  14
BRANCH   9  16
ATOM     16  C   UNL     1      27.676  34.913  14.269  1.00  0.00     0.364 C 
ATOM     17  O   UNL     1      28.205  36.052  14.150  1.00  0.00    -0.246 OA
BRANCH  16  18
ATOM     18  O   UNL     1      26.583  34.636  13.466  1.00  0.00    -0.477 OA
ATOM     19  H   UNL     1      26.622  34.623  12.452  1.00  0.00     0.296 HD
ENDBRANCH  16  18
ENDBRANCH   9  16
BRANCH  12  20
ATOM     20  O   UNL     1      31.450  32.316  14.785  1.00  0.00    -0.391 OA
ATOM     21  H   UNL     1      30.929  31.595  15.216  1.00  0.00     0.211 HD
ENDBRANCH  12  20
BRANCH  13  22
ATOM     22  N   UNL     1      31.102  35.531  16.118  1.00  0.00    -0.348 N 
ATOM     23  C   UNL     1      32.423  36.024  16.196  1.00  0.00     0.217 C 
ATOM     24  H   UNL     1      30.354  36.227  15.945  1.00  0.00     0.163 HD
ATOM     25  C   UNL     1      32.761  37.451  16.042  1.00  0.00     0.114 C 
ATOM     26  O   UNL     1      33.388  35.217  16.407  1.00  0.00    -0.275 OA
ENDBRANCH  13  22
ENDBRANCH   7   8
BRANCH   7  27
ATOM     27  O   UNL     1      28.793  33.004  19.030  1.00  0.00    -0.388 OA
ATOM     28  H   UNL     1      28.218  33.800  18.901  1.00  0.00     0.211 HD
ENDBRANCH   7  27
ENDBRANCH   6   7
BRANCH   6  29
ATOM     29  O   UNL     1      30.359  30.697  16.999  1.00  0.00    -0.388 OA
ATOM     30  H   UNL     1      29.847  31.011  16.211  1.00  0.00     0.211 HD
ENDBRANCH   6  29
ENDBRANCH   5   6
ENDBRANCH   1   5
BRANCH   2  31
ATOM     31  O   UNL     1      27.457  28.489  19.698  1.00  0.00    -0.443 OA
BRANCH  31  32
ATOM     32  C   UNL     1      27.356  27.808  18.461  1.00  0.00     0.294 C 
BRANCH  32  33
ATOM     33  C   UNL     1      26.856  28.708  17.391  1.00  0.00     0.120 A 
ATOM     34  C   UNL     1      25.518  28.917  17.047  1.00  0.00     0.139 A 
ATOM     35  N   UNL     1      27.552  29.497  16.543  1.00  0.00    -0.132 NA
ATOM     36  N   UNL     1      25.463  29.794  16.040  1.00  0.00    -0.238 N 
ATOM     37  N   UNL     1      26.690  30.139  15.742  1.00  0.00    -0.066 NA
BRANCH  36  38
ATOM     38  C   UNL     1      24.255  30.294  15.373  1.00  0.00     0.215 C 
ATOM     39  C   UNL     1      23.561  31.310  16.264  1.00  0.00     0.046 C 
BRANCH  38  40
ATOM     40  C   UNL     1      24.554  30.876  14.066  1.00  0.00     0.328 C 
ATOM     41  O   UNL     1      24.409  30.191  13.028  1.00  0.00    -0.250 OA
BRANCH  40  42
ATOM     42  O   UNL     1      25.005  32.182  13.885  1.00  0.00    -0.480 OA
ATOM     43  H   UNL     1      25.992  32.383  13.769  1.00  0.00     0.296 HD
ENDBRANCH  40  42
ENDBRANCH  38  40
ENDBRANCH  36  38
ENDBRANCH  32  33
ENDBRANCH  31  32
ENDBRANCH   2  31
TORSDOF 17
BEGIN_RES LYS A 131
REMARK  4 active torsions:
REMARK  status: ('A' for Active; 'I' for Inactive)
REMARK    1  A    between atoms: CA   and  CB  
REMARK    2  A    between atoms: CB   and  CG  
REMARK    3  A    between atoms: CG   and  CD  
REMARK    4  A    between atoms: CD   and  CE  
ROOT
ATOM      1  CA  LYS A 131      29.867  25.555  16.977  1.00 20.52     0.186 C 
ENDROOT
BRANCH   1   2
ATOM      2  CB  LYS A 131      28.345  25.722  17.026  1.00 20.94     0.034 C 
BRANCH   2   3
ATOM      3  CG  LYS A 131      27.601  24.407  16.857  1.00 22.96     0.005 C 
BRANCH   3   4
ATOM      4  CD  LYS A 131      26.150  24.524  17.235  1.00 24.33     0.041 C 
BRANCH   4   5
ATOM      5  CE  LYS A 131      25.600  23.143  17.578  1.00 26.91     0.338 C 
ATOM      6  NZ  LYS A 131      24.201  23.011  17.110  1.00 27.40     0.618 N 
ENDBRANCH   4   5
ENDBRANCH   3   4
ENDBRANCH   2   3
ENDBRANCH   1   2
END_RES LYS A 131
BEGIN_RES LYS A 135
REMARK  4 active torsions:
REMARK  status: ('A' for Active; 'I' for Inactive)
REMARK    5  A    between atoms: CA   and  CB  
REMARK    6  A    between atoms: CB   and  CG  
REMARK    7  A    between atoms: CG   and  CD  
REMARK    8  A    between atoms: CD   and  CE  
ROOT
ATOM      7  CA  LYS A 135      33.193  34.663   9.290  1.00 25.02     0.186 C 
ENDROOT
BRANCH   7   8
ATOM      8  CB  LYS A 135      32.060  35.360  10.034  1.00 26.63     0.034 C 
BRANCH   8   9
ATOM      9  CG  LYS A 135      30.715  34.714   9.825  1.00 29.45     0.005 C 
BRANCH   9  10
ATOM     10  CD  LYS A 135      30.469  34.451   8.348  1.00 32.00     0.041 C 
BRANCH  10  11
ATOM     11  CE  LYS A 135      29.411  35.395   7.808  1.00 34.25     0.338 C 
ATOM     12  NZ  LYS A 135      28.049  34.810   7.949  1.00 35.99     0.618 N 
ENDBRANCH  10  11
ENDBRANCH   9  10
ENDBRANCH   8   9
ENDBRANCH   7   8
END_RES LYS A 135
