REMARK VINA RESULT:    -4.849      0.000      0.000
REMARK INTER + INTRA:         -16.031
REMARK INTER:                 -11.196
REMARK INTRA:                  -4.835
REMARK UNBOUND:                -6.788
REMARK SMILES CC(=O)N[C@@H]1[C@@H](O)C[C@](O)(C(=O)O)O[C@H]1C(O)[C@H](O)CNC(=O)OCc1cn(CC(=O)NCc2cccs2)nn1
REMARK SMILES IDX 21 1 22 2 23 3 20 5 18 6 16 7 15 8 9 9 8 10 14 11 6 12 5 13
REMARK SMILES IDX 10 14 11 16 12 17 13 18 7 20 4 22 2 23 1 25 3 26 17 27 19 29
REMARK SMILES IDX 24 31 25 32 26 33 27 34 40 35 28 36 39 37 29 38 30 39 31 40
REMARK SMILES IDX 32 41 33 43 34 44 35 45 38 46 36 47 37 48
REMARK H PARENT 21 4 10 15 13 19 7 21 4 24 17 28 19 30 32 42
REMARK Flexibility Score: inf
ROOT
ATOM      1  N   UNL     1      24.838  36.617  11.276  1.00  0.00    -0.319 N 
ATOM      2  C   UNL     1      25.168  35.565  12.156  1.00  0.00     0.407 C 
ATOM      3  O   UNL     1      24.651  34.438  11.961  1.00  0.00    -0.225 OA
ATOM      4  H   UNL     1      25.278  37.546  11.457  1.00  0.00     0.167 HD
ENDROOT
BRANCH   1   5
ATOM      5  C   UNL     1      23.938  36.505  10.145  1.00  0.00     0.154 C 
BRANCH   5   6
ATOM      6  C   UNL     1      24.682  36.667   8.849  1.00  0.00     0.165 C 
BRANCH   6   7
ATOM      7  C   UNL     1      26.103  37.095   8.994  1.00  0.00     0.176 C 
BRANCH   7   8
ATOM      8  C   UNL     1      27.078  36.634   7.977  1.00  0.00     0.178 C 
ATOM      9  C   UNL     1      29.256  35.780   7.955  1.00  0.00     0.269 C 
ATOM     10  C   UNL     1      28.858  35.500   6.517  1.00  0.00     0.112 C 
ATOM     11  O   UNL     1      28.241  36.259   8.728  1.00  0.00    -0.332 OA
ATOM     12  C   UNL     1      28.358  36.770   5.923  1.00  0.00     0.145 C 
ATOM     13  C   UNL     1      27.574  37.589   6.969  1.00  0.00     0.142 C 
BRANCH   9  14
ATOM     14  O   UNL     1      30.340  36.675   7.872  1.00  0.00    -0.357 OA
ATOM     15  H   UNL     1      31.083  36.322   8.434  1.00  0.00     0.214 HD
ENDBRANCH   9  14
BRANCH   9  16
ATOM     16  C   UNL     1      29.761  34.540   8.602  1.00  0.00     0.364 C 
ATOM     17  O   UNL     1      30.938  34.184   8.391  1.00  0.00    -0.246 OA
BRANCH  16  18
ATOM     18  O   UNL     1      28.960  33.765   9.436  1.00  0.00    -0.477 OA
ATOM     19  H   UNL     1      28.015  33.575   9.100  1.00  0.00     0.296 HD
ENDBRANCH  16  18
ENDBRANCH   9  16
BRANCH  12  20
ATOM     20  O   UNL     1      29.338  37.538   5.334  1.00  0.00    -0.391 OA
ATOM     21  H   UNL     1      29.233  37.563   4.350  1.00  0.00     0.211 HD
ENDBRANCH  12  20
BRANCH  13  22
ATOM     22  N   UNL     1      26.642  38.354   6.228  1.00  0.00    -0.348 N 
ATOM     23  C   UNL     1      26.538  39.746   6.436  1.00  0.00     0.217 C 
ATOM     24  H   UNL     1      26.023  37.926   5.526  1.00  0.00     0.163 HD
ATOM     25  C   UNL     1      25.569  40.596   5.679  1.00  0.00     0.114 C 
ATOM     26  O   UNL     1      27.265  40.366   7.283  1.00  0.00    -0.275 OA
ENDBRANCH  13  22
ENDBRANCH   7   8
BRANCH   7  27
ATOM     27  O   UNL     1      26.289  38.379   9.485  1.00  0.00    -0.388 OA
ATOM     28  H   UNL     1      26.567  39.027   8.825  1.00  0.00     0.211 HD
ENDBRANCH   7  27
ENDBRANCH   6   7
BRANCH   6  29
ATOM     29  O   UNL     1      23.989  37.375   7.877  1.00  0.00    -0.388 OA
ATOM     30  H   UNL     1      24.514  38.109   7.482  1.00  0.00     0.211 HD
ENDBRANCH   6  29
ENDBRANCH   5   6
ENDBRANCH   1   5
BRANCH   2  31
ATOM     31  O   UNL     1      26.049  35.734  13.233  1.00  0.00    -0.443 OA
BRANCH  31  32
ATOM     32  C   UNL     1      27.115  36.663  13.155  1.00  0.00     0.294 C 
BRANCH  32  33
ATOM     33  C   UNL     1      28.388  35.897  13.056  1.00  0.00     0.120 A 
ATOM     34  C   UNL     1      29.471  35.930  13.910  1.00  0.00     0.138 A 
ATOM     35  N   UNL     1      28.734  35.016  12.105  1.00  0.00    -0.132 NA
ATOM     36  N   UNL     1      30.413  35.089  13.458  1.00  0.00    -0.243 N 
ATOM     37  N   UNL     1      29.939  34.545  12.358  1.00  0.00    -0.067 NA
BRANCH  36  38
ATOM     38  C   UNL     1      31.710  34.853  14.114  1.00  0.00     0.245 C 
BRANCH  38  39
ATOM     39  C   UNL     1      31.500  33.753  15.084  1.00  0.00     0.242 C 
ATOM     40  O   UNL     1      31.898  33.921  16.284  1.00  0.00    -0.273 OA
ATOM     41  N   UNL     1      30.886  32.513  14.791  1.00  0.00    -0.350 N 
ATOM     42  H   UNL     1      30.564  32.378  13.816  1.00  0.00     0.163 HD
BRANCH  41  43
ATOM     43  C   UNL     1      30.701  31.468  15.771  1.00  0.00     0.162 C 
BRANCH  43  44
ATOM     44  C   UNL     1      29.207  31.226  15.863  1.00  0.00     0.024 A 
ATOM     45  C   UNL     1      28.536  30.083  15.936  1.00  0.00     0.017 A 
ATOM     46  S   UNL     1      27.979  32.449  15.891  1.00  0.00    -0.147 S 
ATOM     47  C   UNL     1      27.188  30.079  16.011  1.00  0.00     0.012 A 
ATOM     48  C   UNL     1      26.576  31.342  16.004  1.00  0.00     0.065 A 
ENDBRANCH  43  44
ENDBRANCH  41  43
ENDBRANCH  38  39
ENDBRANCH  36  38
ENDBRANCH  32  33
ENDBRANCH  31  32
ENDBRANCH   2  31
TORSDOF 18
BEGIN_RES LYS A 131
REMARK  4 active torsions:
REMARK  status: ('A' for Active; 'I' for Inactive)
REMARK    1  A    between atoms: CA   and  CB  
REMARK    2  A    between atoms: CB   and  CG  
REMARK    3  A    between atoms: CG   and  CD  
REMARK    4  A    between atoms: CD   and  CE  
ROOT
ATOM      1  CA  LYS A 131      29.867  25.555  16.977  1.00 20.52     0.186 C 
ENDROOT
BRANCH   1   2
ATOM      2  CB  LYS A 131      28.345  25.722  17.026  1.00 20.94     0.034 C 
BRANCH   2   3
ATOM      3  CG  LYS A 131      27.601  24.401  16.900  1.00 22.96     0.005 C 
BRANCH   3   4
ATOM      4  CD  LYS A 131      26.159  24.522  17.307  1.00 24.33     0.041 C 
BRANCH   4   5
ATOM      5  CE  LYS A 131      25.884  23.594  18.486  1.00 26.91     0.338 C 
ATOM      6  NZ  LYS A 131      25.483  24.375  19.680  1.00 27.40     0.618 N 
ENDBRANCH   4   5
ENDBRANCH   3   4
ENDBRANCH   2   3
ENDBRANCH   1   2
END_RES LYS A 131
BEGIN_RES LYS A 135
REMARK  4 active torsions:
REMARK  status: ('A' for Active; 'I' for Inactive)
REMARK    5  A    between atoms: CA   and  CB  
REMARK    6  A    between atoms: CB   and  CG  
REMARK    7  A    between atoms: CG   and  CD  
REMARK    8  A    between atoms: CD   and  CE  
ROOT
ATOM      7  CA  LYS A 135      33.193  34.663   9.290  1.00 25.02     0.186 C 
ENDROOT
BRANCH   7   8
ATOM      8  CB  LYS A 135      32.060  35.360  10.034  1.00 26.63     0.034 C 
BRANCH   8   9
ATOM      9  CG  LYS A 135      32.529  36.453  10.960  1.00 29.45     0.005 C 
BRANCH   9  10
ATOM     10  CD  LYS A 135      31.594  37.650  10.894  1.00 32.00     0.041 C 
BRANCH  10  11
ATOM     11  CE  LYS A 135      31.495  38.323  12.250  1.00 34.25     0.338 C 
ATOM     12  NZ  LYS A 135      31.135  39.761  12.110  1.00 35.99     0.618 N 
ENDBRANCH  10  11
ENDBRANCH   9  10
ENDBRANCH   8   9
ENDBRANCH   7   8
END_RES LYS A 135
