REMARK VINA RESULT:    -4.596      7.864     13.951
REMARK INTER + INTRA:         -15.037
REMARK INTER:                  -8.857
REMARK INTRA:                  -6.180
REMARK UNBOUND:                -6.277
REMARK SMILES CC(=O)N[C@@H]1[C@@H](O)C[C@](O)(C(=O)O)O[C@H]1C(O)[C@H](O)CNC(=O)OCc1cn(CCNS(C)(=O)=O)nn1
REMARK SMILES IDX 21 1 22 2 23 3 20 5 18 6 16 7 15 8 9 9 8 10 14 11 6 12 5 13
REMARK SMILES IDX 10 14 11 16 12 17 13 18 7 20 4 22 2 23 1 25 3 26 17 27 19 29
REMARK SMILES IDX 24 31 25 32 26 33 27 34 37 35 28 36 36 37 29 38 30 39 31 40
REMARK SMILES IDX 32 42 34 43 35 44 33 45
REMARK H PARENT 21 4 10 15 13 19 7 21 4 24 17 28 19 30 31 41
REMARK Flexibility Score: inf
ROOT
ATOM      1  N   UNL     1      29.363  41.297   6.755  1.00  0.00    -0.319 N 
ATOM      2  C   UNL     1      29.559  41.407   5.363  1.00  0.00     0.407 C 
ATOM      3  O   UNL     1      30.577  41.001   4.781  1.00  0.00    -0.225 OA
ATOM      4  H   UNL     1      28.444  41.674   7.139  1.00  0.00     0.167 HD
ENDROOT
BRANCH   1   5
ATOM      5  C   UNL     1      30.272  40.734   7.681  1.00  0.00     0.154 C 
BRANCH   5   6
ATOM      6  C   UNL     1      30.352  39.228   7.736  1.00  0.00     0.165 C 
BRANCH   6   7
ATOM      7  C   UNL     1      29.427  38.781   8.825  1.00  0.00     0.176 C 
BRANCH   7   8
ATOM      8  C   UNL     1      28.952  37.364   8.778  1.00  0.00     0.178 C 
ATOM      9  C   UNL     1      29.272  35.413   7.518  1.00  0.00     0.269 C 
ATOM     10  C   UNL     1      27.858  35.000   7.748  1.00  0.00     0.112 C 
ATOM     11  O   UNL     1      29.619  36.661   7.860  1.00  0.00    -0.332 OA
ATOM     12  C   UNL     1      26.911  36.157   7.911  1.00  0.00     0.145 C 
ATOM     13  C   UNL     1      27.462  37.207   8.815  1.00  0.00     0.142 C 
BRANCH   9  14
ATOM     14  O   UNL     1      29.570  35.218   6.164  1.00  0.00    -0.357 OA
ATOM     15  H   UNL     1      29.216  35.978   5.653  1.00  0.00     0.214 HD
ENDBRANCH   9  14
BRANCH   9  16
ATOM     16  C   UNL     1      30.150  34.470   8.268  1.00  0.00     0.364 C 
ATOM     17  O   UNL     1      29.754  33.733   9.190  1.00  0.00    -0.246 OA
BRANCH  16  18
ATOM     18  O   UNL     1      31.516  34.377   7.944  1.00  0.00    -0.477 OA
ATOM     19  H   UNL     1      31.835  34.439   6.985  1.00  0.00     0.296 HD
ENDBRANCH  16  18
ENDBRANCH   9  16
BRANCH  12  20
ATOM     20  O   UNL     1      26.557  36.620   6.650  1.00  0.00    -0.391 OA
ATOM     21  H   UNL     1      27.205  37.333   6.415  1.00  0.00     0.211 HD
ENDBRANCH  12  20
BRANCH  13  22
ATOM     22  N   UNL     1      26.972  36.939  10.154  1.00  0.00    -0.348 N 
ATOM     23  C   UNL     1      26.126  37.825  10.873  1.00  0.00     0.217 C 
ATOM     24  H   UNL     1      27.230  36.046  10.673  1.00  0.00     0.163 HD
ATOM     25  C   UNL     1      25.646  37.503  12.258  1.00  0.00     0.114 C 
ATOM     26  O   UNL     1      25.797  38.893  10.294  1.00  0.00    -0.275 OA
ENDBRANCH  13  22
ENDBRANCH   7   8
BRANCH   7  27
ATOM     27  O   UNL     1      28.323  39.679   8.743  1.00  0.00    -0.388 OA
ATOM     28  H   UNL     1      27.706  39.408   8.031  1.00  0.00     0.211 HD
ENDBRANCH   7  27
ENDBRANCH   6   7
BRANCH   6  29
ATOM     29  O   UNL     1      31.661  38.850   7.861  1.00  0.00    -0.388 OA
ATOM     30  H   UNL     1      31.776  38.090   8.445  1.00  0.00     0.211 HD
ENDBRANCH   6  29
ENDBRANCH   5   6
ENDBRANCH   1   5
BRANCH   2  31
ATOM     31  O   UNL     1      28.576  41.999   4.577  1.00  0.00    -0.443 OA
BRANCH  31  32
ATOM     32  C   UNL     1      27.450  41.316   4.085  1.00  0.00     0.294 C 
BRANCH  32  33
ATOM     33  C   UNL     1      26.646  40.764   5.191  1.00  0.00     0.120 A 
ATOM     34  C   UNL     1      25.499  41.275   5.766  1.00  0.00     0.138 A 
ATOM     35  N   UNL     1      26.905  39.634   5.843  1.00  0.00    -0.132 NA
ATOM     36  N   UNL     1      25.100  40.448   6.742  1.00  0.00    -0.251 N 
ATOM     37  N   UNL     1      25.979  39.453   6.764  1.00  0.00    -0.067 NA
BRANCH  36  38
ATOM     38  C   UNL     1      23.970  40.532   7.630  1.00  0.00     0.162 C 
BRANCH  38  39
ATOM     39  C   UNL     1      23.084  39.303   7.547  1.00  0.00     0.122 C 
BRANCH  39  40
ATOM     40  N   UNL     1      23.741  38.245   8.284  1.00  0.00    -0.214 NA
ATOM     41  H   UNL     1      24.217  38.594   9.128  1.00  0.00     0.141 HD
BRANCH  40  42
ATOM     42  S   UNL     1      22.664  36.968   8.692  1.00  0.00     0.208 S 
ATOM     43  O   UNL     1      21.782  37.465   9.808  1.00  0.00    -0.213 OA
ATOM     44  O   UNL     1      21.869  36.579   7.487  1.00  0.00    -0.213 OA
ATOM     45  C   UNL     1      23.559  35.553   9.290  1.00  0.00     0.176 C 
ENDBRANCH  40  42
ENDBRANCH  39  40
ENDBRANCH  38  39
ENDBRANCH  36  38
ENDBRANCH  32  33
ENDBRANCH  31  32
ENDBRANCH   2  31
TORSDOF 18
BEGIN_RES LYS A 131
REMARK  4 active torsions:
REMARK  status: ('A' for Active; 'I' for Inactive)
REMARK    1  A    between atoms: CA   and  CB  
REMARK    2  A    between atoms: CB   and  CG  
REMARK    3  A    between atoms: CG   and  CD  
REMARK    4  A    between atoms: CD   and  CE  
ROOT
ATOM      1  CA  LYS A 131      29.867  25.555  16.977  1.00 20.52     0.186 C 
ENDROOT
BRANCH   1   2
ATOM      2  CB  LYS A 131      28.345  25.722  17.026  1.00 20.94     0.034 C 
BRANCH   2   3
ATOM      3  CG  LYS A 131      27.601  24.401  16.906  1.00 22.96     0.005 C 
BRANCH   3   4
ATOM      4  CD  LYS A 131      26.146  24.536  17.256  1.00 24.33     0.041 C 
BRANCH   4   5
ATOM      5  CE  LYS A 131      25.999  24.712  18.764  1.00 26.91     0.338 C 
ATOM      6  NZ  LYS A 131      25.533  23.452  19.391  1.00 27.40     0.618 N 
ENDBRANCH   4   5
ENDBRANCH   3   4
ENDBRANCH   2   3
ENDBRANCH   1   2
END_RES LYS A 131
BEGIN_RES LYS A 135
REMARK  4 active torsions:
REMARK  status: ('A' for Active; 'I' for Inactive)
REMARK    5  A    between atoms: CA   and  CB  
REMARK    6  A    between atoms: CB   and  CG  
REMARK    7  A    between atoms: CG   and  CD  
REMARK    8  A    between atoms: CD   and  CE  
ROOT
ATOM      7  CA  LYS A 135      33.193  34.663   9.290  1.00 25.02     0.186 C 
ENDROOT
BRANCH   7   8
ATOM      8  CB  LYS A 135      32.060  35.360  10.034  1.00 26.63     0.034 C 
BRANCH   8   9
ATOM      9  CG  LYS A 135      32.509  36.073  11.283  1.00 29.45     0.005 C 
BRANCH   9  10
ATOM     10  CD  LYS A 135      31.899  37.465  11.355  1.00 32.00     0.041 C 
BRANCH  10  11
ATOM     11  CE  LYS A 135      31.413  37.761  12.761  1.00 34.25     0.338 C 
ATOM     12  NZ  LYS A 135      32.002  36.810  13.744  1.00 35.99     0.618 N 
ENDBRANCH  10  11
ENDBRANCH   9  10
ENDBRANCH   8   9
ENDBRANCH   7   8
END_RES LYS A 135
