REMARK VINA RESULT:    -4.755      7.375     13.176
REMARK INTER + INTRA:         -15.997
REMARK INTER:                  -9.917
REMARK INTRA:                  -6.080
REMARK UNBOUND:                -6.934
REMARK SMILES CC(=O)N[C@@H]1[C@@H](O)C[C@](O)(C(=O)O)O[C@H]1C(O)[C@H](O)CNC(=O)OCc1cn(C(C)CC(=O)c2ccccc2)nn1
REMARK SMILES IDX 21 1 22 2 23 3 20 5 18 6 16 7 15 8 9 9 8 10 14 11 6 12 5 13
REMARK SMILES IDX 10 14 11 16 12 17 13 18 7 20 4 22 2 23 1 25 3 26 17 27 19 29
REMARK SMILES IDX 24 31 25 32 26 33 27 34 41 35 28 36 40 37 29 38 30 39 31 40
REMARK SMILES IDX 32 41 33 42 34 43 35 44 39 45 36 46 38 47 37 48
REMARK H PARENT 21 4 10 15 13 19 7 21 4 24 17 28 19 30
REMARK Flexibility Score: inf
ROOT
ATOM      1  N   UNL     1      21.601  38.489   8.197  1.00  0.00    -0.319 N 
ATOM      2  C   UNL     1      20.811  38.283   9.364  1.00  0.00     0.407 C 
ATOM      3  O   UNL     1      20.955  39.057  10.328  1.00  0.00    -0.225 OA
ATOM      4  H   UNL     1      21.417  37.786   7.417  1.00  0.00     0.167 HD
ENDROOT
BRANCH   1   5
ATOM      5  C   UNL     1      22.576  39.546   8.046  1.00  0.00     0.154 C 
BRANCH   5   6
ATOM      6  C   UNL     1      23.736  39.124   7.171  1.00  0.00     0.165 C 
BRANCH   6   7
ATOM      7  C   UNL     1      24.742  38.287   7.932  1.00  0.00     0.176 C 
BRANCH   7   8
ATOM      8  C   UNL     1      26.103  38.912   7.990  1.00  0.00     0.178 C 
ATOM      9  C   UNL     1      27.397  37.763   6.424  1.00  0.00     0.269 C 
ATOM     10  C   UNL     1      28.223  37.101   7.498  1.00  0.00     0.112 C 
ATOM     11  O   UNL     1      26.766  38.913   6.792  1.00  0.00    -0.332 OA
ATOM     12  C   UNL     1      27.502  36.987   8.807  1.00  0.00     0.145 C 
ATOM     13  C   UNL     1      26.939  38.354   9.127  1.00  0.00     0.142 C 
BRANCH   9  14
ATOM     14  O   UNL     1      26.540  36.804   5.839  1.00  0.00    -0.357 OA
ATOM     15  H   UNL     1      27.027  36.154   5.297  1.00  0.00     0.214 HD
ENDBRANCH   9  14
BRANCH   9  16
ATOM     16  C   UNL     1      28.375  38.135   5.337  1.00  0.00     0.364 C 
ATOM     17  O   UNL     1      29.582  38.322   5.536  1.00  0.00    -0.246 OA
BRANCH  16  18
ATOM     18  O   UNL     1      27.809  38.257   4.056  1.00  0.00    -0.477 OA
ATOM     19  H   UNL     1      27.192  39.022   3.834  1.00  0.00     0.296 HD
ENDBRANCH  16  18
ENDBRANCH   9  16
BRANCH  12  20
ATOM     20  O   UNL     1      26.545  36.000   8.816  1.00  0.00    -0.391 OA
ATOM     21  H   UNL     1      25.661  36.391   9.015  1.00  0.00     0.211 HD
ENDBRANCH  12  20
BRANCH  13  22
ATOM     22  N   UNL     1      28.108  39.243   9.232  1.00  0.00    -0.348 N 
ATOM     23  C   UNL     1      28.579  39.616  10.520  1.00  0.00     0.217 C 
ATOM     24  H   UNL     1      28.601  39.608   8.394  1.00  0.00     0.163 HD
ATOM     25  C   UNL     1      29.760  40.513  10.608  1.00  0.00     0.114 C 
ATOM     26  O   UNL     1      27.985  39.178  11.530  1.00  0.00    -0.275 OA
ENDBRANCH  13  22
ENDBRANCH   7   8
BRANCH   7  27
ATOM     27  O   UNL     1      24.216  38.093   9.211  1.00  0.00    -0.388 OA
ATOM     28  H   UNL     1      23.275  38.441   9.230  1.00  0.00     0.211 HD
ENDBRANCH   7  27
ENDBRANCH   6   7
BRANCH   6  29
ATOM     29  O   UNL     1      24.358  40.280   6.656  1.00  0.00    -0.388 OA
ATOM     30  H   UNL     1      25.344  40.228   6.723  1.00  0.00     0.211 HD
ENDBRANCH   6  29
ENDBRANCH   5   6
ENDBRANCH   1   5
BRANCH   2  31
ATOM     31  O   UNL     1      19.892  37.263   9.471  1.00  0.00    -0.443 OA
BRANCH  31  32
ATOM     32  C   UNL     1      20.195  35.900   9.662  1.00  0.00     0.294 C 
BRANCH  32  33
ATOM     33  C   UNL     1      21.623  35.607   9.817  1.00  0.00     0.120 A 
ATOM     34  C   UNL     1      22.280  35.356  11.029  1.00  0.00     0.138 A 
ATOM     35  N   UNL     1      22.590  35.513   8.869  1.00  0.00    -0.132 NA
ATOM     36  N   UNL     1      23.554  35.131  10.771  1.00  0.00    -0.249 N 
ATOM     37  N   UNL     1      23.722  35.229   9.484  1.00  0.00    -0.067 NA
BRANCH  36  38
ATOM     38  C   UNL     1      24.597  34.821  11.799  1.00  0.00     0.114 C 
ATOM     39  C   UNL     1      25.217  36.159  12.109  1.00  0.00     0.034 C 
BRANCH  38  40
ATOM     40  C   UNL     1      23.905  34.230  12.935  1.00  0.00     0.108 C 
BRANCH  40  41
ATOM     41  C   UNL     1      24.118  32.862  13.290  1.00  0.00     0.164 C 
ATOM     42  O   UNL     1      25.186  32.702  14.078  1.00  0.00    -0.294 OA
BRANCH  41  43
ATOM     43  C   UNL     1      23.448  31.635  12.990  1.00  0.00     0.018 A 
ATOM     44  C   UNL     1      24.196  30.433  13.019  1.00  0.00     0.012 A 
ATOM     45  C   UNL     1      22.115  31.506  12.687  1.00  0.00     0.012 A 
ATOM     46  C   UNL     1      23.613  29.219  12.758  1.00  0.00     0.001 A 
ATOM     47  C   UNL     1      21.558  30.262  12.428  1.00  0.00     0.001 A 
ATOM     48  C   UNL     1      22.278  29.112  12.456  1.00  0.00     0.000 A 
ENDBRANCH  41  43
ENDBRANCH  40  41
ENDBRANCH  38  40
ENDBRANCH  36  38
ENDBRANCH  32  33
ENDBRANCH  31  32
ENDBRANCH   2  31
TORSDOF 18
BEGIN_RES LYS A 131
REMARK  4 active torsions:
REMARK  status: ('A' for Active; 'I' for Inactive)
REMARK    1  A    between atoms: CA   and  CB  
REMARK    2  A    between atoms: CB   and  CG  
REMARK    3  A    between atoms: CG   and  CD  
REMARK    4  A    between atoms: CD   and  CE  
ROOT
ATOM      1  CA  LYS A 131      29.867  25.555  16.977  1.00 20.52     0.186 C 
ENDROOT
BRANCH   1   2
ATOM      2  CB  LYS A 131      28.345  25.722  17.026  1.00 20.94     0.034 C 
BRANCH   2   3
ATOM      3  CG  LYS A 131      27.601  24.401  16.907  1.00 22.96     0.005 C 
BRANCH   3   4
ATOM      4  CD  LYS A 131      26.157  24.525  17.305  1.00 24.33     0.041 C 
BRANCH   4   5
ATOM      5  CE  LYS A 131      25.722  23.263  18.044  1.00 26.91     0.338 C 
ATOM      6  NZ  LYS A 131      25.520  23.548  19.484  1.00 27.40     0.618 N 
ENDBRANCH   4   5
ENDBRANCH   3   4
ENDBRANCH   2   3
ENDBRANCH   1   2
END_RES LYS A 131
BEGIN_RES LYS A 135
REMARK  4 active torsions:
REMARK  status: ('A' for Active; 'I' for Inactive)
REMARK    5  A    between atoms: CA   and  CB  
REMARK    6  A    between atoms: CB   and  CG  
REMARK    7  A    between atoms: CG   and  CD  
REMARK    8  A    between atoms: CD   and  CE  
ROOT
ATOM      7  CA  LYS A 135      33.193  34.663   9.290  1.00 25.02     0.186 C 
ENDROOT
BRANCH   7   8
ATOM      8  CB  LYS A 135      32.060  35.360  10.034  1.00 26.63     0.034 C 
BRANCH   8   9
ATOM      9  CG  LYS A 135      30.701  34.774   9.748  1.00 29.45     0.005 C 
BRANCH   9  10
ATOM     10  CD  LYS A 135      29.758  35.010  10.918  1.00 32.00     0.041 C 
BRANCH  10  11
ATOM     11  CE  LYS A 135      30.542  35.228  12.198  1.00 34.25     0.338 C 
ATOM     12  NZ  LYS A 135      30.137  34.253  13.248  1.00 35.99     0.618 N 
ENDBRANCH  10  11
ENDBRANCH   9  10
ENDBRANCH   8   9
ENDBRANCH   7   8
END_RES LYS A 135
