REMARK VINA RESULT:    -5.556      0.000      0.000
REMARK INTER + INTRA:         -16.999
REMARK INTER:                 -10.794
REMARK INTRA:                  -6.205
REMARK UNBOUND:                -6.408
REMARK SMILES CC(=O)N[C@@H]1[C@@H](O)C[C@](O)(C(=O)O)O[C@H]1C(O)[C@H](O)CNC(=O)OCc1cn(-c2ccc(S(=O)(=O)Nc3nccs3)cc2)nn1
REMARK SMILES IDX 21 1 22 2 23 3 20 5 18 6 16 7 15 8 9 9 8 10 14 11 6 12 5 13
REMARK SMILES IDX 10 14 11 16 12 17 13 18 7 20 4 22 2 23 1 25 3 26 17 27 19 29
REMARK SMILES IDX 24 31 25 32 26 33 27 34 45 35 28 36 44 37 29 38 30 39 43 40
REMARK SMILES IDX 31 41 42 42 32 43 33 44 34 45 35 46 36 47 37 49 38 50 41 51
REMARK SMILES IDX 39 52 40 53
REMARK H PARENT 21 4 10 15 13 19 7 21 4 24 17 28 19 30 36 48
REMARK Flexibility Score: inf
ROOT
ATOM      1  N   UNL     1      29.737  27.051  20.362  1.00  0.00    -0.319 N 
ATOM      2  C   UNL     1      28.428  27.549  20.543  1.00  0.00     0.407 C 
ATOM      3  O   UNL     1      28.009  27.745  21.735  1.00  0.00    -0.225 OA
ATOM      4  H   UNL     1      30.083  26.891  19.401  1.00  0.00     0.167 HD
ENDROOT
BRANCH   1   5
ATOM      5  C   UNL     1      30.599  26.763  21.476  1.00  0.00     0.154 C 
BRANCH   5   6
ATOM      6  C   UNL     1      31.900  27.525  21.420  1.00  0.00     0.165 C 
BRANCH   6   7
ATOM      7  C   UNL     1      31.900  28.715  22.334  1.00  0.00     0.176 C 
BRANCH   7   8
ATOM      8  C   UNL     1      33.036  29.686  21.965  1.00  0.00     0.178 C 
ATOM      9  C   UNL     1      34.689  29.228  23.585  1.00  0.00     0.269 C 
ATOM     10  C   UNL     1      34.661  30.686  24.000  1.00  0.00     0.112 C 
ATOM     11  O   UNL     1      34.203  29.089  22.333  1.00  0.00    -0.332 OA
ATOM     12  C   UNL     1      33.207  31.093  23.970  1.00  0.00     0.145 C 
ATOM     13  C   UNL     1      32.735  31.014  22.539  1.00  0.00     0.142 C 
BRANCH   9  14
ATOM     14  O   UNL     1      33.847  28.563  24.487  1.00  0.00    -0.357 OA
ATOM     15  H   UNL     1      34.160  28.611  25.410  1.00  0.00     0.214 HD
ENDBRANCH   9  14
BRANCH   9  16
ATOM     16  C   UNL     1      36.049  28.654  23.751  1.00  0.00     0.364 C 
ATOM     17  O   UNL     1      36.971  29.042  23.020  1.00  0.00    -0.246 OA
BRANCH  16  18
ATOM     18  O   UNL     1      36.299  27.691  24.710  1.00  0.00    -0.477 OA
ATOM     19  H   UNL     1      36.823  27.935  25.563  1.00  0.00     0.296 HD
ENDBRANCH  16  18
ENDBRANCH   9  16
BRANCH  12  20
ATOM     20  O   UNL     1      32.471  30.290  24.833  1.00  0.00    -0.391 OA
ATOM     21  H   UNL     1      32.880  29.376  24.808  1.00  0.00     0.211 HD
ENDBRANCH  12  20
BRANCH  13  22
ATOM     22  N   UNL     1      33.282  32.134  21.842  1.00  0.00    -0.348 N 
ATOM     23  C   UNL     1      32.443  33.179  21.398  1.00  0.00     0.217 C 
ATOM     24  H   UNL     1      34.297  32.189  21.654  1.00  0.00     0.163 HD
ATOM     25  C   UNL     1      32.925  34.378  20.666  1.00  0.00     0.114 C 
ATOM     26  O   UNL     1      31.231  33.088  21.633  1.00  0.00    -0.275 OA
ENDBRANCH  13  22
ENDBRANCH   7   8
BRANCH   7  27
ATOM     27  O   UNL     1      30.669  29.411  22.308  1.00  0.00    -0.388 OA
ATOM     28  H   UNL     1      30.645  29.930  21.484  1.00  0.00     0.211 HD
ENDBRANCH   7  27
ENDBRANCH   6   7
BRANCH   6  29
ATOM     29  O   UNL     1      32.046  27.914  20.071  1.00  0.00    -0.388 OA
ATOM     30  H   UNL     1      31.643  27.190  19.531  1.00  0.00     0.211 HD
ENDBRANCH   6  29
ENDBRANCH   5   6
ENDBRANCH   1   5
BRANCH   2  31
ATOM     31  O   UNL     1      27.565  27.838  19.506  1.00  0.00    -0.443 OA
BRANCH  31  32
ATOM     32  C   UNL     1      27.191  29.186  19.186  1.00  0.00     0.294 C 
BRANCH  32  33
ATOM     33  C   UNL     1      28.467  29.940  19.007  1.00  0.00     0.121 A 
ATOM     34  C   UNL     1      28.780  30.821  17.970  1.00  0.00     0.144 A 
ATOM     35  N   UNL     1      29.568  29.938  19.786  1.00  0.00    -0.131 NA
ATOM     36  N   UNL     1      30.020  31.303  18.154  1.00  0.00    -0.220 N 
ATOM     37  N   UNL     1      30.460  30.743  19.263  1.00  0.00    -0.062 NA
BRANCH  36  38
ATOM     38  C   UNL     1      30.676  32.227  17.296  1.00  0.00     0.066 A 
ATOM     39  C   UNL     1      31.071  33.476  17.714  1.00  0.00     0.030 A 
ATOM     40  C   UNL     1      30.934  31.878  15.988  1.00  0.00     0.030 A 
ATOM     41  C   UNL     1      31.712  34.369  16.856  1.00  0.00     0.024 A 
ATOM     42  C   UNL     1      31.567  32.757  15.138  1.00  0.00     0.024 A 
ATOM     43  C   UNL     1      31.976  34.030  15.549  1.00  0.00     0.088 A 
BRANCH  43  44
ATOM     44  S   UNL     1      32.783  35.104  14.445  1.00  0.00     0.263 S 
ATOM     45  O   UNL     1      34.068  34.408  14.015  1.00  0.00    -0.201 OA
ATOM     46  O   UNL     1      33.196  36.316  15.207  1.00  0.00    -0.201 OA
BRANCH  44  47
ATOM     47  N   UNL     1      31.879  35.509  13.065  1.00  0.00    -0.255 N 
ATOM     48  H   UNL     1      32.409  35.851  12.218  1.00  0.00     0.182 HD
BRANCH  47  49
ATOM     49  C   UNL     1      30.485  35.442  12.914  1.00  0.00     0.196 A 
ATOM     50  N   UNL     1      29.545  34.665  12.973  1.00  0.00    -0.228 NA
ATOM     51  S   UNL     1      29.535  37.013  12.464  1.00  0.00    -0.105 S 
ATOM     52  C   UNL     1      28.287  34.897  12.778  1.00  0.00     0.125 A 
ATOM     53  C   UNL     1      27.888  36.149  12.461  1.00  0.00     0.089 A 
ENDBRANCH  47  49
ENDBRANCH  44  47
ENDBRANCH  43  44
ENDBRANCH  36  38
ENDBRANCH  32  33
ENDBRANCH  31  32
ENDBRANCH   2  31
TORSDOF 18
BEGIN_RES LYS A 131
REMARK  4 active torsions:
REMARK  status: ('A' for Active; 'I' for Inactive)
REMARK    1  A    between atoms: CA   and  CB  
REMARK    2  A    between atoms: CB   and  CG  
REMARK    3  A    between atoms: CG   and  CD  
REMARK    4  A    between atoms: CD   and  CE  
ROOT
ATOM      1  CA  LYS A 131      29.867  25.555  16.977  1.00 20.52     0.186 C 
ENDROOT
BRANCH   1   2
ATOM      2  CB  LYS A 131      28.345  25.722  17.026  1.00 20.94     0.034 C 
BRANCH   2   3
ATOM      3  CG  LYS A 131      27.601  24.402  16.895  1.00 22.96     0.005 C 
BRANCH   3   4
ATOM      4  CD  LYS A 131      26.661  24.165  18.044  1.00 24.33     0.041 C 
BRANCH   4   5
ATOM      5  CE  LYS A 131      25.545  23.224  17.603  1.00 26.91     0.338 C 
ATOM      6  NZ  LYS A 131      24.484  23.976  16.891  1.00 27.40     0.618 N 
ENDBRANCH   4   5
ENDBRANCH   3   4
ENDBRANCH   2   3
ENDBRANCH   1   2
END_RES LYS A 131
BEGIN_RES LYS A 135
REMARK  4 active torsions:
REMARK  status: ('A' for Active; 'I' for Inactive)
REMARK    5  A    between atoms: CA   and  CB  
REMARK    6  A    between atoms: CB   and  CG  
REMARK    7  A    between atoms: CG   and  CD  
REMARK    8  A    between atoms: CD   and  CE  
ROOT
ATOM      7  CA  LYS A 135      33.193  34.663   9.290  1.00 25.02     0.186 C 
ENDROOT
BRANCH   7   8
ATOM      8  CB  LYS A 135      32.060  35.360  10.034  1.00 26.63     0.034 C 
BRANCH   8   9
ATOM      9  CG  LYS A 135      30.816  35.541   9.204  1.00 29.45     0.005 C 
BRANCH   9  10
ATOM     10  CD  LYS A 135      29.951  34.291   9.253  1.00 32.00     0.041 C 
BRANCH  10  11
ATOM     11  CE  LYS A 135      28.498  34.638   8.988  1.00 34.25     0.338 C 
ATOM     12  NZ  LYS A 135      27.588  33.594   9.537  1.00 35.99     0.618 N 
ENDBRANCH  10  11
ENDBRANCH   9  10
ENDBRANCH   8   9
ENDBRANCH   7   8
END_RES LYS A 135
