REMARK VINA RESULT:    -5.390      3.461      9.490
REMARK INTER + INTRA:         -17.834
REMARK INTER:                 -10.867
REMARK INTRA:                  -6.968
REMARK UNBOUND:                -7.717
REMARK SMILES CC(=O)N[C@@H]1[C@@H](O)C[C@](O)(C(=O)O)O[C@H]1C(O)[C@H](O)CNC(=O)OCc1cn(-c2ccc(-c3c4ccc(=O)cc-4oc4cc(O)ccc34)c(C(=O)[O-])c2)nn1
REMARK SMILES IDX 21 1 22 2 23 3 20 5 18 6 16 7 15 8 9 9 8 10 14 11 6 12 5 13
REMARK SMILES IDX 10 14 11 16 12 17 13 18 7 20 4 22 2 23 1 25 3 26 17 27 19 29
REMARK SMILES IDX 24 31 25 32 26 33 27 34 55 35 28 36 54 37 29 38 53 39 30 40
REMARK SMILES IDX 49 41 31 42 32 43 50 44 51 45 52 46 33 47 48 48 34 49 47 50
REMARK SMILES IDX 42 51 40 52 35 53 46 54 43 55 41 56 39 57 36 58 44 59 37 60
REMARK SMILES IDX 38 61 45 62
REMARK H PARENT 21 4 10 15 13 19 7 21 4 24 17 28 19 30 45 63
REMARK Flexibility Score: inf
ROOT
ATOM      1  N   UNL     1      26.888  39.814   7.756  1.00  0.00    -0.319 N 
ATOM      2  C   UNL     1      27.373  40.738   8.745  1.00  0.00     0.407 C 
ATOM      3  O   UNL     1      26.505  41.322   9.450  1.00  0.00    -0.225 OA
ATOM      4  H   UNL     1      27.557  39.307   7.148  1.00  0.00     0.167 HD
ENDROOT
BRANCH   1   5
ATOM      5  C   UNL     1      25.475  39.575   7.588  1.00  0.00     0.154 C 
BRANCH   5   6
ATOM      6  C   UNL     1      25.218  38.105   7.628  1.00  0.00     0.165 C 
BRANCH   6   7
ATOM      7  C   UNL     1      25.559  37.503   8.990  1.00  0.00     0.176 C 
BRANCH   7   8
ATOM      8  C   UNL     1      24.713  36.266   9.249  1.00  0.00     0.178 C 
ATOM      9  C   UNL     1      22.401  36.511   9.402  1.00  0.00     0.269 C 
ATOM     10  C   UNL     1      22.262  35.249  10.226  1.00  0.00     0.112 C 
ATOM     11  O   UNL     1      23.518  36.434   8.609  1.00  0.00    -0.332 OA
ATOM     12  C   UNL     1      23.486  35.001  11.029  1.00  0.00     0.145 C 
ATOM     13  C   UNL     1      24.630  35.927  10.697  1.00  0.00     0.142 C 
BRANCH   9  14
ATOM     14  O   UNL     1      22.385  37.577  10.265  1.00  0.00    -0.357 OA
ATOM     15  H   UNL     1      22.350  37.337  11.208  1.00  0.00     0.214 HD
ENDBRANCH   9  14
BRANCH   9  16
ATOM     16  C   UNL     1      21.217  36.575   8.512  1.00  0.00     0.364 C 
ATOM     17  O   UNL     1      20.063  36.618   9.005  1.00  0.00    -0.246 OA
BRANCH  16  18
ATOM     18  O   UNL     1      21.312  36.591   7.130  1.00  0.00    -0.477 OA
ATOM     19  H   UNL     1      21.926  37.258   6.638  1.00  0.00     0.296 HD
ENDBRANCH  16  18
ENDBRANCH   9  16
BRANCH  12  20
ATOM     20  O   UNL     1      23.242  35.094  12.396  1.00  0.00    -0.391 OA
ATOM     21  H   UNL     1      24.053  35.237  12.933  1.00  0.00     0.211 HD
ENDBRANCH  12  20
BRANCH  13  22
ATOM     22  N   UNL     1      25.850  35.224  11.122  1.00  0.00    -0.348 N 
ATOM     23  C   UNL     1      26.845  35.811  11.923  1.00  0.00     0.217 C 
ATOM     24  H   UNL     1      25.960  34.236  10.800  1.00  0.00     0.163 HD
ATOM     25  C   UNL     1      28.047  35.038  12.310  1.00  0.00     0.114 C 
ATOM     26  O   UNL     1      26.652  37.018  12.285  1.00  0.00    -0.275 OA
ENDBRANCH  13  22
ENDBRANCH   7   8
BRANCH   7  27
ATOM     27  O   UNL     1      25.283  38.503   9.929  1.00  0.00    -0.388 OA
ATOM     28  H   UNL     1      24.465  38.214  10.415  1.00  0.00     0.211 HD
ENDBRANCH   7  27
ENDBRANCH   6   7
BRANCH   6  29
ATOM     29  O   UNL     1      25.885  37.431   6.609  1.00  0.00    -0.388 OA
ATOM     30  H   UNL     1      25.330  36.728   6.195  1.00  0.00     0.211 HD
ENDBRANCH   6  29
ENDBRANCH   5   6
ENDBRANCH   1   5
BRANCH   2  31
ATOM     31  O   UNL     1      28.697  40.996   8.942  1.00  0.00    -0.443 OA
BRANCH  31  32
ATOM     32  C   UNL     1      29.694  40.396   8.149  1.00  0.00     0.294 C 
BRANCH  32  33
ATOM     33  C   UNL     1      30.568  39.582   9.017  1.00  0.00     0.121 A 
ATOM     34  C   UNL     1      30.243  39.027  10.256  1.00  0.00     0.144 A 
ATOM     35  N   UNL     1      31.840  39.223   8.793  1.00  0.00    -0.131 NA
ATOM     36  N   UNL     1      31.313  38.363  10.728  1.00  0.00    -0.220 N 
ATOM     37  N   UNL     1      32.260  38.500   9.823  1.00  0.00    -0.062 NA
BRANCH  36  38
ATOM     38  C   UNL     1      31.332  37.681  11.972  1.00  0.00     0.067 A 
ATOM     39  C   UNL     1      30.429  37.862  12.977  1.00  0.00     0.039 A 
ATOM     40  C   UNL     1      32.355  36.754  12.190  1.00  0.00     0.029 A 
ATOM     41  C   UNL     1      30.489  37.172  14.183  1.00  0.00     0.007 A 
ATOM     42  C   UNL     1      32.435  36.063  13.367  1.00  0.00     0.012 A 
ATOM     43  C   UNL     1      31.493  36.273  14.373  1.00  0.00    -0.008 A 
BRANCH  41  44
ATOM     44  C   UNL     1      29.502  37.392  15.237  1.00  0.00     0.072 C 
ATOM     45  O   UNL     1      28.449  36.683  15.312  1.00  0.00    -0.545 OA
ATOM     46  O   UNL     1      29.692  38.373  16.172  1.00  0.00    -0.545 OA
ENDBRANCH  41  44
BRANCH  43  47
ATOM     47  C   UNL     1      31.665  35.490  15.587  1.00  0.00     0.004 A 
ATOM     48  C   UNL     1      31.129  34.237  15.787  1.00  0.00     0.026 A 
ATOM     49  C   UNL     1      32.418  36.031  16.616  1.00  0.00     0.026 A 
ATOM     50  C   UNL     1      30.371  33.664  14.784  1.00  0.00     0.016 A 
ATOM     51  C   UNL     1      31.332  33.537  16.970  1.00  0.00     0.139 A 
ATOM     52  C   UNL     1      32.601  35.258  17.835  1.00  0.00     0.139 A 
ATOM     53  C   UNL     1      32.996  37.276  16.517  1.00  0.00     0.016 A 
ATOM     54  C   UNL     1      29.812  32.404  14.939  1.00  0.00     0.047 A 
ATOM     55  C   UNL     1      30.790  32.285  17.154  1.00  0.00     0.093 A 
ATOM     56  O   UNL     1      32.045  34.054  17.941  1.00  0.00    -0.456 OA
ATOM     57  C   UNL     1      33.342  35.782  18.853  1.00  0.00     0.099 A 
ATOM     58  C   UNL     1      33.729  37.757  17.565  1.00  0.00     0.053 A 
ATOM     59  C   UNL     1      30.030  31.733  16.125  1.00  0.00     0.119 A 
ATOM     60  C   UNL     1      33.912  37.030  18.732  1.00  0.00     0.182 A 
ATOM     61  O   UNL     1      34.597  37.518  19.670  1.00  0.00    -0.290 OA
BRANCH  59  62
ATOM     62  O   UNL     1      29.474  30.476  16.289  1.00  0.00    -0.508 OA
ATOM     63  H   UNL     1      28.723  30.114  15.732  1.00  0.00     0.293 HD
ENDBRANCH  59  62
ENDBRANCH  43  47
ENDBRANCH  36  38
ENDBRANCH  32  33
ENDBRANCH  31  32
ENDBRANCH   2  31
TORSDOF 18
BEGIN_RES LYS A 131
REMARK  4 active torsions:
REMARK  status: ('A' for Active; 'I' for Inactive)
REMARK    1  A    between atoms: CA   and  CB  
REMARK    2  A    between atoms: CB   and  CG  
REMARK    3  A    between atoms: CG   and  CD  
REMARK    4  A    between atoms: CD   and  CE  
ROOT
ATOM      1  CA  LYS A 131      29.867  25.555  16.977  1.00 20.52     0.186 C 
ENDROOT
BRANCH   1   2
ATOM      2  CB  LYS A 131      28.345  25.722  17.026  1.00 20.94     0.034 C 
BRANCH   2   3
ATOM      3  CG  LYS A 131      27.601  24.403  16.887  1.00 22.96     0.005 C 
BRANCH   3   4
ATOM      4  CD  LYS A 131      26.152  24.527  17.266  1.00 24.33     0.041 C 
BRANCH   4   5
ATOM      5  CE  LYS A 131      26.041  24.885  18.745  1.00 26.91     0.338 C 
ATOM      6  NZ  LYS A 131      25.503  23.740  19.517  1.00 27.40     0.618 N 
ENDBRANCH   4   5
ENDBRANCH   3   4
ENDBRANCH   2   3
ENDBRANCH   1   2
END_RES LYS A 131
BEGIN_RES LYS A 135
REMARK  4 active torsions:
REMARK  status: ('A' for Active; 'I' for Inactive)
REMARK    5  A    between atoms: CA   and  CB  
REMARK    6  A    between atoms: CB   and  CG  
REMARK    7  A    between atoms: CG   and  CD  
REMARK    8  A    between atoms: CD   and  CE  
ROOT
ATOM      7  CA  LYS A 135      33.193  34.663   9.290  1.00 25.02     0.186 C 
ENDROOT
BRANCH   7   8
ATOM      8  CB  LYS A 135      32.060  35.360  10.034  1.00 26.63     0.034 C 
BRANCH   8   9
ATOM      9  CG  LYS A 135      30.700  34.783   9.737  1.00 29.45     0.005 C 
BRANCH   9  10
ATOM     10  CD  LYS A 135      29.934  35.680   8.777  1.00 32.00     0.041 C 
BRANCH  10  11
ATOM     11  CE  LYS A 135      29.222  34.850   7.726  1.00 34.25     0.338 C 
ATOM     12  NZ  LYS A 135      27.755  34.812   7.976  1.00 35.99     0.618 N 
ENDBRANCH  10  11
ENDBRANCH   9  10
ENDBRANCH   8   9
ENDBRANCH   7   8
END_RES LYS A 135
