REMARK VINA RESULT:    -5.052      2.694      9.889
REMARK INTER + INTRA:         -15.042
REMARK INTER:                 -11.207
REMARK INTRA:                  -3.835
REMARK UNBOUND:                -6.003
REMARK SMILES CC(=O)N[C@@H]1[C@@H](O)C[C@](O)(C(=O)O)O[C@H]1C(O)[C@H](O)CNC(=O)OCc1cn(Cc2ccc3c(c2)OCO3)nn1
REMARK SMILES IDX 21 1 22 2 23 3 20 5 18 6 16 7 15 8 9 9 8 10 14 11 6 12 5 13
REMARK SMILES IDX 10 14 11 16 12 17 13 18 7 20 4 22 2 23 1 25 3 26 17 27 19 29
REMARK SMILES IDX 24 31 25 32 26 33 27 34 40 35 28 36 39 37 29 38 30 39 31 40
REMARK SMILES IDX 35 41 32 42 34 43 33 44 36 45 38 46 37 47
REMARK H PARENT 21 4 10 15 13 19 7 21 4 24 17 28 19 30
REMARK Flexibility Score: inf
ROOT
ATOM      1  N   UNL     1      30.340  32.256  14.951  1.00  0.00    -0.319 N 
ATOM      2  C   UNL     1      30.776  33.592  14.727  1.00  0.00     0.407 C 
ATOM      3  O   UNL     1      31.515  34.164  15.593  1.00  0.00    -0.225 OA
ATOM      4  H   UNL     1      29.744  31.819  14.233  1.00  0.00     0.167 HD
ENDROOT
BRANCH   1   5
ATOM      5  C   UNL     1      30.768  31.615  16.168  1.00  0.00     0.154 C 
BRANCH   5   6
ATOM      6  C   UNL     1      29.641  31.080  16.993  1.00  0.00     0.165 C 
BRANCH   6   7
ATOM      7  C   UNL     1      28.350  30.964  16.213  1.00  0.00     0.176 C 
BRANCH   7   8
ATOM      8  C   UNL     1      27.198  30.578  17.136  1.00  0.00     0.178 C 
ATOM      9  C   UNL     1      27.036  28.422  17.978  1.00  0.00     0.269 C 
ATOM     10  C   UNL     1      25.527  28.398  17.908  1.00  0.00     0.112 C 
ATOM     11  O   UNL     1      27.572  29.673  18.085  1.00  0.00    -0.332 OA
ATOM     12  C   UNL     1      24.962  29.690  17.353  1.00  0.00     0.145 C 
ATOM     13  C   UNL     1      25.967  30.210  16.351  1.00  0.00     0.142 C 
BRANCH   9  14
ATOM     14  O   UNL     1      27.592  27.721  16.891  1.00  0.00    -0.357 OA
ATOM     15  H   UNL     1      28.450  28.086  16.609  1.00  0.00     0.214 HD
ENDBRANCH   9  14
BRANCH   9  16
ATOM     16  C   UNL     1      27.419  27.656  19.196  1.00  0.00     0.364 C 
ATOM     17  O   UNL     1      26.528  27.239  19.996  1.00  0.00    -0.246 OA
BRANCH  16  18
ATOM     18  O   UNL     1      28.729  27.355  19.530  1.00  0.00    -0.477 OA
ATOM     19  H   UNL     1      28.910  27.009  20.477  1.00  0.00     0.296 HD
ENDBRANCH  16  18
ENDBRANCH   9  16
BRANCH  12  20
ATOM     20  O   UNL     1      23.701  29.500  16.797  1.00  0.00    -0.391 OA
ATOM     21  H   UNL     1      23.828  29.077  15.913  1.00  0.00     0.211 HD
ENDBRANCH  12  20
BRANCH  13  22
ATOM     22  N   UNL     1      25.507  31.319  15.596  1.00  0.00    -0.348 N 
ATOM     23  C   UNL     1      24.851  31.172  14.346  1.00  0.00     0.217 C 
ATOM     24  H   UNL     1      25.672  32.287  16.003  1.00  0.00     0.163 HD
ATOM     25  C   UNL     1      24.376  32.366  13.574  1.00  0.00     0.114 C 
ATOM     26  O   UNL     1      24.692  29.997  13.928  1.00  0.00    -0.275 OA
ENDBRANCH  13  22
ENDBRANCH   7   8
BRANCH   7  27
ATOM     27  O   UNL     1      28.502  29.924  15.297  1.00  0.00    -0.388 OA
ATOM     28  H   UNL     1      27.615  29.625  14.980  1.00  0.00     0.211 HD
ENDBRANCH   7  27
ENDBRANCH   6   7
BRANCH   6  29
ATOM     29  O   UNL     1      29.463  31.941  18.075  1.00  0.00    -0.388 OA
ATOM     30  H   UNL     1      28.543  32.299  18.121  1.00  0.00     0.211 HD
ENDBRANCH   6  29
ENDBRANCH   5   6
ENDBRANCH   1   5
BRANCH   2  31
ATOM     31  O   UNL     1      30.429  34.315  13.591  1.00  0.00    -0.443 OA
BRANCH  31  32
ATOM     32  C   UNL     1      29.116  34.858  13.508  1.00  0.00     0.294 C 
BRANCH  32  33
ATOM     33  C   UNL     1      28.610  34.778  12.119  1.00  0.00     0.120 A 
ATOM     34  C   UNL     1      29.374  34.487  11.026  1.00  0.00     0.138 A 
ATOM     35  N   UNL     1      27.369  34.967  11.671  1.00  0.00    -0.132 NA
ATOM     36  N   UNL     1      28.576  34.508   9.949  1.00  0.00    -0.248 N 
ATOM     37  N   UNL     1      27.363  34.800  10.355  1.00  0.00    -0.067 NA
BRANCH  36  38
ATOM     38  C   UNL     1      29.001  34.250   8.590  1.00  0.00     0.181 C 
BRANCH  38  39
ATOM     39  C   UNL     1      28.832  35.523   7.833  1.00  0.00    -0.023 A 
ATOM     40  C   UNL     1      28.027  35.526   6.718  1.00  0.00     0.010 A 
ATOM     41  C   UNL     1      29.452  36.686   8.214  1.00  0.00     0.056 A 
ATOM     42  C   UNL     1      27.855  36.703   5.996  1.00  0.00     0.051 A 
ATOM     43  C   UNL     1      29.279  37.852   7.495  1.00  0.00     0.166 A 
ATOM     44  C   UNL     1      28.481  37.870   6.383  1.00  0.00     0.165 A 
ATOM     45  O   UNL     1      29.798  39.118   7.692  1.00  0.00    -0.454 OA
ATOM     46  O   UNL     1      28.473  39.141   5.848  1.00  0.00    -0.454 OA
ATOM     47  C   UNL     1      29.122  39.974   6.798  1.00  0.00     0.468 C 
ENDBRANCH  38  39
ENDBRANCH  36  38
ENDBRANCH  32  33
ENDBRANCH  31  32
ENDBRANCH   2  31
TORSDOF 16
BEGIN_RES LYS A 131
REMARK  4 active torsions:
REMARK  status: ('A' for Active; 'I' for Inactive)
REMARK    1  A    between atoms: CA   and  CB  
REMARK    2  A    between atoms: CB   and  CG  
REMARK    3  A    between atoms: CG   and  CD  
REMARK    4  A    between atoms: CD   and  CE  
ROOT
ATOM      1  CA  LYS A 131      29.867  25.555  16.977  1.00 20.52     0.186 C 
ENDROOT
BRANCH   1   2
ATOM      2  CB  LYS A 131      28.345  25.722  17.026  1.00 20.94     0.034 C 
BRANCH   2   3
ATOM      3  CG  LYS A 131      27.602  24.399  16.927  1.00 22.96     0.005 C 
BRANCH   3   4
ATOM      4  CD  LYS A 131      26.615  24.218  18.047  1.00 24.33     0.041 C 
BRANCH   4   5
ATOM      5  CE  LYS A 131      25.249  24.738  17.611  1.00 26.91     0.338 C 
ATOM      6  NZ  LYS A 131      24.235  24.474  18.659  1.00 27.40     0.618 N 
ENDBRANCH   4   5
ENDBRANCH   3   4
ENDBRANCH   2   3
ENDBRANCH   1   2
END_RES LYS A 131
BEGIN_RES LYS A 135
REMARK  4 active torsions:
REMARK  status: ('A' for Active; 'I' for Inactive)
REMARK    5  A    between atoms: CA   and  CB  
REMARK    6  A    between atoms: CB   and  CG  
REMARK    7  A    between atoms: CG   and  CD  
REMARK    8  A    between atoms: CD   and  CE  
ROOT
ATOM      7  CA  LYS A 135      33.193  34.663   9.290  1.00 25.02     0.186 C 
ENDROOT
BRANCH   7   8
ATOM      8  CB  LYS A 135      32.060  35.360  10.034  1.00 26.63     0.034 C 
BRANCH   8   9
ATOM      9  CG  LYS A 135      32.514  36.102  11.265  1.00 29.45     0.005 C 
BRANCH   9  10
ATOM     10  CD  LYS A 135      31.985  37.528  11.257  1.00 32.00     0.041 C 
BRANCH  10  11
ATOM     11  CE  LYS A 135      31.188  37.807  12.518  1.00 34.25     0.338 C 
ATOM     12  NZ  LYS A 135      31.884  37.273  13.721  1.00 35.99     0.618 N 
ENDBRANCH  10  11
ENDBRANCH   9  10
ENDBRANCH   8   9
ENDBRANCH   7   8
END_RES LYS A 135
