REMARK VINA RESULT:    -5.290      7.253     12.614
REMARK INTER + INTRA:         -15.050
REMARK INTER:                  -7.601
REMARK INTRA:                  -7.449
REMARK UNBOUND:                -5.276
REMARK SMILES COc1ccc(Cn2cc(COC(=O)NC[C@@H](O)C(O)[C@@H]3O[C@@](O)(C(=O)O)C[C@H](O)[C@H]3NC(C)=O)nn2)cc1
REMARK SMILES IDX 15 1 13 2 14 3 16 5 17 6 19 7 21 8 23 9 28 10 22 11 29 12
REMARK SMILES IDX 31 13 24 14 25 16 26 17 27 18 30 20 32 22 33 23 34 25 35 26
REMARK SMILES IDX 20 27 18 29 12 31 11 32 10 33 9 34 36 35 8 36 37 37 7 38
REMARK SMILES IDX 6 39 5 40 38 41 4 42 39 43 3 44 2 45 1 46
REMARK H PARENT 15 4 24 15 27 19 30 21 32 24 20 28 18 30
REMARK Flexibility Score: inf
ROOT
ATOM      1  N   UNL     1      31.060  38.771  11.858  1.00  0.00    -0.319 N 
ATOM      2  C   UNL     1      31.744  37.600  12.250  1.00  0.00     0.407 C 
ATOM      3  O   UNL     1      32.625  37.049  11.546  1.00  0.00    -0.225 OA
ATOM      4  H   UNL     1      30.340  39.141  12.521  1.00  0.00     0.167 HD
ENDROOT
BRANCH   1   5
ATOM      5  C   UNL     1      31.289  39.466  10.632  1.00  0.00     0.154 C 
BRANCH   5   6
ATOM      6  C   UNL     1      30.604  38.887   9.442  1.00  0.00     0.165 C 
BRANCH   6   7
ATOM      7  C   UNL     1      29.130  38.641   9.677  1.00  0.00     0.176 C 
BRANCH   7   8
ATOM      8  C   UNL     1      28.303  38.641   8.442  1.00  0.00     0.178 C 
ATOM      9  C   UNL     1      28.164  39.442   6.275  1.00  0.00     0.269 C 
ATOM     10  C   UNL     1      26.696  39.735   6.410  1.00  0.00     0.112 C 
ATOM     11  O   UNL     1      28.872  39.416   7.434  1.00  0.00    -0.332 OA
ATOM     12  C   UNL     1      26.077  39.071   7.622  1.00  0.00     0.145 C 
ATOM     13  C   UNL     1      26.981  39.339   8.777  1.00  0.00     0.142 C 
BRANCH   9  14
ATOM     14  O   UNL     1      28.684  40.526   5.520  1.00  0.00    -0.357 OA
ATOM     15  H   UNL     1      29.325  40.976   6.121  1.00  0.00     0.214 HD
ENDBRANCH   9  14
BRANCH   9  16
ATOM     16  C   UNL     1      28.308  38.240   5.420  1.00  0.00     0.364 C 
ATOM     17  O   UNL     1      29.436  37.734   5.145  1.00  0.00    -0.246 OA
BRANCH  16  18
ATOM     18  O   UNL     1      27.203  37.594   4.868  1.00  0.00    -0.477 OA
ATOM     19  H   UNL     1      26.278  37.778   5.206  1.00  0.00     0.296 HD
ENDBRANCH  16  18
ENDBRANCH   9  16
BRANCH  12  20
ATOM     20  O   UNL     1      24.790  39.539   7.804  1.00  0.00    -0.391 OA
ATOM     21  H   UNL     1      24.758  40.112   8.585  1.00  0.00     0.211 HD
ENDBRANCH  12  20
BRANCH  13  22
ATOM     22  N   UNL     1      26.449  38.975  10.051  1.00  0.00    -0.348 N 
ATOM     23  C   UNL     1      25.667  39.802  10.870  1.00  0.00     0.217 C 
ATOM     24  H   UNL     1      26.657  38.003  10.407  1.00  0.00     0.163 HD
ATOM     25  C   UNL     1      25.174  39.304  12.176  1.00  0.00     0.114 C 
ATOM     26  O   UNL     1      25.386  40.949  10.509  1.00  0.00    -0.275 OA
ENDBRANCH  13  22
ENDBRANCH   7   8
BRANCH   7  27
ATOM     27  O   UNL     1      28.971  37.466  10.380  1.00  0.00    -0.388 OA
ATOM     28  H   UNL     1      29.559  36.727  10.108  1.00  0.00     0.211 HD
ENDBRANCH   7  27
ENDBRANCH   6   7
BRANCH   6  29
ATOM     29  O   UNL     1      31.233  37.795   8.922  1.00  0.00    -0.388 OA
ATOM     30  H   UNL     1      31.142  37.834   7.922  1.00  0.00     0.211 HD
ENDBRANCH   6  29
ENDBRANCH   5   6
ENDBRANCH   1   5
BRANCH   2  31
ATOM     31  O   UNL     1      31.441  37.003  13.488  1.00  0.00    -0.443 OA
BRANCH  31  32
ATOM     32  C   UNL     1      30.805  35.746  13.485  1.00  0.00     0.294 C 
BRANCH  32  33
ATOM     33  C   UNL     1      29.353  35.850  13.256  1.00  0.00     0.120 A 
ATOM     34  C   UNL     1      28.469  34.811  12.950  1.00  0.00     0.138 A 
ATOM     35  N   UNL     1      28.588  36.956  13.290  1.00  0.00    -0.132 NA
ATOM     36  N   UNL     1      27.236  35.319  12.817  1.00  0.00    -0.248 N 
ATOM     37  N   UNL     1      27.335  36.618  13.027  1.00  0.00    -0.067 NA
BRANCH  36  38
ATOM     38  C   UNL     1      26.020  34.615  12.505  1.00  0.00     0.181 C 
BRANCH  38  39
ATOM     39  C   UNL     1      25.329  35.213  11.343  1.00  0.00    -0.026 A 
ATOM     40  C   UNL     1      25.897  35.163  10.090  1.00  0.00     0.009 A 
ATOM     41  C   UNL     1      24.114  35.823  11.515  1.00  0.00     0.009 A 
ATOM     42  C   UNL     1      25.238  35.729   9.002  1.00  0.00     0.047 A 
ATOM     43  C   UNL     1      23.444  36.394  10.434  1.00  0.00     0.047 A 
ATOM     44  C   UNL     1      24.010  36.342   9.186  1.00  0.00     0.118 A 
BRANCH  44  45
ATOM     45  O   UNL     1      23.365  36.904   8.082  1.00  0.00    -0.497 OA
ATOM     46  C   UNL     1      22.011  37.307   8.196  1.00  0.00     0.278 C 
ENDBRANCH  44  45
ENDBRANCH  38  39
ENDBRANCH  36  38
ENDBRANCH  32  33
ENDBRANCH  31  32
ENDBRANCH   2  31
TORSDOF 17
BEGIN_RES LYS A 131
REMARK  4 active torsions:
REMARK  status: ('A' for Active; 'I' for Inactive)
REMARK    1  A    between atoms: CA   and  CB  
REMARK    2  A    between atoms: CB   and  CG  
REMARK    3  A    between atoms: CG   and  CD  
REMARK    4  A    between atoms: CD   and  CE  
ROOT
ATOM      1  CA  LYS A 131      29.867  25.555  16.977  1.00 20.52     0.186 C 
ENDROOT
BRANCH   1   2
ATOM      2  CB  LYS A 131      28.345  25.722  17.026  1.00 20.94     0.034 C 
BRANCH   2   3
ATOM      3  CG  LYS A 131      27.601  24.403  16.883  1.00 22.96     0.005 C 
BRANCH   3   4
ATOM      4  CD  LYS A 131      26.149  24.529  17.251  1.00 24.33     0.041 C 
BRANCH   4   5
ATOM      5  CE  LYS A 131      25.629  23.181  17.740  1.00 26.91     0.338 C 
ATOM      6  NZ  LYS A 131      24.276  22.918  17.195  1.00 27.40     0.618 N 
ENDBRANCH   4   5
ENDBRANCH   3   4
ENDBRANCH   2   3
ENDBRANCH   1   2
END_RES LYS A 131
BEGIN_RES LYS A 135
REMARK  4 active torsions:
REMARK  status: ('A' for Active; 'I' for Inactive)
REMARK    5  A    between atoms: CA   and  CB  
REMARK    6  A    between atoms: CB   and  CG  
REMARK    7  A    between atoms: CG   and  CD  
REMARK    8  A    between atoms: CD   and  CE  
ROOT
ATOM      7  CA  LYS A 135      33.193  34.663   9.290  1.00 25.02     0.186 C 
ENDROOT
BRANCH   7   8
ATOM      8  CB  LYS A 135      32.060  35.360  10.034  1.00 26.63     0.034 C 
BRANCH   8   9
ATOM      9  CG  LYS A 135      30.745  34.628   9.952  1.00 29.45     0.005 C 
BRANCH   9  10
ATOM     10  CD  LYS A 135      30.329  34.432   8.503  1.00 32.00     0.041 C 
BRANCH  10  11
ATOM     11  CE  LYS A 135      28.818  34.439   8.377  1.00 34.25     0.338 C 
ATOM     12  NZ  LYS A 135      28.382  35.203   7.176  1.00 35.99     0.618 N 
ENDBRANCH  10  11
ENDBRANCH   9  10
ENDBRANCH   8   9
ENDBRANCH   7   8
END_RES LYS A 135
