REMARK VINA RESULT:    -5.471      3.484      6.918
REMARK INTER + INTRA:         -14.629
REMARK INTER:                  -8.451
REMARK INTRA:                  -6.178
REMARK UNBOUND:                -5.161
REMARK SMILES CC(=O)N[C@@H]1[C@@H](O)C[C@](O)(C(=O)O)O[C@H]1C(O)[C@H](O)CNC(=O)OCc1cn(-c2ccc(Br)cc2)nn1
REMARK SMILES IDX 20 1 18 2 16 3 15 4 9 5 8 6 14 7 6 8 5 9 10 10 11 12 12 13
REMARK SMILES IDX 13 14 7 16 4 18 2 19 1 21 3 22 17 23 19 25 21 27 22 28 23 30
REMARK SMILES IDX 24 31 25 32 26 33 27 34 37 35 28 36 36 37 29 38 30 39 35 40
REMARK SMILES IDX 31 41 34 42 32 43 33 44
REMARK H PARENT 10 11 13 15 7 17 4 20 17 24 19 26 21 29
REMARK Flexibility Score: inf
ROOT
ATOM      1  C   UNL     1      26.702  32.464  15.843  1.00  0.00     0.154 C 
ENDROOT
BRANCH   1   2
ATOM      2  C   UNL     1      27.729  33.422  15.317  1.00  0.00     0.165 C 
BRANCH   2   3
ATOM      3  C   UNL     1      28.346  34.319  16.330  1.00  0.00     0.176 C 
BRANCH   3   4
ATOM      4  C   UNL     1      29.845  34.486  16.184  1.00  0.00     0.178 C 
ATOM      5  C   UNL     1      31.346  34.782  14.405  1.00  0.00     0.269 C 
ATOM      6  C   UNL     1      32.309  33.977  15.233  1.00  0.00     0.112 C 
ATOM      7  O   UNL     1      30.071  34.617  14.819  1.00  0.00    -0.332 OA
ATOM      8  C   UNL     1      31.575  32.761  15.747  1.00  0.00     0.145 C 
ATOM      9  C   UNL     1      30.514  33.260  16.738  1.00  0.00     0.142 C 
BRANCH   5  10
ATOM     10  O   UNL     1      31.403  34.319  13.060  1.00  0.00    -0.357 OA
ATOM     11  H   UNL     1      30.491  33.973  12.875  1.00  0.00     0.214 HD
ENDBRANCH   5  10
BRANCH   5  12
ATOM     12  C   UNL     1      31.693  36.230  14.414  1.00  0.00     0.364 C 
ATOM     13  O   UNL     1      31.146  37.071  13.680  1.00  0.00    -0.246 OA
BRANCH  12  14
ATOM     14  O   UNL     1      32.676  36.673  15.283  1.00  0.00    -0.477 OA
ATOM     15  H   UNL     1      33.663  36.442  15.167  1.00  0.00     0.296 HD
ENDBRANCH  12  14
ENDBRANCH   5  12
BRANCH   8  16
ATOM     16  O   UNL     1      30.875  32.210  14.675  1.00  0.00    -0.391 OA
ATOM     17  H   UNL     1      31.340  32.296  13.821  1.00  0.00     0.211 HD
ENDBRANCH   8  16
BRANCH   9  18
ATOM     18  N   UNL     1      31.242  33.610  17.925  1.00  0.00    -0.348 N 
ATOM     19  C   UNL     1      30.949  33.107  19.215  1.00  0.00     0.217 C 
ATOM     20  H   UNL     1      32.051  34.282  17.866  1.00  0.00     0.163 HD
ATOM     21  C   UNL     1      31.734  33.504  20.422  1.00  0.00     0.114 C 
ATOM     22  O   UNL     1      30.005  32.303  19.351  1.00  0.00    -0.275 OA
ENDBRANCH   9  18
ENDBRANCH   3   4
BRANCH   3  23
ATOM     23  O   UNL     1      28.047  33.799  17.614  1.00  0.00    -0.388 OA
ATOM     24  H   UNL     1      28.870  33.849  18.144  1.00  0.00     0.211 HD
ENDBRANCH   3  23
ENDBRANCH   2   3
BRANCH   2  25
ATOM     25  O   UNL     1      27.099  34.217  14.336  1.00  0.00    -0.388 OA
ATOM     26  H   UNL     1      26.337  34.716  14.724  1.00  0.00     0.211 HD
ENDBRANCH   2  25
ENDBRANCH   1   2
BRANCH   1  27
ATOM     27  N   UNL     1      27.211  31.246  16.382  1.00  0.00    -0.319 N 
ATOM     28  C   UNL     1      26.500  30.009  16.169  1.00  0.00     0.407 C 
ATOM     29  H   UNL     1      28.079  31.139  16.946  1.00  0.00     0.167 HD
ATOM     30  O   UNL     1      25.438  30.057  15.504  1.00  0.00    -0.225 OA
BRANCH  28  31
ATOM     31  O   UNL     1      26.971  28.810  16.680  1.00  0.00    -0.443 OA
BRANCH  31  32
ATOM     32  C   UNL     1      26.351  28.351  17.873  1.00  0.00     0.294 C 
BRANCH  32  33
ATOM     33  C   UNL     1      27.431  28.195  18.889  1.00  0.00     0.121 A 
ATOM     34  C   UNL     1      28.310  29.174  19.314  1.00  0.00     0.144 A 
ATOM     35  N   UNL     1      27.763  27.093  19.588  1.00  0.00    -0.131 NA
ATOM     36  N   UNL     1      29.132  28.649  20.237  1.00  0.00    -0.220 N 
ATOM     37  N   UNL     1      28.768  27.395  20.373  1.00  0.00    -0.062 NA
BRANCH  36  38
ATOM     38  C   UNL     1      30.197  29.261  20.961  1.00  0.00     0.066 A 
ATOM     39  C   UNL     1      31.518  29.135  20.578  1.00  0.00     0.029 A 
ATOM     40  C   UNL     1      29.944  30.016  22.087  1.00  0.00     0.029 A 
ATOM     41  C   UNL     1      32.540  29.736  21.289  1.00  0.00     0.018 A 
ATOM     42  C   UNL     1      30.967  30.622  22.806  1.00  0.00     0.018 A 
ATOM     43  C   UNL     1      32.280  30.492  22.418  1.00  0.00     0.018 A 
ATOM     44  Br  UNL     1      33.727  31.298  23.361  1.00  0.00    -0.051 Br
ENDBRANCH  36  38
ENDBRANCH  32  33
ENDBRANCH  31  32
ENDBRANCH  28  31
ENDBRANCH   1  27
TORSDOF 15
BEGIN_RES LYS A 131
REMARK  4 active torsions:
REMARK  status: ('A' for Active; 'I' for Inactive)
REMARK    1  A    between atoms: CA   and  CB  
REMARK    2  A    between atoms: CB   and  CG  
REMARK    3  A    between atoms: CG   and  CD  
REMARK    4  A    between atoms: CD   and  CE  
ROOT
ATOM      1  CA  LYS A 131      29.867  25.555  16.977  1.00 20.52     0.186 C 
ENDROOT
BRANCH   1   2
ATOM      2  CB  LYS A 131      28.345  25.722  17.026  1.00 20.94     0.034 C 
BRANCH   2   3
ATOM      3  CG  LYS A 131      27.599  24.475  16.577  1.00 22.96     0.005 C 
BRANCH   3   4
ATOM      4  CD  LYS A 131      26.908  23.786  17.721  1.00 24.33     0.041 C 
BRANCH   4   5
ATOM      5  CE  LYS A 131      25.405  23.753  17.463  1.00 26.91     0.338 C 
ATOM      6  NZ  LYS A 131      24.870  22.390  17.689  1.00 27.40     0.618 N 
ENDBRANCH   4   5
ENDBRANCH   3   4
ENDBRANCH   2   3
ENDBRANCH   1   2
END_RES LYS A 131
BEGIN_RES LYS A 135
REMARK  4 active torsions:
REMARK  status: ('A' for Active; 'I' for Inactive)
REMARK    5  A    between atoms: CA   and  CB  
REMARK    6  A    between atoms: CB   and  CG  
REMARK    7  A    between atoms: CG   and  CD  
REMARK    8  A    between atoms: CD   and  CE  
ROOT
ATOM      7  CA  LYS A 135      33.193  34.663   9.290  1.00 25.02     0.186 C 
ENDROOT
BRANCH   7   8
ATOM      8  CB  LYS A 135      32.060  35.360  10.034  1.00 26.63     0.034 C 
BRANCH   8   9
ATOM      9  CG  LYS A 135      30.701  34.774   9.748  1.00 29.45     0.005 C 
BRANCH   9  10
ATOM     10  CD  LYS A 135      30.432  34.748   8.252  1.00 32.00     0.041 C 
BRANCH  10  11
ATOM     11  CE  LYS A 135      28.942  34.675   7.980  1.00 34.25     0.338 C 
ATOM     12  NZ  LYS A 135      28.216  34.067   9.129  1.00 35.99     0.618 N 
ENDBRANCH  10  11
ENDBRANCH   9  10
ENDBRANCH   8   9
ENDBRANCH   7   8
END_RES LYS A 135
