REMARK VINA RESULT:    -5.139      8.215     15.081
REMARK INTER + INTRA:         -14.610
REMARK INTER:                  -8.155
REMARK INTRA:                  -6.454
REMARK UNBOUND:                -5.414
REMARK SMILES CC(=O)N[C@@H]1[C@@H](O)C[C@](O)(C(=O)O)O[C@H]1C(O)[C@H](O)CNC(=O)OCc1cn(-c2ccccc2C(N)=O)nn1
REMARK SMILES IDX 21 1 22 2 23 3 20 5 18 6 16 7 15 8 9 9 8 10 14 11 6 12 5 13
REMARK SMILES IDX 10 14 11 16 12 17 13 18 7 20 4 22 2 23 1 25 3 26 17 27 19 29
REMARK SMILES IDX 24 31 25 32 26 33 27 34 39 35 28 36 38 37 29 38 34 39 30 40
REMARK SMILES IDX 33 41 31 42 32 43 35 44 37 45 36 46
REMARK H PARENT 21 4 10 15 13 19 7 21 4 24 17 28 19 30 36 47 36 48
REMARK Flexibility Score: inf
ROOT
ATOM      1  N   UNL     1      30.993  41.839   9.658  1.00  0.00    -0.319 N 
ATOM      2  C   UNL     1      30.097  41.640  10.741  1.00  0.00     0.407 C 
ATOM      3  O   UNL     1      29.004  42.236  10.738  1.00  0.00    -0.225 OA
ATOM      4  H   UNL     1      31.906  41.303   9.723  1.00  0.00     0.167 HD
ENDROOT
BRANCH   1   5
ATOM      5  C   UNL     1      30.739  42.695   8.525  1.00  0.00     0.154 C 
BRANCH   5   6
ATOM      6  C   UNL     1      30.077  41.955   7.375  1.00  0.00     0.165 C 
BRANCH   6   7
ATOM      7  C   UNL     1      28.620  42.290   7.259  1.00  0.00     0.176 C 
BRANCH   7   8
ATOM      8  C   UNL     1      27.725  41.122   7.095  1.00  0.00     0.178 C 
ATOM      9  C   UNL     1      27.527  39.262   5.689  1.00  0.00     0.269 C 
ATOM     10  C   UNL     1      26.482  38.886   6.698  1.00  0.00     0.112 C 
ATOM     11  O   UNL     1      28.236  40.378   5.999  1.00  0.00    -0.332 OA
ATOM     12  C   UNL     1      25.587  40.007   7.101  1.00  0.00     0.145 C 
ATOM     13  C   UNL     1      26.291  41.330   6.822  1.00  0.00     0.142 C 
BRANCH   9  14
ATOM     14  O   UNL     1      26.925  39.338   4.410  1.00  0.00    -0.357 OA
ATOM     15  H   UNL     1      27.663  39.332   3.733  1.00  0.00     0.214 HD
ENDBRANCH   9  14
BRANCH   9  16
ATOM     16  C   UNL     1      28.481  38.118   5.612  1.00  0.00     0.364 C 
ATOM     17  O   UNL     1      28.006  36.957   5.424  1.00  0.00    -0.246 OA
BRANCH  16  18
ATOM     18  O   UNL     1      29.847  38.250   5.734  1.00  0.00    -0.477 OA
ATOM     19  H   UNL     1      30.257  39.065   6.163  1.00  0.00     0.296 HD
ENDBRANCH  16  18
ENDBRANCH   9  16
BRANCH  12  20
ATOM     20  O   UNL     1      24.396  39.909   6.399  1.00  0.00    -0.391 OA
ATOM     21  H   UNL     1      24.045  40.781   6.089  1.00  0.00     0.211 HD
ENDBRANCH  12  20
BRANCH  13  22
ATOM     22  N   UNL     1      25.629  42.438   7.397  1.00  0.00    -0.348 N 
ATOM     23  C   UNL     1      25.021  43.440   6.613  1.00  0.00     0.217 C 
ATOM     24  H   UNL     1      25.553  42.538   8.428  1.00  0.00     0.163 HD
ATOM     25  C   UNL     1      24.316  44.619   7.161  1.00  0.00     0.114 C 
ATOM     26  O   UNL     1      25.079  43.324   5.370  1.00  0.00    -0.275 OA
ENDBRANCH  13  22
ENDBRANCH   7   8
BRANCH   7  27
ATOM     27  O   UNL     1      28.182  43.315   8.064  1.00  0.00    -0.388 OA
ATOM     28  H   UNL     1      27.180  43.384   8.014  1.00  0.00     0.211 HD
ENDBRANCH   7  27
ENDBRANCH   6   7
BRANCH   6  29
ATOM     29  O   UNL     1      30.390  40.625   7.357  1.00  0.00    -0.388 OA
ATOM     30  H   UNL     1      30.057  40.164   8.176  1.00  0.00     0.211 HD
ENDBRANCH   6  29
ENDBRANCH   5   6
ENDBRANCH   1   5
BRANCH   2  31
ATOM     31  O   UNL     1      30.394  40.800  11.807  1.00  0.00    -0.443 OA
BRANCH  31  32
ATOM     32  C   UNL     1      31.065  39.565  11.631  1.00  0.00     0.294 C 
BRANCH  32  33
ATOM     33  C   UNL     1      30.394  38.758  10.567  1.00  0.00     0.121 A 
ATOM     34  C   UNL     1      29.249  38.002  10.736  1.00  0.00     0.144 A 
ATOM     35  N   UNL     1      30.755  38.614   9.283  1.00  0.00    -0.131 NA
ATOM     36  N   UNL     1      28.961  37.423   9.532  1.00  0.00    -0.220 N 
ATOM     37  N   UNL     1      29.875  37.807   8.690  1.00  0.00    -0.062 NA
BRANCH  36  38
ATOM     38  C   UNL     1      27.851  36.551   9.288  1.00  0.00     0.079 A 
ATOM     39  C   UNL     1      28.000  35.337   8.659  1.00  0.00     0.065 A 
ATOM     40  C   UNL     1      26.592  36.966   9.709  1.00  0.00     0.029 A 
ATOM     41  C   UNL     1      26.868  34.542   8.457  1.00  0.00     0.016 A 
ATOM     42  C   UNL     1      25.491  36.171   9.501  1.00  0.00     0.002 A 
ATOM     43  C   UNL     1      25.641  34.962   8.874  1.00  0.00     0.001 A 
BRANCH  39  44
ATOM     44  C   UNL     1      29.288  34.844   8.195  1.00  0.00     0.250 C 
ATOM     45  O   UNL     1      29.892  34.001   8.934  1.00  0.00    -0.269 OA
ATOM     46  N   UNL     1      29.881  35.261   6.973  1.00  0.00    -0.366 N 
ATOM     47  H   UNL     1      29.519  34.968   6.052  1.00  0.00     0.159 HD
ATOM     48  H   UNL     1      30.733  35.893   7.055  1.00  0.00     0.159 HD
ENDBRANCH  39  44
ENDBRANCH  36  38
ENDBRANCH  32  33
ENDBRANCH  31  32
ENDBRANCH   2  31
TORSDOF 16
BEGIN_RES LYS A 131
REMARK  4 active torsions:
REMARK  status: ('A' for Active; 'I' for Inactive)
REMARK    1  A    between atoms: CA   and  CB  
REMARK    2  A    between atoms: CB   and  CG  
REMARK    3  A    between atoms: CG   and  CD  
REMARK    4  A    between atoms: CD   and  CE  
ROOT
ATOM      1  CA  LYS A 131      29.867  25.555  16.977  1.00 20.52     0.186 C 
ENDROOT
BRANCH   1   2
ATOM      2  CB  LYS A 131      28.345  25.722  17.026  1.00 20.94     0.034 C 
BRANCH   2   3
ATOM      3  CG  LYS A 131      27.601  24.402  16.893  1.00 22.96     0.005 C 
BRANCH   3   4
ATOM      4  CD  LYS A 131      26.660  24.164  18.042  1.00 24.33     0.041 C 
BRANCH   4   5
ATOM      5  CE  LYS A 131      25.331  24.857  17.762  1.00 26.91     0.338 C 
ATOM      6  NZ  LYS A 131      24.488  24.025  16.871  1.00 27.40     0.618 N 
ENDBRANCH   4   5
ENDBRANCH   3   4
ENDBRANCH   2   3
ENDBRANCH   1   2
END_RES LYS A 131
BEGIN_RES LYS A 135
REMARK  4 active torsions:
REMARK  status: ('A' for Active; 'I' for Inactive)
REMARK    5  A    between atoms: CA   and  CB  
REMARK    6  A    between atoms: CB   and  CG  
REMARK    7  A    between atoms: CG   and  CD  
REMARK    8  A    between atoms: CD   and  CE  
ROOT
ATOM      7  CA  LYS A 135      33.193  34.663   9.290  1.00 25.02     0.186 C 
ENDROOT
BRANCH   7   8
ATOM      8  CB  LYS A 135      32.060  35.360  10.034  1.00 26.63     0.034 C 
BRANCH   8   9
ATOM      9  CG  LYS A 135      32.521  36.148  11.233  1.00 29.45     0.005 C 
BRANCH   9  10
ATOM     10  CD  LYS A 135      31.867  35.626  12.502  1.00 32.00     0.041 C 
BRANCH  10  11
ATOM     11  CE  LYS A 135      30.581  34.891  12.175  1.00 34.25     0.338 C 
ATOM     12  NZ  LYS A 135      30.044  34.190  13.374  1.00 35.99     0.618 N 
ENDBRANCH  10  11
ENDBRANCH   9  10
ENDBRANCH   8   9
ENDBRANCH   7   8
END_RES LYS A 135
