REMARK VINA RESULT:    -4.648      3.861      7.334
REMARK INTER + INTRA:         -14.876
REMARK INTER:                  -8.510
REMARK INTRA:                  -6.366
REMARK UNBOUND:                -5.744
REMARK SMILES CC(=O)N[C@@H]1[C@@H](O)C[C@](O)(C(=O)O)O[C@H]1C(O)[C@H](O)CNC(=O)OCc1cn([C@@H](CC(=O)O)C(=O)O)nn1
REMARK SMILES IDX 21 1 22 2 23 3 20 5 18 6 16 7 15 8 9 9 8 10 14 11 6 12 5 13
REMARK SMILES IDX 10 14 11 16 12 17 13 18 7 20 4 22 2 23 1 25 3 26 17 27 19 29
REMARK SMILES IDX 24 31 25 32 26 33 27 34 38 35 28 36 37 37 29 38 30 39 31 40
REMARK SMILES IDX 32 41 33 42 34 44 35 45 36 46
REMARK H PARENT 21 4 10 15 13 19 7 21 4 24 17 28 19 30 33 43 36 47
REMARK Flexibility Score: inf
ROOT
ATOM      1  N   UNL     1      28.095  28.675  18.763  1.00  0.00    -0.319 N 
ATOM      2  C   UNL     1      27.326  28.537  19.957  1.00  0.00     0.407 C 
ATOM      3  O   UNL     1      26.546  29.443  20.268  1.00  0.00    -0.225 OA
ATOM      4  H   UNL     1      28.738  27.864  18.563  1.00  0.00     0.167 HD
ENDROOT
BRANCH   1   5
ATOM      5  C   UNL     1      28.033  29.797  17.881  1.00  0.00     0.154 C 
BRANCH   5   6
ATOM      6  C   UNL     1      29.200  30.735  18.115  1.00  0.00     0.165 C 
BRANCH   6   7
ATOM      7  C   UNL     1      29.697  31.328  16.809  1.00  0.00     0.176 C 
BRANCH   7   8
ATOM      8  C   UNL     1      29.106  32.649  16.472  1.00  0.00     0.178 C 
ATOM      9  C   UNL     1      30.993  33.367  15.323  1.00  0.00     0.269 C 
ATOM     10  C   UNL     1      31.599  33.823  16.583  1.00  0.00     0.112 C 
ATOM     11  O   UNL     1      29.636  33.176  15.291  1.00  0.00    -0.332 OA
ATOM     12  C   UNL     1      30.725  34.059  17.751  1.00  0.00     0.145 C 
ATOM     13  C   UNL     1      29.288  33.663  17.567  1.00  0.00     0.142 C 
BRANCH   9  14
ATOM     14  O   UNL     1      31.558  32.136  14.901  1.00  0.00    -0.357 OA
ATOM     15  H   UNL     1      32.165  32.381  14.153  1.00  0.00     0.214 HD
ENDBRANCH   9  14
BRANCH   9  16
ATOM     16  C   UNL     1      31.307  34.306  14.211  1.00  0.00     0.364 C 
ATOM     17  O   UNL     1      31.985  35.351  14.339  1.00  0.00    -0.246 OA
BRANCH  16  18
ATOM     18  O   UNL     1      30.814  33.997  12.953  1.00  0.00    -0.477 OA
ATOM     19  H   UNL     1      30.016  34.497  12.539  1.00  0.00     0.296 HD
ENDBRANCH  16  18
ENDBRANCH   9  16
BRANCH  12  20
ATOM     20  O   UNL     1      31.240  33.431  18.881  1.00  0.00    -0.391 OA
ATOM     21  H   UNL     1      32.197  33.544  19.007  1.00  0.00     0.211 HD
ENDBRANCH  12  20
BRANCH  13  22
ATOM     22  N   UNL     1      28.469  34.856  17.243  1.00  0.00    -0.348 N 
ATOM     23  C   UNL     1      27.483  35.325  18.140  1.00  0.00     0.217 C 
ATOM     24  H   UNL     1      28.598  35.377  16.350  1.00  0.00     0.163 HD
ATOM     25  C   UNL     1      26.636  36.520  17.855  1.00  0.00     0.114 C 
ATOM     26  O   UNL     1      27.317  34.710  19.214  1.00  0.00    -0.275 OA
ENDBRANCH  13  22
ENDBRANCH   7   8
BRANCH   7  27
ATOM     27  O   UNL     1      29.282  30.363  15.847  1.00  0.00    -0.388 OA
ATOM     28  H   UNL     1      28.563  29.797  16.216  1.00  0.00     0.211 HD
ENDBRANCH   7  27
ENDBRANCH   6   7
BRANCH   6  29
ATOM     29  O   UNL     1      30.176  30.043  18.820  1.00  0.00    -0.388 OA
ATOM     30  H   UNL     1      30.588  30.576  19.545  1.00  0.00     0.211 HD
ENDBRANCH   6  29
ENDBRANCH   5   6
ENDBRANCH   1   5
BRANCH   2  31
ATOM     31  O   UNL     1      27.423  27.426  20.778  1.00  0.00    -0.443 OA
BRANCH  31  32
ATOM     32  C   UNL     1      28.219  27.470  21.936  1.00  0.00     0.294 C 
BRANCH  32  33
ATOM     33  C   UNL     1      29.595  27.953  21.666  1.00  0.00     0.120 A 
ATOM     34  C   UNL     1      30.219  28.897  22.446  1.00  0.00     0.139 A 
ATOM     35  N   UNL     1      30.455  27.618  20.707  1.00  0.00    -0.132 NA
ATOM     36  N   UNL     1      31.456  29.109  21.929  1.00  0.00    -0.237 N 
ATOM     37  N   UNL     1      31.557  28.327  20.892  1.00  0.00    -0.066 NA
BRANCH  36  38
ATOM     38  C   UNL     1      32.400  30.057  22.513  1.00  0.00     0.229 C 
BRANCH  38  39
ATOM     39  C   UNL     1      33.755  29.867  21.887  1.00  0.00     0.161 C 
BRANCH  39  40
ATOM     40  C   UNL     1      34.773  29.450  22.863  1.00  0.00     0.306 C 
ATOM     41  O   UNL     1      35.265  30.313  23.633  1.00  0.00    -0.252 OA
BRANCH  40  42
ATOM     42  O   UNL     1      35.163  28.121  22.911  1.00  0.00    -0.481 OA
ATOM     43  H   UNL     1      35.526  27.740  23.799  1.00  0.00     0.296 HD
ENDBRANCH  40  42
ENDBRANCH  39  40
ENDBRANCH  38  39
BRANCH  38  44
ATOM     44  C   UNL     1      31.950  31.434  22.171  1.00  0.00     0.329 C 
ATOM     45  O   UNL     1      32.021  32.411  22.959  1.00  0.00    -0.250 OA
BRANCH  44  46
ATOM     46  O   UNL     1      31.419  31.653  20.912  1.00  0.00    -0.480 OA
ATOM     47  H   UNL     1      31.178  32.577  20.573  1.00  0.00     0.296 HD
ENDBRANCH  44  46
ENDBRANCH  38  44
ENDBRANCH  36  38
ENDBRANCH  32  33
ENDBRANCH  31  32
ENDBRANCH   2  31
TORSDOF 20
BEGIN_RES LYS A 131
REMARK  4 active torsions:
REMARK  status: ('A' for Active; 'I' for Inactive)
REMARK    1  A    between atoms: CA   and  CB  
REMARK    2  A    between atoms: CB   and  CG  
REMARK    3  A    between atoms: CG   and  CD  
REMARK    4  A    between atoms: CD   and  CE  
ROOT
ATOM      1  CA  LYS A 131      29.867  25.555  16.977  1.00 20.52     0.186 C 
ENDROOT
BRANCH   1   2
ATOM      2  CB  LYS A 131      28.345  25.722  17.026  1.00 20.94     0.034 C 
BRANCH   2   3
ATOM      3  CG  LYS A 131      27.602  24.399  16.920  1.00 22.96     0.005 C 
BRANCH   3   4
ATOM      4  CD  LYS A 131      26.603  24.221  18.030  1.00 24.33     0.041 C 
BRANCH   4   5
ATOM      5  CE  LYS A 131      25.806  25.509  18.209  1.00 26.91     0.338 C 
ATOM      6  NZ  LYS A 131      24.973  25.438  19.433  1.00 27.40     0.618 N 
ENDBRANCH   4   5
ENDBRANCH   3   4
ENDBRANCH   2   3
ENDBRANCH   1   2
END_RES LYS A 131
BEGIN_RES LYS A 135
REMARK  4 active torsions:
REMARK  status: ('A' for Active; 'I' for Inactive)
REMARK    5  A    between atoms: CA   and  CB  
REMARK    6  A    between atoms: CB   and  CG  
REMARK    7  A    between atoms: CG   and  CD  
REMARK    8  A    between atoms: CD   and  CE  
ROOT
ATOM      7  CA  LYS A 135      33.193  34.663   9.290  1.00 25.02     0.186 C 
ENDROOT
BRANCH   7   8
ATOM      8  CB  LYS A 135      32.060  35.360  10.034  1.00 26.63     0.034 C 
BRANCH   8   9
ATOM      9  CG  LYS A 135      30.800  35.498   9.220  1.00 29.45     0.005 C 
BRANCH   9  10
ATOM     10  CD  LYS A 135      30.145  34.141   9.010  1.00 32.00     0.041 C 
BRANCH  10  11
ATOM     11  CE  LYS A 135      28.676  34.306   8.668  1.00 34.25     0.338 C 
ATOM     12  NZ  LYS A 135      27.811  33.685   9.709  1.00 35.99     0.618 N 
ENDBRANCH  10  11
ENDBRANCH   9  10
ENDBRANCH   8   9
ENDBRANCH   7   8
END_RES LYS A 135
