REMARK VINA RESULT:    -4.766      3.756      8.184
REMARK INTER + INTRA:         -14.245
REMARK INTER:                  -8.214
REMARK INTRA:                  -6.031
REMARK UNBOUND:                -5.578
REMARK SMILES CC(=O)N[C@@H]1[C@@H](O)C[C@](O)(C(=O)O)O[C@H]1C(O)[C@H](O)CNC(=O)OCc1cn(C(C)(C)C(=O)O)nn1
REMARK SMILES IDX 21 1 22 2 23 3 20 5 18 6 16 7 15 8 9 9 8 10 14 11 6 12 5 13
REMARK SMILES IDX 10 14 11 16 12 17 13 18 7 20 4 22 2 23 1 25 3 26 17 27 19 29
REMARK SMILES IDX 24 31 25 32 26 33 27 34 36 35 28 36 35 37 29 38 30 39 31 40
REMARK SMILES IDX 32 41 33 42 34 43
REMARK H PARENT 21 4 10 15 13 19 7 21 4 24 17 28 19 30 34 44
REMARK Flexibility Score: inf
ROOT
ATOM      1  N   UNL     1      25.863  39.764   6.104  1.00  0.00    -0.319 N 
ATOM      2  C   UNL     1      27.260  39.710   6.319  1.00  0.00     0.407 C 
ATOM      3  O   UNL     1      27.779  40.230   7.367  1.00  0.00    -0.225 OA
ATOM      4  H   UNL     1      25.452  39.338   5.253  1.00  0.00     0.167 HD
ENDROOT
BRANCH   1   5
ATOM      5  C   UNL     1      25.051  40.418   7.098  1.00  0.00     0.154 C 
BRANCH   5   6
ATOM      6  C   UNL     1      24.010  39.566   7.732  1.00  0.00     0.165 C 
BRANCH   6   7
ATOM      7  C   UNL     1      24.438  38.969   9.049  1.00  0.00     0.176 C 
BRANCH   7   8
ATOM      8  C   UNL     1      23.430  37.874   9.417  1.00  0.00     0.178 C 
ATOM      9  C   UNL     1      21.130  37.536   9.336  1.00  0.00     0.269 C 
ATOM     10  C   UNL     1      21.125  37.031  10.762  1.00  0.00     0.112 C 
ATOM     11  O   UNL     1      22.184  38.371   9.053  1.00  0.00    -0.332 OA
ATOM     12  C   UNL     1      22.163  37.755  11.569  1.00  0.00     0.145 C 
ATOM     13  C   UNL     1      23.513  37.587  10.901  1.00  0.00     0.142 C 
BRANCH   9  14
ATOM     14  O   UNL     1      19.966  38.307   9.194  1.00  0.00    -0.357 OA
ATOM     15  H   UNL     1      19.585  38.174   8.307  1.00  0.00     0.214 HD
ENDBRANCH   9  14
BRANCH   9  16
ATOM     16  C   UNL     1      21.048  36.408   8.383  1.00  0.00     0.364 C 
ATOM     17  O   UNL     1      20.626  35.298   8.764  1.00  0.00    -0.246 OA
BRANCH  16  18
ATOM     18  O   UNL     1      21.428  36.537   7.056  1.00  0.00    -0.477 OA
ATOM     19  H   UNL     1      20.962  37.167   6.419  1.00  0.00     0.296 HD
ENDBRANCH  16  18
ENDBRANCH   9  16
BRANCH  12  20
ATOM     20  O   UNL     1      21.850  39.073  11.800  1.00  0.00    -0.391 OA
ATOM     21  H   UNL     1      22.089  39.403  12.693  1.00  0.00     0.211 HD
ENDBRANCH  12  20
BRANCH  13  22
ATOM     22  N   UNL     1      23.927  36.206  11.142  1.00  0.00    -0.348 N 
ATOM     23  C   UNL     1      25.054  35.903  11.955  1.00  0.00     0.217 C 
ATOM     24  H   UNL     1      23.394  35.420  10.716  1.00  0.00     0.163 HD
ATOM     25  C   UNL     1      25.490  34.498  12.211  1.00  0.00     0.114 C 
ATOM     26  O   UNL     1      25.670  36.898  12.452  1.00  0.00    -0.275 OA
ENDBRANCH  13  22
ENDBRANCH   7   8
BRANCH   7  27
ATOM     27  O   UNL     1      25.722  38.502   9.087  1.00  0.00    -0.388 OA
ATOM     28  H   UNL     1      26.196  38.709   8.259  1.00  0.00     0.211 HD
ENDBRANCH   7  27
ENDBRANCH   6   7
BRANCH   6  29
ATOM     29  O   UNL     1      23.761  38.511   6.816  1.00  0.00    -0.388 OA
ATOM     30  H   UNL     1      24.534  37.876   6.854  1.00  0.00     0.211 HD
ENDBRANCH   6  29
ENDBRANCH   5   6
ENDBRANCH   1   5
BRANCH   2  31
ATOM     31  O   UNL     1      28.149  39.115   5.447  1.00  0.00    -0.443 OA
BRANCH  31  32
ATOM     32  C   UNL     1      28.006  37.738   5.055  1.00  0.00     0.294 C 
BRANCH  32  33
ATOM     33  C   UNL     1      27.660  36.959   6.273  1.00  0.00     0.120 A 
ATOM     34  C   UNL     1      28.567  36.327   7.108  1.00  0.00     0.139 A 
ATOM     35  N   UNL     1      26.455  36.700   6.815  1.00  0.00    -0.132 NA
ATOM     36  N   UNL     1      27.903  35.714   8.114  1.00  0.00    -0.235 N 
ATOM     37  N   UNL     1      26.624  35.962   7.904  1.00  0.00    -0.066 NA
BRANCH  36  38
ATOM     38  C   UNL     1      28.508  34.951   9.187  1.00  0.00     0.155 C 
ATOM     39  C   UNL     1      27.714  33.687   9.442  1.00  0.00     0.049 C 
ATOM     40  C   UNL     1      29.931  34.595   8.809  1.00  0.00     0.049 C 
BRANCH  38  41
ATOM     41  C   UNL     1      28.506  35.728  10.461  1.00  0.00     0.331 C 
ATOM     42  O   UNL     1      28.921  35.145  11.494  1.00  0.00    -0.250 OA
BRANCH  41  43
ATOM     43  O   UNL     1      28.071  37.038  10.528  1.00  0.00    -0.479 OA
ATOM     44  H   UNL     1      28.498  37.635  11.230  1.00  0.00     0.296 HD
ENDBRANCH  41  43
ENDBRANCH  38  41
ENDBRANCH  36  38
ENDBRANCH  32  33
ENDBRANCH  31  32
ENDBRANCH   2  31
TORSDOF 17
BEGIN_RES LYS A 131
REMARK  4 active torsions:
REMARK  status: ('A' for Active; 'I' for Inactive)
REMARK    1  A    between atoms: CA   and  CB  
REMARK    2  A    between atoms: CB   and  CG  
REMARK    3  A    between atoms: CG   and  CD  
REMARK    4  A    between atoms: CD   and  CE  
ROOT
ATOM      1  CA  LYS A 131      29.867  25.555  16.977  1.00 20.52     0.186 C 
ENDROOT
BRANCH   1   2
ATOM      2  CB  LYS A 131      28.345  25.722  17.026  1.00 20.94     0.034 C 
BRANCH   2   3
ATOM      3  CG  LYS A 131      27.601  24.402  16.892  1.00 22.96     0.005 C 
BRANCH   3   4
ATOM      4  CD  LYS A 131      26.159  24.520  17.302  1.00 24.33     0.041 C 
BRANCH   4   5
ATOM      5  CE  LYS A 131      26.071  24.667  18.817  1.00 26.91     0.338 C 
ATOM      6  NZ  LYS A 131      25.186  23.624  19.389  1.00 27.40     0.618 N 
ENDBRANCH   4   5
ENDBRANCH   3   4
ENDBRANCH   2   3
ENDBRANCH   1   2
END_RES LYS A 131
BEGIN_RES LYS A 135
REMARK  4 active torsions:
REMARK  status: ('A' for Active; 'I' for Inactive)
REMARK    5  A    between atoms: CA   and  CB  
REMARK    6  A    between atoms: CB   and  CG  
REMARK    7  A    between atoms: CG   and  CD  
REMARK    8  A    between atoms: CD   and  CE  
ROOT
ATOM      7  CA  LYS A 135      33.193  34.663   9.290  1.00 25.02     0.186 C 
ENDROOT
BRANCH   7   8
ATOM      8  CB  LYS A 135      32.060  35.360  10.034  1.00 26.63     0.034 C 
BRANCH   8   9
ATOM      9  CG  LYS A 135      32.535  36.376  11.041  1.00 29.45     0.005 C 
BRANCH   9  10
ATOM     10  CD  LYS A 135      31.956  36.080  12.416  1.00 32.00     0.041 C 
BRANCH  10  11
ATOM     11  CE  LYS A 135      32.975  35.361  13.279  1.00 34.25     0.338 C 
ATOM     12  NZ  LYS A 135      32.320  34.692  14.437  1.00 35.99     0.618 N 
ENDBRANCH  10  11
ENDBRANCH   9  10
ENDBRANCH   8   9
ENDBRANCH   7   8
END_RES LYS A 135
