REMARK VINA RESULT:    -4.497      3.367      9.027
REMARK INTER + INTRA:         -14.273
REMARK INTER:                  -9.193
REMARK INTRA:                  -5.081
REMARK UNBOUND:                -6.490
REMARK SMILES CC(=O)N[C@@H]1[C@@H](O)C[C@](O)(C(=O)O)O[C@H]1C(O)[C@H](O)CNC(=O)OCc1cn(-c2ccc3[nH]ncc3c2)nn1
REMARK SMILES IDX 20 1 18 2 16 3 15 4 9 5 8 6 14 7 6 8 5 9 10 10 11 12 12 13
REMARK SMILES IDX 13 14 7 16 4 18 2 19 1 21 3 22 17 23 19 25 21 27 22 28 23 30
REMARK SMILES IDX 24 31 25 32 26 33 27 34 39 35 28 36 38 37 29 38 30 39 37 40
REMARK SMILES IDX 31 41 36 42 32 43 35 44 33 45 34 46
REMARK H PARENT 10 11 13 15 7 17 4 20 17 24 19 26 21 29 33 47
REMARK Flexibility Score: inf
ROOT
ATOM      1  C   UNL     1      25.814  37.871   9.255  1.00  0.00     0.154 C 
ENDROOT
BRANCH   1   2
ATOM      2  C   UNL     1      24.718  37.117   8.641  1.00  0.00     0.165 C 
BRANCH   2   3
ATOM      3  C   UNL     1      23.463  37.140   9.541  1.00  0.00     0.176 C 
BRANCH   3   4
ATOM      4  C   UNL     1      22.681  35.901   9.494  1.00  0.00     0.178 C 
ATOM      5  C   UNL     1      20.692  36.406   8.372  1.00  0.00     0.269 C 
ATOM      6  C   UNL     1      20.187  36.910   9.694  1.00  0.00     0.112 C 
ATOM      7  O   UNL     1      21.852  35.691   8.432  1.00  0.00    -0.332 OA
ATOM      8  C   UNL     1      20.557  36.048  10.849  1.00  0.00     0.145 C 
ATOM      9  C   UNL     1      21.987  35.612  10.831  1.00  0.00     0.142 C 
BRANCH   5  10
ATOM     10  O   UNL     1      20.844  37.481   7.498  1.00  0.00    -0.357 OA
ATOM     11  H   UNL     1      21.641  37.384   6.920  1.00  0.00     0.214 HD
ENDBRANCH   5  10
BRANCH   5  12
ATOM     12  C   UNL     1      19.644  35.516   7.821  1.00  0.00     0.364 C 
ATOM     13  O   UNL     1      18.466  35.905   7.761  1.00  0.00    -0.246 OA
BRANCH  12  14
ATOM     14  O   UNL     1      19.979  34.256   7.374  1.00  0.00    -0.477 OA
ATOM     15  H   UNL     1      19.713  33.897   6.446  1.00  0.00     0.296 HD
ENDBRANCH  12  14
ENDBRANCH   5  12
BRANCH   8  16
ATOM     16  O   UNL     1      20.252  36.753  12.029  1.00  0.00    -0.391 OA
ATOM     17  H   UNL     1      20.626  37.657  11.898  1.00  0.00     0.211 HD
ENDBRANCH   8  16
BRANCH   9  18
ATOM     18  N   UNL     1      22.167  34.246  11.247  1.00  0.00    -0.348 N 
ATOM     19  C   UNL     1      22.746  33.901  12.499  1.00  0.00     0.217 C 
ATOM     20  H   UNL     1      21.863  33.452  10.607  1.00  0.00     0.163 HD
ATOM     21  C   UNL     1      22.910  32.485  12.879  1.00  0.00     0.114 C 
ATOM     22  O   UNL     1      23.112  34.826  13.268  1.00  0.00    -0.275 OA
ENDBRANCH   9  18
ENDBRANCH   3   4
BRANCH   3  23
ATOM     23  O   UNL     1      24.079  37.166  10.843  1.00  0.00    -0.388 OA
ATOM     24  H   UNL     1      23.755  37.943  11.355  1.00  0.00     0.211 HD
ENDBRANCH   3  23
ENDBRANCH   2   3
BRANCH   2  25
ATOM     25  O   UNL     1      25.141  35.734   8.691  1.00  0.00    -0.388 OA
ATOM     26  H   UNL     1      25.979  35.636   8.161  1.00  0.00     0.211 HD
ENDBRANCH   2  25
ENDBRANCH   1   2
BRANCH   1  27
ATOM     27  N   UNL     1      26.816  37.106   9.945  1.00  0.00    -0.319 N 
ATOM     28  C   UNL     1      27.900  37.722  10.623  1.00  0.00     0.407 C 
ATOM     29  H   UNL     1      26.740  36.079  10.006  1.00  0.00     0.167 HD
ATOM     30  O   UNL     1      27.972  38.978  10.610  1.00  0.00    -0.225 OA
BRANCH  28  31
ATOM     31  O   UNL     1      28.878  37.023  11.292  1.00  0.00    -0.443 OA
BRANCH  31  32
ATOM     32  C   UNL     1      29.776  37.589  12.227  1.00  0.00     0.294 C 
BRANCH  32  33
ATOM     33  C   UNL     1      30.237  36.488  13.139  1.00  0.00     0.121 A 
ATOM     34  C   UNL     1      29.532  35.388  13.575  1.00  0.00     0.144 A 
ATOM     35  N   UNL     1      31.464  36.371  13.719  1.00  0.00    -0.131 NA
ATOM     36  N   UNL     1      30.366  34.674  14.386  1.00  0.00    -0.220 N 
ATOM     37  N   UNL     1      31.530  35.294  14.454  1.00  0.00    -0.062 NA
BRANCH  36  38
ATOM     38  C   UNL     1      30.012  33.465  15.038  1.00  0.00     0.067 A 
ATOM     39  C   UNL     1      31.007  32.657  15.555  1.00  0.00     0.030 A 
ATOM     40  C   UNL     1      28.710  33.038  15.190  1.00  0.00     0.040 A 
ATOM     41  C   UNL     1      30.724  31.470  16.199  1.00  0.00     0.030 A 
ATOM     42  C   UNL     1      28.407  31.868  15.824  1.00  0.00     0.022 A 
ATOM     43  C   UNL     1      29.411  31.055  16.345  1.00  0.00     0.065 A 
ATOM     44  C   UNL     1      27.231  31.215  16.111  1.00  0.00     0.143 A 
ATOM     45  N   UNL     1      28.837  29.979  16.907  1.00  0.00    -0.278 N 
ATOM     46  N   UNL     1      27.533  30.062  16.775  1.00  0.00    -0.183 NA
ATOM     47  H   UNL     1      29.352  29.209  17.373  1.00  0.00     0.190 HD
ENDBRANCH  36  38
ENDBRANCH  32  33
ENDBRANCH  31  32
ENDBRANCH  28  31
ENDBRANCH   1  27
TORSDOF 15
BEGIN_RES LYS A 131
REMARK  4 active torsions:
REMARK  status: ('A' for Active; 'I' for Inactive)
REMARK    1  A    between atoms: CA   and  CB  
REMARK    2  A    between atoms: CB   and  CG  
REMARK    3  A    between atoms: CG   and  CD  
REMARK    4  A    between atoms: CD   and  CE  
ROOT
ATOM      1  CA  LYS A 131      29.867  25.555  16.977  1.00 20.52     0.186 C 
ENDROOT
BRANCH   1   2
ATOM      2  CB  LYS A 131      28.345  25.722  17.026  1.00 20.94     0.034 C 
BRANCH   2   3
ATOM      3  CG  LYS A 131      27.599  24.436  16.704  1.00 22.96     0.005 C 
BRANCH   3   4
ATOM      4  CD  LYS A 131      26.994  23.811  17.930  1.00 24.33     0.041 C 
BRANCH   4   5
ATOM      5  CE  LYS A 131      25.607  23.272  17.595  1.00 26.91     0.338 C 
ATOM      6  NZ  LYS A 131      24.795  24.312  16.921  1.00 27.40     0.618 N 
ENDBRANCH   4   5
ENDBRANCH   3   4
ENDBRANCH   2   3
ENDBRANCH   1   2
END_RES LYS A 131
BEGIN_RES LYS A 135
REMARK  4 active torsions:
REMARK  status: ('A' for Active; 'I' for Inactive)
REMARK    5  A    between atoms: CA   and  CB  
REMARK    6  A    between atoms: CB   and  CG  
REMARK    7  A    between atoms: CG   and  CD  
REMARK    8  A    between atoms: CD   and  CE  
ROOT
ATOM      7  CA  LYS A 135      33.193  34.663   9.290  1.00 25.02     0.186 C 
ENDROOT
BRANCH   7   8
ATOM      8  CB  LYS A 135      32.060  35.360  10.034  1.00 26.63     0.034 C 
BRANCH   8   9
ATOM      9  CG  LYS A 135      30.869  35.671   9.164  1.00 29.45     0.005 C 
BRANCH   9  10
ATOM     10  CD  LYS A 135      30.332  34.403   8.518  1.00 32.00     0.041 C 
BRANCH  10  11
ATOM     11  CE  LYS A 135      28.816  34.426   8.480  1.00 34.25     0.338 C 
ATOM     12  NZ  LYS A 135      28.240  33.807   9.706  1.00 35.99     0.618 N 
ENDBRANCH  10  11
ENDBRANCH   9  10
ENDBRANCH   8   9
ENDBRANCH   7   8
END_RES LYS A 135
