REMARK VINA RESULT:    -4.274      6.201     10.785
REMARK INTER + INTRA:         -13.917
REMARK INTER:                  -8.571
REMARK INTRA:                  -5.346
REMARK UNBOUND:                -6.145
REMARK SMILES CC(=O)N[C@@H]1[C@@H](O)C[C@](O)(C(=O)O)O[C@H]1C(O)[C@H](O)CNC(=O)OCc1cn(C(C)(C)CO)nn1
REMARK SMILES IDX 21 1 22 2 23 3 20 5 18 6 16 7 15 8 9 9 8 10 14 11 6 12 5 13
REMARK SMILES IDX 10 14 11 16 12 17 13 18 7 20 4 22 2 23 1 25 3 26 17 27 19 29
REMARK SMILES IDX 24 31 25 32 26 33 27 34 35 35 28 36 34 37 29 38 30 39 31 40
REMARK SMILES IDX 32 41 33 42
REMARK H PARENT 21 4 10 15 13 19 7 21 4 24 17 28 19 30 33 43
REMARK Flexibility Score: inf
ROOT
ATOM      1  N   UNL     1      26.124  33.316  15.677  1.00  0.00    -0.319 N 
ATOM      2  C   UNL     1      25.689  34.322  14.755  1.00  0.00     0.407 C 
ATOM      3  O   UNL     1      24.693  34.126  13.979  1.00  0.00    -0.225 OA
ATOM      4  H   UNL     1      26.931  33.531  16.293  1.00  0.00     0.167 HD
ENDROOT
BRANCH   1   5
ATOM      5  C   UNL     1      25.423  32.051  15.736  1.00  0.00     0.154 C 
BRANCH   5   6
ATOM      6  C   UNL     1      25.891  31.177  16.832  1.00  0.00     0.165 C 
BRANCH   6   7
ATOM      7  C   UNL     1      26.271  29.782  16.506  1.00  0.00     0.176 C 
BRANCH   7   8
ATOM      8  C   UNL     1      27.589  29.405  17.135  1.00  0.00     0.178 C 
ATOM      9  C   UNL     1      26.958  28.586  19.262  1.00  0.00     0.269 C 
ATOM     10  C   UNL     1      27.620  29.815  19.912  1.00  0.00     0.112 C 
ATOM     11  O   UNL     1      27.414  28.350  18.005  1.00  0.00    -0.332 OA
ATOM     12  C   UNL     1      28.851  30.073  19.109  1.00  0.00     0.145 C 
ATOM     13  C   UNL     1      28.363  30.551  17.712  1.00  0.00     0.142 C 
BRANCH   9  14
ATOM     14  O   UNL     1      25.590  28.696  19.406  1.00  0.00    -0.357 OA
ATOM     15  H   UNL     1      25.330  29.647  19.433  1.00  0.00     0.214 HD
ENDBRANCH   9  14
BRANCH   9  16
ATOM     16  C   UNL     1      27.388  27.387  20.083  1.00  0.00     0.364 C 
ATOM     17  O   UNL     1      26.736  27.034  21.094  1.00  0.00    -0.246 OA
BRANCH  16  18
ATOM     18  O   UNL     1      28.515  26.701  19.685  1.00  0.00    -0.477 OA
ATOM     19  H   UNL     1      28.780  26.637  18.708  1.00  0.00     0.296 HD
ENDBRANCH  16  18
ENDBRANCH   9  16
BRANCH  12  20
ATOM     20  O   UNL     1      29.691  31.019  19.663  1.00  0.00    -0.391 OA
ATOM     21  H   UNL     1      29.761  30.811  20.631  1.00  0.00     0.211 HD
ENDBRANCH  12  20
BRANCH  13  22
ATOM     22  N   UNL     1      29.637  30.793  17.017  1.00  0.00    -0.348 N 
ATOM     23  C   UNL     1      29.895  31.941  16.259  1.00  0.00     0.217 C 
ATOM     24  H   UNL     1      30.367  30.057  17.111  1.00  0.00     0.163 HD
ATOM     25  C   UNL     1      31.171  32.203  15.546  1.00  0.00     0.114 C 
ATOM     26  O   UNL     1      28.991  32.817  16.168  1.00  0.00    -0.275 OA
ENDBRANCH  13  22
ENDBRANCH   7   8
BRANCH   7  27
ATOM     27  O   UNL     1      25.308  28.829  16.489  1.00  0.00    -0.388 OA
ATOM     28  H   UNL     1      24.499  29.059  15.962  1.00  0.00     0.211 HD
ENDBRANCH   7  27
ENDBRANCH   6   7
BRANCH   6  29
ATOM     29  O   UNL     1      24.910  31.140  17.850  1.00  0.00    -0.388 OA
ATOM     30  H   UNL     1      24.323  31.918  17.726  1.00  0.00     0.211 HD
ENDBRANCH   6  29
ENDBRANCH   5   6
ENDBRANCH   1   5
BRANCH   2  31
ATOM     31  O   UNL     1      26.372  35.510  14.721  1.00  0.00    -0.443 OA
BRANCH  31  32
ATOM     32  C   UNL     1      26.923  36.049  13.556  1.00  0.00     0.294 C 
BRANCH  32  33
ATOM     33  C   UNL     1      28.336  35.624  13.380  1.00  0.00     0.120 A 
ATOM     34  C   UNL     1      29.426  36.420  13.630  1.00  0.00     0.139 A 
ATOM     35  N   UNL     1      28.813  34.450  12.965  1.00  0.00    -0.132 NA
ATOM     36  N   UNL     1      30.532  35.719  13.365  1.00  0.00    -0.244 N 
ATOM     37  N   UNL     1      30.125  34.514  12.960  1.00  0.00    -0.066 NA
BRANCH  36  38
ATOM     38  C   UNL     1      31.883  36.200  13.501  1.00  0.00     0.082 C 
ATOM     39  C   UNL     1      31.969  37.263  14.576  1.00  0.00     0.039 C 
ATOM     40  C   UNL     1      32.333  36.770  12.162  1.00  0.00     0.039 C 
BRANCH  38  41
ATOM     41  C   UNL     1      32.803  35.049  13.816  1.00  0.00     0.186 C 
BRANCH  41  42
ATOM     42  O   UNL     1      33.663  34.815  12.739  1.00  0.00    -0.394 OA
ATOM     43  H   UNL     1      33.516  33.889  12.416  1.00  0.00     0.210 HD
ENDBRANCH  41  42
ENDBRANCH  38  41
ENDBRANCH  36  38
ENDBRANCH  32  33
ENDBRANCH  31  32
ENDBRANCH   2  31
TORSDOF 17
BEGIN_RES LYS A 131
REMARK  4 active torsions:
REMARK  status: ('A' for Active; 'I' for Inactive)
REMARK    1  A    between atoms: CA   and  CB  
REMARK    2  A    between atoms: CB   and  CG  
REMARK    3  A    between atoms: CG   and  CD  
REMARK    4  A    between atoms: CD   and  CE  
ROOT
ATOM      1  CA  LYS A 131      29.867  25.555  16.977  1.00 20.52     0.186 C 
ENDROOT
BRANCH   1   2
ATOM      2  CB  LYS A 131      28.345  25.722  17.026  1.00 20.94     0.034 C 
BRANCH   2   3
ATOM      3  CG  LYS A 131      27.601  24.401  16.905  1.00 22.96     0.005 C 
BRANCH   3   4
ATOM      4  CD  LYS A 131      26.581  24.224  17.995  1.00 24.33     0.041 C 
BRANCH   4   5
ATOM      5  CE  LYS A 131      25.366  25.099  17.702  1.00 26.91     0.338 C 
ATOM      6  NZ  LYS A 131      24.597  25.352  18.943  1.00 27.40     0.618 N 
ENDBRANCH   4   5
ENDBRANCH   3   4
ENDBRANCH   2   3
ENDBRANCH   1   2
END_RES LYS A 131
BEGIN_RES LYS A 135
REMARK  4 active torsions:
REMARK  status: ('A' for Active; 'I' for Inactive)
REMARK    5  A    between atoms: CA   and  CB  
REMARK    6  A    between atoms: CB   and  CG  
REMARK    7  A    between atoms: CG   and  CD  
REMARK    8  A    between atoms: CD   and  CE  
ROOT
ATOM      7  CA  LYS A 135      33.193  34.663   9.290  1.00 25.02     0.186 C 
ENDROOT
BRANCH   7   8
ATOM      8  CB  LYS A 135      32.060  35.360  10.034  1.00 26.63     0.034 C 
BRANCH   8   9
ATOM      9  CG  LYS A 135      30.788  35.464   9.233  1.00 29.45     0.005 C 
BRANCH   9  10
ATOM     10  CD  LYS A 135      30.196  34.085   8.984  1.00 32.00     0.041 C 
BRANCH  10  11
ATOM     11  CE  LYS A 135      28.719  34.068   9.328  1.00 34.25     0.338 C 
ATOM     12  NZ  LYS A 135      27.904  34.636   8.219  1.00 35.99     0.618 N 
ENDBRANCH  10  11
ENDBRANCH   9  10
ENDBRANCH   8   9
ENDBRANCH   7   8
END_RES LYS A 135
