REMARK VINA RESULT:    -4.648      5.255      9.519
REMARK INTER + INTRA:         -14.714
REMARK INTER:                  -8.005
REMARK INTRA:                  -6.709
REMARK UNBOUND:                -6.398
REMARK SMILES CC(=O)N[C@@H]1[C@@H](O)C[C@](O)(C(=O)O)O[C@H]1C(O)[C@H](O)CNC(=O)OCc1cn(Cc2ccc(Br)cc2)nn1
REMARK SMILES IDX 21 1 22 2 23 3 20 5 18 6 16 7 15 8 9 9 8 10 14 11 6 12 5 13
REMARK SMILES IDX 10 14 11 16 12 17 13 18 7 20 4 22 2 23 1 25 3 26 17 27 19 29
REMARK SMILES IDX 24 31 25 32 26 33 27 34 38 35 28 36 37 37 29 38 30 39 31 40
REMARK SMILES IDX 36 41 32 42 35 43 33 44 34 45
REMARK H PARENT 21 4 10 15 13 19 7 21 4 24 17 28 19 30
REMARK Flexibility Score: inf
ROOT
ATOM      1  N   UNL     1      27.200  41.507   6.482  1.00  0.00    -0.319 N 
ATOM      2  C   UNL     1      26.192  40.750   5.836  1.00  0.00     0.407 C 
ATOM      3  O   UNL     1      24.990  40.710   6.159  1.00  0.00    -0.225 OA
ATOM      4  H   UNL     1      28.203  41.469   6.114  1.00  0.00     0.167 HD
ENDROOT
BRANCH   1   5
ATOM      5  C   UNL     1      26.877  42.314   7.616  1.00  0.00     0.154 C 
BRANCH   5   6
ATOM      6  C   UNL     1      26.833  41.578   8.930  1.00  0.00     0.165 C 
BRANCH   6   7
ATOM      7  C   UNL     1      27.919  40.576   9.087  1.00  0.00     0.176 C 
BRANCH   7   8
ATOM      8  C   UNL     1      28.919  40.770  10.156  1.00  0.00     0.178 C 
ATOM      9  C   UNL     1      30.848  39.584   9.711  1.00  0.00     0.269 C 
ATOM     10  C   UNL     1      31.391  39.701  11.117  1.00  0.00     0.112 C 
ATOM     11  O   UNL     1      30.160  40.768   9.497  1.00  0.00    -0.332 OA
ATOM     12  C   UNL     1      30.213  39.712  12.029  1.00  0.00     0.145 C 
ATOM     13  C   UNL     1      28.873  39.934  11.355  1.00  0.00     0.142 C 
BRANCH   9  14
ATOM     14  O   UNL     1      30.073  38.447   9.656  1.00  0.00    -0.357 OA
ATOM     15  H   UNL     1      29.459  38.332  10.405  1.00  0.00     0.214 HD
ENDBRANCH   9  14
BRANCH   9  16
ATOM     16  C   UNL     1      32.005  39.534   8.787  1.00  0.00     0.364 C 
ATOM     17  O   UNL     1      33.025  40.244   8.928  1.00  0.00    -0.246 OA
BRANCH  16  18
ATOM     18  O   UNL     1      31.924  38.647   7.718  1.00  0.00    -0.477 OA
ATOM     19  H   UNL     1      31.475  37.747   7.781  1.00  0.00     0.296 HD
ENDBRANCH  16  18
ENDBRANCH   9  16
BRANCH  12  20
ATOM     20  O   UNL     1      30.147  38.433  12.629  1.00  0.00    -0.391 OA
ATOM     21  H   UNL     1      29.258  38.244  12.988  1.00  0.00     0.211 HD
ENDBRANCH  12  20
BRANCH  13  22
ATOM     22  N   UNL     1      28.090  40.577  12.435  1.00  0.00    -0.348 N 
ATOM     23  C   UNL     1      26.717  40.372  12.614  1.00  0.00     0.217 C 
ATOM     24  H   UNL     1      28.654  41.205  13.057  1.00  0.00     0.163 HD
ATOM     25  C   UNL     1      26.017  41.075  13.730  1.00  0.00     0.114 C 
ATOM     26  O   UNL     1      26.085  39.617  11.861  1.00  0.00    -0.275 OA
ENDBRANCH  13  22
ENDBRANCH   7   8
BRANCH   7  27
ATOM     27  O   UNL     1      27.390  39.300   8.954  1.00  0.00    -0.388 OA
ATOM     28  H   UNL     1      26.424  39.365   8.708  1.00  0.00     0.211 HD
ENDBRANCH   7  27
ENDBRANCH   6   7
BRANCH   6  29
ATOM     29  O   UNL     1      25.578  41.127   9.300  1.00  0.00    -0.388 OA
ATOM     30  H   UNL     1      25.595  40.302   9.825  1.00  0.00     0.211 HD
ENDBRANCH   6  29
ENDBRANCH   5   6
ENDBRANCH   1   5
BRANCH   2  31
ATOM     31  O   UNL     1      26.559  39.975   4.737  1.00  0.00    -0.443 OA
BRANCH  31  32
ATOM     32  C   UNL     1      27.899  39.607   4.513  1.00  0.00     0.294 C 
BRANCH  32  33
ATOM     33  C   UNL     1      28.325  38.511   5.402  1.00  0.00     0.120 A 
ATOM     34  C   UNL     1      28.118  37.154   5.322  1.00  0.00     0.138 A 
ATOM     35  N   UNL     1      29.044  38.737   6.525  1.00  0.00    -0.132 NA
ATOM     36  N   UNL     1      28.719  36.598   6.399  1.00  0.00    -0.248 N 
ATOM     37  N   UNL     1      29.261  37.580   7.093  1.00  0.00    -0.067 NA
BRANCH  36  38
ATOM     38  C   UNL     1      28.739  35.180   6.697  1.00  0.00     0.181 C 
BRANCH  38  39
ATOM     39  C   UNL     1      27.986  34.982   7.979  1.00  0.00    -0.026 A 
ATOM     40  C   UNL     1      26.685  35.452   8.078  1.00  0.00     0.007 A 
ATOM     41  C   UNL     1      28.593  34.336   9.034  1.00  0.00     0.007 A 
ATOM     42  C   UNL     1      26.016  35.260   9.259  1.00  0.00     0.016 A 
ATOM     43  C   UNL     1      27.914  34.140  10.236  1.00  0.00     0.016 A 
ATOM     44  C   UNL     1      26.628  34.615  10.309  1.00  0.00     0.017 A 
ATOM     45  Br  UNL     1      25.670  34.360  11.943  1.00  0.00    -0.051 Br
ENDBRANCH  38  39
ENDBRANCH  36  38
ENDBRANCH  32  33
ENDBRANCH  31  32
ENDBRANCH   2  31
TORSDOF 16
BEGIN_RES LYS A 131
REMARK  4 active torsions:
REMARK  status: ('A' for Active; 'I' for Inactive)
REMARK    1  A    between atoms: CA   and  CB  
REMARK    2  A    between atoms: CB   and  CG  
REMARK    3  A    between atoms: CG   and  CD  
REMARK    4  A    between atoms: CD   and  CE  
ROOT
ATOM      1  CA  LYS A 131      29.867  25.555  16.977  1.00 20.52     0.186 C 
ENDROOT
BRANCH   1   2
ATOM      2  CB  LYS A 131      28.345  25.722  17.026  1.00 20.94     0.034 C 
BRANCH   2   3
ATOM      3  CG  LYS A 131      27.601  24.401  16.904  1.00 22.96     0.005 C 
BRANCH   3   4
ATOM      4  CD  LYS A 131      26.155  24.526  17.296  1.00 24.33     0.041 C 
BRANCH   4   5
ATOM      5  CE  LYS A 131      25.876  23.636  18.503  1.00 26.91     0.338 C 
ATOM      6  NZ  LYS A 131      24.967  22.527  18.131  1.00 27.40     0.618 N 
ENDBRANCH   4   5
ENDBRANCH   3   4
ENDBRANCH   2   3
ENDBRANCH   1   2
END_RES LYS A 131
BEGIN_RES LYS A 135
REMARK  4 active torsions:
REMARK  status: ('A' for Active; 'I' for Inactive)
REMARK    5  A    between atoms: CA   and  CB  
REMARK    6  A    between atoms: CB   and  CG  
REMARK    7  A    between atoms: CG   and  CD  
REMARK    8  A    between atoms: CD   and  CE  
ROOT
ATOM      7  CA  LYS A 135      33.193  34.663   9.290  1.00 25.02     0.186 C 
ENDROOT
BRANCH   7   8
ATOM      8  CB  LYS A 135      32.060  35.360  10.034  1.00 26.63     0.034 C 
BRANCH   8   9
ATOM      9  CG  LYS A 135      32.530  36.222  11.177  1.00 29.45     0.005 C 
BRANCH   9  10
ATOM     10  CD  LYS A 135      32.097  35.630  12.509  1.00 32.00     0.041 C 
BRANCH  10  11
ATOM     11  CE  LYS A 135      30.801  34.858  12.353  1.00 34.25     0.338 C 
ATOM     12  NZ  LYS A 135      30.452  34.136  13.608  1.00 35.99     0.618 N 
ENDBRANCH  10  11
ENDBRANCH   9  10
ENDBRANCH   8   9
ENDBRANCH   7   8
END_RES LYS A 135
