REMARK VINA RESULT:    -4.618      4.666      7.318
REMARK INTER + INTRA:         -14.541
REMARK INTER:                  -9.226
REMARK INTRA:                  -5.315
REMARK UNBOUND:                -6.145
REMARK SMILES CC(=O)N[C@@H]1[C@@H](O)C[C@](O)(C(=O)O)O[C@H]1C(O)[C@H](O)CNC(=O)OCc1cn(C(C)(C)CO)nn1
REMARK SMILES IDX 21 1 22 2 23 3 20 5 18 6 16 7 15 8 9 9 8 10 14 11 6 12 5 13
REMARK SMILES IDX 10 14 11 16 12 17 13 18 7 20 4 22 2 23 1 25 3 26 17 27 19 29
REMARK SMILES IDX 24 31 25 32 26 33 27 34 35 35 28 36 34 37 29 38 30 39 31 40
REMARK SMILES IDX 32 41 33 42
REMARK H PARENT 21 4 10 15 13 19 7 21 4 24 17 28 19 30 33 43
REMARK Flexibility Score: inf
ROOT
ATOM      1  N   UNL     1      24.807  38.053   9.748  1.00  0.00    -0.319 N 
ATOM      2  C   UNL     1      25.922  37.317   9.235  1.00  0.00     0.407 C 
ATOM      3  O   UNL     1      26.177  37.284   7.983  1.00  0.00    -0.225 OA
ATOM      4  H   UNL     1      24.652  38.057  10.774  1.00  0.00     0.167 HD
ENDROOT
BRANCH   1   5
ATOM      5  C   UNL     1      23.948  38.777   8.835  1.00  0.00     0.154 C 
BRANCH   5   6
ATOM      6  C   UNL     1      22.666  38.091   8.573  1.00  0.00     0.165 C 
BRANCH   6   7
ATOM      7  C   UNL     1      22.679  36.875   7.726  1.00  0.00     0.176 C 
BRANCH   7   8
ATOM      8  C   UNL     1      22.053  35.698   8.433  1.00  0.00     0.178 C 
ATOM      9  C   UNL     1      19.736  36.039   8.102  1.00  0.00     0.269 C 
ATOM     10  C   UNL     1      19.582  36.331   9.606  1.00  0.00     0.112 C 
ATOM     11  O   UNL     1      20.870  35.349   7.817  1.00  0.00    -0.332 OA
ATOM     12  C   UNL     1      20.507  35.383  10.290  1.00  0.00     0.145 C 
ATOM     13  C   UNL     1      21.947  35.842   9.921  1.00  0.00     0.142 C 
BRANCH   9  14
ATOM     14  O   UNL     1      19.543  37.213   7.404  1.00  0.00    -0.357 OA
ATOM     15  H   UNL     1      18.788  37.717   7.793  1.00  0.00     0.214 HD
ENDBRANCH   9  14
BRANCH   9  16
ATOM     16  C   UNL     1      18.593  35.117   7.728  1.00  0.00     0.364 C 
ATOM     17  O   UNL     1      17.520  35.129   8.375  1.00  0.00    -0.246 OA
BRANCH  16  18
ATOM     18  O   UNL     1      18.772  34.267   6.657  1.00  0.00    -0.477 OA
ATOM     19  H   UNL     1      19.591  33.674   6.582  1.00  0.00     0.296 HD
ENDBRANCH  16  18
ENDBRANCH   9  16
BRANCH  12  20
ATOM     20  O   UNL     1      20.362  35.352  11.663  1.00  0.00    -0.391 OA
ATOM     21  H   UNL     1      20.123  36.274  11.948  1.00  0.00     0.211 HD
ENDBRANCH  12  20
BRANCH  13  22
ATOM     22  N   UNL     1      22.770  34.866  10.653  1.00  0.00    -0.348 N 
ATOM     23  C   UNL     1      23.687  35.224  11.646  1.00  0.00     0.217 C 
ATOM     24  H   UNL     1      22.642  33.865  10.400  1.00  0.00     0.163 HD
ATOM     25  C   UNL     1      24.531  34.257  12.394  1.00  0.00     0.114 C 
ATOM     26  O   UNL     1      23.817  36.446  11.934  1.00  0.00    -0.275 OA
ENDBRANCH  13  22
ENDBRANCH   7   8
BRANCH   7  27
ATOM     27  O   UNL     1      22.420  36.999   6.401  1.00  0.00    -0.388 OA
ATOM     28  H   UNL     1      22.163  37.911   6.107  1.00  0.00     0.211 HD
ENDBRANCH   7  27
ENDBRANCH   6   7
BRANCH   6  29
ATOM     29  O   UNL     1      21.751  39.010   8.011  1.00  0.00    -0.388 OA
ATOM     30  H   UNL     1      21.603  39.723   8.670  1.00  0.00     0.211 HD
ENDBRANCH   6  29
ENDBRANCH   5   6
ENDBRANCH   1   5
BRANCH   2  31
ATOM     31  O   UNL     1      26.718  36.642  10.123  1.00  0.00    -0.443 OA
BRANCH  31  32
ATOM     32  C   UNL     1      27.228  37.214  11.291  1.00  0.00     0.294 C 
BRANCH  32  33
ATOM     33  C   UNL     1      28.257  36.343  11.916  1.00  0.00     0.120 A 
ATOM     34  C   UNL     1      29.451  36.791  12.423  1.00  0.00     0.139 A 
ATOM     35  N   UNL     1      28.236  35.024  12.104  1.00  0.00    -0.132 NA
ATOM     36  N   UNL     1      30.126  35.741  12.905  1.00  0.00    -0.244 N 
ATOM     37  N   UNL     1      29.356  34.672  12.696  1.00  0.00    -0.066 NA
BRANCH  36  38
ATOM     38  C   UNL     1      31.426  35.792  13.521  1.00  0.00     0.082 C 
ATOM     39  C   UNL     1      31.632  34.608  14.442  1.00  0.00     0.039 C 
ATOM     40  C   UNL     1      31.542  37.094  14.305  1.00  0.00     0.039 C 
BRANCH  38  41
ATOM     41  C   UNL     1      32.492  35.829  12.456  1.00  0.00     0.186 C 
BRANCH  41  42
ATOM     42  O   UNL     1      33.459  34.852  12.714  1.00  0.00    -0.394 OA
ATOM     43  H   UNL     1      34.200  35.270  13.222  1.00  0.00     0.210 HD
ENDBRANCH  41  42
ENDBRANCH  38  41
ENDBRANCH  36  38
ENDBRANCH  32  33
ENDBRANCH  31  32
ENDBRANCH   2  31
TORSDOF 17
BEGIN_RES LYS A 131
REMARK  4 active torsions:
REMARK  status: ('A' for Active; 'I' for Inactive)
REMARK    1  A    between atoms: CA   and  CB  
REMARK    2  A    between atoms: CB   and  CG  
REMARK    3  A    between atoms: CG   and  CD  
REMARK    4  A    between atoms: CD   and  CE  
ROOT
ATOM      1  CA  LYS A 131      29.867  25.555  16.977  1.00 20.52     0.186 C 
ENDROOT
BRANCH   1   2
ATOM      2  CB  LYS A 131      28.345  25.722  17.026  1.00 20.94     0.034 C 
BRANCH   2   3
ATOM      3  CG  LYS A 131      27.603  24.395  16.981  1.00 22.96     0.005 C 
BRANCH   3   4
ATOM      4  CD  LYS A 131      26.437  24.366  17.929  1.00 24.33     0.041 C 
BRANCH   4   5
ATOM      5  CE  LYS A 131      25.404  23.358  17.435  1.00 26.91     0.338 C 
ATOM      6  NZ  LYS A 131      24.179  24.055  16.976  1.00 27.40     0.618 N 
ENDBRANCH   4   5
ENDBRANCH   3   4
ENDBRANCH   2   3
ENDBRANCH   1   2
END_RES LYS A 131
BEGIN_RES LYS A 135
REMARK  4 active torsions:
REMARK  status: ('A' for Active; 'I' for Inactive)
REMARK    5  A    between atoms: CA   and  CB  
REMARK    6  A    between atoms: CB   and  CG  
REMARK    7  A    between atoms: CG   and  CD  
REMARK    8  A    between atoms: CD   and  CE  
ROOT
ATOM      7  CA  LYS A 135      33.193  34.663   9.290  1.00 25.02     0.186 C 
ENDROOT
BRANCH   7   8
ATOM      8  CB  LYS A 135      32.060  35.360  10.034  1.00 26.63     0.034 C 
BRANCH   8   9
ATOM      9  CG  LYS A 135      30.807  35.518   9.212  1.00 29.45     0.005 C 
BRANCH   9  10
ATOM     10  CD  LYS A 135      30.075  34.190   9.090  1.00 32.00     0.041 C 
BRANCH  10  11
ATOM     11  CE  LYS A 135      28.702  34.393   8.477  1.00 34.25     0.338 C 
ATOM     12  NZ  LYS A 135      27.659  33.653   9.239  1.00 35.99     0.618 N 
ENDBRANCH  10  11
ENDBRANCH   9  10
ENDBRANCH   8   9
ENDBRANCH   7   8
END_RES LYS A 135
