REMARK VINA RESULT:    -4.736      2.674      6.251
REMARK INTER + INTRA:         -13.993
REMARK INTER:                  -7.901
REMARK INTRA:                  -6.092
REMARK UNBOUND:                -5.796
REMARK SMILES CC(=O)N[C@@H]1[C@@H](O)C[C@](O)(C(=O)O)O[C@H]1C(O)[C@H](O)CNC(=O)OCc1cn(C2CCCCC2)nn1
REMARK SMILES IDX 20 1 18 2 16 3 15 4 9 5 8 6 14 7 6 8 5 9 10 10 11 12 12 13
REMARK SMILES IDX 13 14 7 16 4 18 2 19 1 21 3 22 17 23 19 25 21 27 22 28 23 30
REMARK SMILES IDX 24 31 25 32 26 33 27 34 36 35 28 36 35 37 29 38 30 39 34 40
REMARK SMILES IDX 31 41 33 42 32 43
REMARK H PARENT 10 11 13 15 7 17 4 20 17 24 19 26 21 29
REMARK Flexibility Score: inf
ROOT
ATOM      1  C   UNL     1      27.702  29.475  16.775  1.00  0.00     0.154 C 
ENDROOT
BRANCH   1   2
ATOM      2  C   UNL     1      27.388  30.956  16.932  1.00  0.00     0.165 C 
BRANCH   2   3
ATOM      3  C   UNL     1      28.306  31.701  16.013  1.00  0.00     0.176 C 
BRANCH   3   4
ATOM      4  C   UNL     1      29.109  32.804  16.669  1.00  0.00     0.178 C 
ATOM      5  C   UNL     1      29.698  34.431  15.074  1.00  0.00     0.269 C 
ATOM      6  C   UNL     1      31.144  34.415  15.542  1.00  0.00     0.112 C 
ATOM      7  O   UNL     1      28.900  34.025  16.090  1.00  0.00    -0.332 OA
ATOM      8  C   UNL     1      31.545  33.046  16.023  1.00  0.00     0.145 C 
ATOM      9  C   UNL     1      30.524  32.457  16.975  1.00  0.00     0.142 C 
BRANCH   5  10
ATOM     10  O   UNL     1      29.558  33.728  13.879  1.00  0.00    -0.357 OA
ATOM     11  H   UNL     1      29.972  32.817  14.009  1.00  0.00     0.214 HD
ENDBRANCH   5  10
BRANCH   5  12
ATOM     12  C   UNL     1      29.392  35.863  14.802  1.00  0.00     0.364 C 
ATOM     13  O   UNL     1      28.489  36.443  15.446  1.00  0.00    -0.246 OA
BRANCH  12  14
ATOM     14  O   UNL     1      30.097  36.541  13.851  1.00  0.00    -0.477 OA
ATOM     15  H   UNL     1      31.008  36.960  13.997  1.00  0.00     0.296 HD
ENDBRANCH  12  14
ENDBRANCH   5  12
BRANCH   8  16
ATOM     16  O   UNL     1      31.805  32.197  14.955  1.00  0.00    -0.391 OA
ATOM     17  H   UNL     1      32.756  31.927  14.961  1.00  0.00     0.211 HD
ENDBRANCH   8  16
BRANCH   9  18
ATOM     18  N   UNL     1      30.878  32.835  18.345  1.00  0.00    -0.348 N 
ATOM     19  C   UNL     1      30.715  31.880  19.370  1.00  0.00     0.217 C 
ATOM     20  H   UNL     1      31.243  33.780  18.574  1.00  0.00     0.163 HD
ATOM     21  C   UNL     1      31.049  32.171  20.798  1.00  0.00     0.114 C 
ATOM     22  O   UNL     1      30.274  30.708  19.148  1.00  0.00    -0.275 OA
ENDBRANCH   9  18
ENDBRANCH   3   4
BRANCH   3  23
ATOM     23  O   UNL     1      29.012  30.886  15.168  1.00  0.00    -0.388 OA
ATOM     24  H   UNL     1      29.664  31.387  14.584  1.00  0.00     0.211 HD
ENDBRANCH   3  23
ENDBRANCH   2   3
BRANCH   2  25
ATOM     25  O   UNL     1      27.499  31.271  18.265  1.00  0.00    -0.388 OA
ATOM     26  H   UNL     1      26.638  31.155  18.698  1.00  0.00     0.211 HD
ENDBRANCH   2  25
ENDBRANCH   1   2
BRANCH   1  27
ATOM     27  N   UNL     1      28.022  28.941  18.078  1.00  0.00    -0.319 N 
ATOM     28  C   UNL     1      27.330  27.887  18.722  1.00  0.00     0.407 C 
ATOM     29  H   UNL     1      28.838  29.340  18.638  1.00  0.00     0.167 HD
ATOM     30  O   UNL     1      26.352  27.351  18.148  1.00  0.00    -0.225 OA
BRANCH  28  31
ATOM     31  O   UNL     1      27.708  27.431  19.981  1.00  0.00    -0.443 OA
BRANCH  31  32
ATOM     32  C   UNL     1      28.035  28.355  20.988  1.00  0.00     0.294 C 
BRANCH  32  33
ATOM     33  C   UNL     1      29.470  28.178  21.334  1.00  0.00     0.120 A 
ATOM     34  C   UNL     1      30.185  28.904  22.296  1.00  0.00     0.138 A 
ATOM     35  N   UNL     1      30.383  27.325  20.832  1.00  0.00    -0.132 NA
ATOM     36  N   UNL     1      31.457  28.471  22.331  1.00  0.00    -0.249 N 
ATOM     37  N   UNL     1      31.547  27.510  21.428  1.00  0.00    -0.067 NA
BRANCH  36  38
ATOM     38  C   UNL     1      32.522  28.964  23.193  1.00  0.00     0.109 C 
ATOM     39  C   UNL     1      33.795  29.090  22.385  1.00  0.00     0.027 C 
ATOM     40  C   UNL     1      32.164  30.334  23.723  1.00  0.00     0.027 C 
ATOM     41  C   UNL     1      34.098  30.537  22.044  1.00  0.00     0.002 C 
ATOM     42  C   UNL     1      33.407  30.880  24.403  1.00  0.00     0.002 C 
ATOM     43  C   UNL     1      34.357  31.316  23.305  1.00  0.00     0.000 C 
ENDBRANCH  36  38
ENDBRANCH  32  33
ENDBRANCH  31  32
ENDBRANCH  28  31
ENDBRANCH   1  27
TORSDOF 15
BEGIN_RES LYS A 131
REMARK  4 active torsions:
REMARK  status: ('A' for Active; 'I' for Inactive)
REMARK    1  A    between atoms: CA   and  CB  
REMARK    2  A    between atoms: CB   and  CG  
REMARK    3  A    between atoms: CG   and  CD  
REMARK    4  A    between atoms: CD   and  CE  
ROOT
ATOM      1  CA  LYS A 131      29.867  25.555  16.977  1.00 20.52     0.186 C 
ENDROOT
BRANCH   1   2
ATOM      2  CB  LYS A 131      28.345  25.722  17.026  1.00 20.94     0.034 C 
BRANCH   2   3
ATOM      3  CG  LYS A 131      27.599  24.439  16.692  1.00 22.96     0.005 C 
BRANCH   3   4
ATOM      4  CD  LYS A 131      26.906  23.858  17.894  1.00 24.33     0.041 C 
BRANCH   4   5
ATOM      5  CE  LYS A 131      25.413  23.732  17.608  1.00 26.91     0.338 C 
ATOM      6  NZ  LYS A 131      24.998  22.309  17.638  1.00 27.40     0.618 N 
ENDBRANCH   4   5
ENDBRANCH   3   4
ENDBRANCH   2   3
ENDBRANCH   1   2
END_RES LYS A 131
BEGIN_RES LYS A 135
REMARK  4 active torsions:
REMARK  status: ('A' for Active; 'I' for Inactive)
REMARK    5  A    between atoms: CA   and  CB  
REMARK    6  A    between atoms: CB   and  CG  
REMARK    7  A    between atoms: CG   and  CD  
REMARK    8  A    between atoms: CD   and  CE  
ROOT
ATOM      7  CA  LYS A 135      33.193  34.663   9.290  1.00 25.02     0.186 C 
ENDROOT
BRANCH   7   8
ATOM      8  CB  LYS A 135      32.060  35.360  10.034  1.00 26.63     0.034 C 
BRANCH   8   9
ATOM      9  CG  LYS A 135      30.880  35.695   9.158  1.00 29.45     0.005 C 
BRANCH   9  10
ATOM     10  CD  LYS A 135      30.388  34.456   8.425  1.00 32.00     0.041 C 
BRANCH  10  11
ATOM     11  CE  LYS A 135      28.873  34.454   8.343  1.00 34.25     0.338 C 
ATOM     12  NZ  LYS A 135      28.273  33.767   9.520  1.00 35.99     0.618 N 
ENDBRANCH  10  11
ENDBRANCH   9  10
ENDBRANCH   8   9
ENDBRANCH   7   8
END_RES LYS A 135
