REMARK VINA RESULT:    -5.131      3.626      8.166
REMARK INTER + INTRA:         -14.755
REMARK INTER:                  -9.290
REMARK INTRA:                  -5.466
REMARK UNBOUND:                -5.276
REMARK SMILES COc1ccc(Cn2cc(COC(=O)NC[C@@H](O)C(O)[C@@H]3O[C@@](O)(C(=O)O)C[C@H](O)[C@H]3NC(C)=O)nn2)cc1
REMARK SMILES IDX 15 1 13 2 14 3 16 5 17 6 19 7 21 8 23 9 28 10 22 11 29 12
REMARK SMILES IDX 31 13 24 14 25 16 26 17 27 18 30 20 32 22 33 23 34 25 35 26
REMARK SMILES IDX 20 27 18 29 12 31 11 32 10 33 9 34 36 35 8 36 37 37 7 38
REMARK SMILES IDX 6 39 5 40 38 41 4 42 39 43 3 44 2 45 1 46
REMARK H PARENT 15 4 24 15 27 19 30 21 32 24 20 28 18 30
REMARK Flexibility Score: inf
ROOT
ATOM      1  N   UNL     1      29.013  31.859  17.600  1.00  0.00    -0.319 N 
ATOM      2  C   UNL     1      27.982  30.921  17.823  1.00  0.00     0.407 C 
ATOM      3  O   UNL     1      28.096  29.699  17.562  1.00  0.00    -0.225 OA
ATOM      4  H   UNL     1      28.807  32.855  17.849  1.00  0.00     0.167 HD
ENDROOT
BRANCH   1   5
ATOM      5  C   UNL     1      30.298  31.535  17.067  1.00  0.00     0.154 C 
BRANCH   5   6
ATOM      6  C   UNL     1      30.821  32.500  16.059  1.00  0.00     0.165 C 
BRANCH   6   7
ATOM      7  C   UNL     1      29.756  33.439  15.538  1.00  0.00     0.176 C 
BRANCH   7   8
ATOM      8  C   UNL     1      30.278  34.569  14.725  1.00  0.00     0.178 C 
ATOM      9  C   UNL     1      32.038  36.052  14.483  1.00  0.00     0.269 C 
ATOM     10  C   UNL     1      31.112  37.202  14.200  1.00  0.00     0.112 C 
ATOM     11  O   UNL     1      31.506  35.026  15.197  1.00  0.00    -0.332 OA
ATOM     12  C   UNL     1      29.702  36.753  13.881  1.00  0.00     0.145 C 
ATOM     13  C   UNL     1      29.318  35.749  14.915  1.00  0.00     0.142 C 
BRANCH   9  14
ATOM     14  O   UNL     1      33.066  36.603  15.291  1.00  0.00    -0.357 OA
ATOM     15  H   UNL     1      33.851  36.021  15.144  1.00  0.00     0.214 HD
ENDBRANCH   9  14
BRANCH   9  16
ATOM     16  C   UNL     1      32.682  35.665  13.206  1.00  0.00     0.364 C 
ATOM     17  O   UNL     1      32.573  36.360  12.153  1.00  0.00    -0.246 OA
BRANCH  16  18
ATOM     18  O   UNL     1      33.448  34.506  13.092  1.00  0.00    -0.477 OA
ATOM     19  H   UNL     1      34.439  34.527  13.241  1.00  0.00     0.296 HD
ENDBRANCH  16  18
ENDBRANCH   9  16
BRANCH  12  20
ATOM     20  O   UNL     1      28.862  37.848  13.832  1.00  0.00    -0.391 OA
ATOM     21  H   UNL     1      29.383  38.654  13.694  1.00  0.00     0.211 HD
ENDBRANCH  12  20
BRANCH  13  22
ATOM     22  N   UNL     1      27.941  35.374  14.904  1.00  0.00    -0.348 N 
ATOM     23  C   UNL     1      26.927  35.986  15.653  1.00  0.00     0.217 C 
ATOM     24  H   UNL     1      27.659  34.571  14.277  1.00  0.00     0.163 HD
ATOM     25  C   UNL     1      25.531  35.501  15.552  1.00  0.00     0.114 C 
ATOM     26  O   UNL     1      27.192  36.932  16.402  1.00  0.00    -0.275 OA
ENDBRANCH  13  22
ENDBRANCH   7   8
BRANCH   7  27
ATOM     27  O   UNL     1      28.816  32.716  14.836  1.00  0.00    -0.388 OA
ATOM     28  H   UNL     1      29.099  31.821  14.545  1.00  0.00     0.211 HD
ENDBRANCH   7  27
ENDBRANCH   6   7
BRANCH   6  29
ATOM     29  O   UNL     1      31.529  31.913  15.051  1.00  0.00    -0.388 OA
ATOM     30  H   UNL     1      31.406  30.918  15.128  1.00  0.00     0.211 HD
ENDBRANCH   6  29
ENDBRANCH   5   6
ENDBRANCH   1   5
BRANCH   2  31
ATOM     31  O   UNL     1      26.757  31.354  18.363  1.00  0.00    -0.443 OA
BRANCH  31  32
ATOM     32  C   UNL     1      25.876  32.072  17.529  1.00  0.00     0.294 C 
BRANCH  32  33
ATOM     33  C   UNL     1      25.298  31.231  16.467  1.00  0.00     0.120 A 
ATOM     34  C   UNL     1      25.295  31.489  15.093  1.00  0.00     0.138 A 
ATOM     35  N   UNL     1      24.657  30.056  16.599  1.00  0.00    -0.132 NA
ATOM     36  N   UNL     1      24.669  30.483  14.466  1.00  0.00    -0.248 N 
ATOM     37  N   UNL     1      24.293  29.630  15.399  1.00  0.00    -0.067 NA
BRANCH  36  38
ATOM     38  C   UNL     1      24.434  30.333  13.054  1.00  0.00     0.181 C 
BRANCH  38  39
ATOM     39  C   UNL     1      22.989  30.291  12.745  1.00  0.00    -0.026 A 
ATOM     40  C   UNL     1      22.232  31.439  12.792  1.00  0.00     0.009 A 
ATOM     41  C   UNL     1      22.399  29.100  12.410  1.00  0.00     0.009 A 
ATOM     42  C   UNL     1      20.871  31.391  12.498  1.00  0.00     0.047 A 
ATOM     43  C   UNL     1      21.039  29.038  12.114  1.00  0.00     0.047 A 
ATOM     44  C   UNL     1      20.285  30.182  12.160  1.00  0.00     0.118 A 
BRANCH  44  45
ATOM     45  O   UNL     1      18.919  30.153  11.870  1.00  0.00    -0.497 OA
ATOM     46  C   UNL     1      18.032  30.976  12.608  1.00  0.00     0.278 C 
ENDBRANCH  44  45
ENDBRANCH  38  39
ENDBRANCH  36  38
ENDBRANCH  32  33
ENDBRANCH  31  32
ENDBRANCH   2  31
TORSDOF 17
BEGIN_RES LYS A 131
REMARK  4 active torsions:
REMARK  status: ('A' for Active; 'I' for Inactive)
REMARK    1  A    between atoms: CA   and  CB  
REMARK    2  A    between atoms: CB   and  CG  
REMARK    3  A    between atoms: CG   and  CD  
REMARK    4  A    between atoms: CD   and  CE  
ROOT
ATOM      1  CA  LYS A 131      29.867  25.555  16.977  1.00 20.52     0.186 C 
ENDROOT
BRANCH   1   2
ATOM      2  CB  LYS A 131      28.345  25.722  17.026  1.00 20.94     0.034 C 
BRANCH   2   3
ATOM      3  CG  LYS A 131      27.602  24.399  16.923  1.00 22.96     0.005 C 
BRANCH   3   4
ATOM      4  CD  LYS A 131      26.538  24.264  17.977  1.00 24.33     0.041 C 
BRANCH   4   5
ATOM      5  CE  LYS A 131      25.210  24.777  17.429  1.00 26.91     0.338 C 
ATOM      6  NZ  LYS A 131      24.383  23.650  16.936  1.00 27.40     0.618 N 
ENDBRANCH   4   5
ENDBRANCH   3   4
ENDBRANCH   2   3
ENDBRANCH   1   2
END_RES LYS A 131
BEGIN_RES LYS A 135
REMARK  4 active torsions:
REMARK  status: ('A' for Active; 'I' for Inactive)
REMARK    5  A    between atoms: CA   and  CB  
REMARK    6  A    between atoms: CB   and  CG  
REMARK    7  A    between atoms: CG   and  CD  
REMARK    8  A    between atoms: CD   and  CE  
ROOT
ATOM      7  CA  LYS A 135      33.193  34.663   9.290  1.00 25.02     0.186 C 
ENDROOT
BRANCH   7   8
ATOM      8  CB  LYS A 135      32.060  35.360  10.034  1.00 26.63     0.034 C 
BRANCH   8   9
ATOM      9  CG  LYS A 135      30.790  35.470   9.231  1.00 29.45     0.005 C 
BRANCH   9  10
ATOM     10  CD  LYS A 135      30.194  34.094   8.978  1.00 32.00     0.041 C 
BRANCH  10  11
ATOM     11  CE  LYS A 135      28.737  34.059   9.396  1.00 34.25     0.338 C 
ATOM     12  NZ  LYS A 135      27.857  34.598   8.322  1.00 35.99     0.618 N 
ENDBRANCH  10  11
ENDBRANCH   9  10
ENDBRANCH   8   9
ENDBRANCH   7   8
END_RES LYS A 135
