REMARK VINA RESULT:    -5.760      3.861      7.759
REMARK INTER + INTRA:         -14.754
REMARK INTER:                 -10.980
REMARK INTRA:                  -3.774
REMARK UNBOUND:                -3.774
REMARK SMILES CC(=O)N[C@@H]1[C@@H](O)C[C@](O)(C(=O)O)O[C@H]1C(O)[C@H](O)CNC(=O)OCc1cn(COCc2ccccc2)nn1
REMARK SMILES IDX 21 1 22 2 23 3 20 5 18 6 16 7 15 8 9 9 8 10 14 11 6 12 5 13
REMARK SMILES IDX 10 14 11 16 12 17 13 18 7 20 4 22 2 23 1 25 3 26 17 27 19 29
REMARK SMILES IDX 24 31 25 32 26 33 27 34 39 35 28 36 38 37 29 38 30 39 31 40
REMARK SMILES IDX 32 41 33 42 37 43 34 44 36 45 35 46
REMARK H PARENT 21 4 10 15 13 19 7 21 4 24 17 28 19 30
REMARK Flexibility Score: inf
ROOT
ATOM      1  N   UNL     1      25.174  33.872  14.692  1.00  0.00    -0.319 N 
ATOM      2  C   UNL     1      24.253  33.295  13.769  1.00  0.00     0.407 C 
ATOM      3  O   UNL     1      24.450  32.142  13.278  1.00  0.00    -0.225 OA
ATOM      4  H   UNL     1      24.980  34.812  15.071  1.00  0.00     0.167 HD
ENDROOT
BRANCH   1   5
ATOM      5  C   UNL     1      26.339  33.086  15.042  1.00  0.00     0.154 C 
BRANCH   5   6
ATOM      6  C   UNL     1      27.623  33.819  14.763  1.00  0.00     0.165 C 
BRANCH   6   7
ATOM      7  C   UNL     1      28.131  34.474  16.030  1.00  0.00     0.176 C 
BRANCH   7   8
ATOM      8  C   UNL     1      29.619  34.452  16.137  1.00  0.00     0.178 C 
ATOM      9  C   UNL     1      31.524  34.952  14.891  1.00  0.00     0.269 C 
ATOM     10  C   UNL     1      32.236  34.000  15.842  1.00  0.00     0.112 C 
ATOM     11  O   UNL     1      30.144  34.785  14.892  1.00  0.00    -0.332 OA
ATOM     12  C   UNL     1      31.408  32.735  15.894  1.00  0.00     0.145 C 
ATOM     13  C   UNL     1      30.127  33.111  16.621  1.00  0.00     0.142 C 
BRANCH   9  14
ATOM     14  O   UNL     1      31.954  34.595  13.615  1.00  0.00    -0.357 OA
ATOM     15  H   UNL     1      32.815  34.106  13.635  1.00  0.00     0.214 HD
ENDBRANCH   9  14
BRANCH   9  16
ATOM     16  C   UNL     1      31.924  36.340  15.153  1.00  0.00     0.364 C 
ATOM     17  O   UNL     1      33.055  36.574  15.648  1.00  0.00    -0.246 OA
BRANCH  16  18
ATOM     18  O   UNL     1      31.114  37.436  14.884  1.00  0.00    -0.477 OA
ATOM     19  H   UNL     1      30.797  37.567  13.928  1.00  0.00     0.296 HD
ENDBRANCH  16  18
ENDBRANCH   9  16
BRANCH  12  20
ATOM     20  O   UNL     1      31.121  32.257  14.618  1.00  0.00    -0.391 OA
ATOM     21  H   UNL     1      30.751  31.325  14.706  1.00  0.00     0.211 HD
ENDBRANCH  12  20
BRANCH  13  22
ATOM     22  N   UNL     1      30.456  33.210  18.027  1.00  0.00    -0.348 N 
ATOM     23  C   UNL     1      29.772  32.405  18.977  1.00  0.00     0.217 C 
ATOM     24  H   UNL     1      31.191  33.857  18.405  1.00  0.00     0.163 HD
ATOM     25  C   UNL     1      30.070  32.466  20.434  1.00  0.00     0.114 C 
ATOM     26  O   UNL     1      28.876  31.602  18.610  1.00  0.00    -0.275 OA
ENDBRANCH  13  22
ENDBRANCH   7   8
BRANCH   7  27
ATOM     27  O   UNL     1      27.463  33.963  17.116  1.00  0.00    -0.388 OA
ATOM     28  H   UNL     1      27.849  33.061  17.309  1.00  0.00     0.211 HD
ENDBRANCH   7  27
ENDBRANCH   6   7
BRANCH   6  29
ATOM     29  O   UNL     1      27.401  34.752  13.759  1.00  0.00    -0.388 OA
ATOM     30  H   UNL     1      26.730  34.402  13.115  1.00  0.00     0.211 HD
ENDBRANCH   6  29
ENDBRANCH   5   6
ENDBRANCH   1   5
BRANCH   2  31
ATOM     31  O   UNL     1      23.102  33.955  13.360  1.00  0.00    -0.443 OA
BRANCH  31  32
ATOM     32  C   UNL     1      22.745  34.151  12.007  1.00  0.00     0.294 C 
BRANCH  32  33
ATOM     33  C   UNL     1      23.645  35.094  11.307  1.00  0.00     0.120 A 
ATOM     34  C   UNL     1      23.570  35.642  10.044  1.00  0.00     0.141 A 
ATOM     35  N   UNL     1      24.769  35.604  11.840  1.00  0.00    -0.132 NA
ATOM     36  N   UNL     1      24.635  36.458   9.845  1.00  0.00    -0.226 N 
ATOM     37  N   UNL     1      25.335  36.404  10.963  1.00  0.00    -0.065 NA
BRANCH  36  38
ATOM     38  C   UNL     1      24.948  37.241   8.640  1.00  0.00     0.307 C 
BRANCH  38  39
ATOM     39  O   UNL     1      26.313  37.162   8.383  1.00  0.00    -0.355 OA
BRANCH  39  40
ATOM     40  C   UNL     1      26.645  36.065   7.623  1.00  0.00     0.198 C 
BRANCH  40  41
ATOM     41  C   UNL     1      27.840  35.334   8.090  1.00  0.00    -0.022 A 
ATOM     42  C   UNL     1      29.054  35.533   7.464  1.00  0.00     0.006 A 
ATOM     43  C   UNL     1      27.772  34.459   9.145  1.00  0.00     0.006 A 
ATOM     44  C   UNL     1      30.199  34.858   7.894  1.00  0.00     0.000 A 
ATOM     45  C   UNL     1      28.911  33.791   9.567  1.00  0.00     0.000 A 
ATOM     46  C   UNL     1      30.110  33.980   8.957  1.00  0.00     0.000 A 
ENDBRANCH  40  41
ENDBRANCH  39  40
ENDBRANCH  38  39
ENDBRANCH  36  38
ENDBRANCH  32  33
ENDBRANCH  31  32
ENDBRANCH   2  31
TORSDOF 18
BEGIN_RES LYS A 131
REMARK  4 active torsions:
REMARK  status: ('A' for Active; 'I' for Inactive)
REMARK    1  A    between atoms: CA   and  CB  
REMARK    2  A    between atoms: CB   and  CG  
REMARK    3  A    between atoms: CG   and  CD  
REMARK    4  A    between atoms: CD   and  CE  
ROOT
ATOM      1  CA  LYS A 131      29.867  25.555  16.977  1.00 20.52     0.186 C 
ENDROOT
BRANCH   1   2
ATOM      2  CB  LYS A 131      28.345  25.722  17.026  1.00 20.94     0.034 C 
BRANCH   2   3
ATOM      3  CG  LYS A 131      27.601  24.400  16.908  1.00 22.96     0.005 C 
BRANCH   3   4
ATOM      4  CD  LYS A 131      26.159  24.524  17.313  1.00 24.33     0.041 C 
BRANCH   4   5
ATOM      5  CE  LYS A 131      25.877  23.589  18.485  1.00 26.91     0.338 C 
ATOM      6  NZ  LYS A 131      25.502  24.366  19.690  1.00 27.40     0.618 N 
ENDBRANCH   4   5
ENDBRANCH   3   4
ENDBRANCH   2   3
ENDBRANCH   1   2
END_RES LYS A 131
BEGIN_RES LYS A 135
REMARK  4 active torsions:
REMARK  status: ('A' for Active; 'I' for Inactive)
REMARK    5  A    between atoms: CA   and  CB  
REMARK    6  A    between atoms: CB   and  CG  
REMARK    7  A    between atoms: CG   and  CD  
REMARK    8  A    between atoms: CD   and  CE  
ROOT
ATOM      7  CA  LYS A 135      33.193  34.663   9.290  1.00 25.02     0.186 C 
ENDROOT
BRANCH   7   8
ATOM      8  CB  LYS A 135      32.060  35.360  10.034  1.00 26.63     0.034 C 
BRANCH   8   9
ATOM      9  CG  LYS A 135      32.500  36.589  10.787  1.00 29.45     0.005 C 
BRANCH   9  10
ATOM     10  CD  LYS A 135      31.306  37.286  11.422  1.00 32.00     0.041 C 
BRANCH  10  11
ATOM     11  CE  LYS A 135      30.269  37.629  10.370  1.00 34.25     0.338 C 
ATOM     12  NZ  LYS A 135      28.890  37.394  10.880  1.00 35.99     0.618 N 
ENDBRANCH  10  11
ENDBRANCH   9  10
ENDBRANCH   8   9
ENDBRANCH   7   8
END_RES LYS A 135
