REMARK VINA RESULT:    -4.837      6.864     13.931
REMARK INTER + INTRA:         -13.881
REMARK INTER:                  -8.660
REMARK INTRA:                  -5.220
REMARK UNBOUND:                -5.226
REMARK SMILES COc1ccc(-n2cc(COC(=O)NC[C@@H](O)C(O)[C@@H]3O[C@@](O)(C(=O)O)C[C@H](O)[C@H]3NC(C)=O)nn2)cc1
REMARK SMILES IDX 14 1 12 2 13 3 15 5 16 6 18 7 20 8 22 9 27 10 21 11 28 12
REMARK SMILES IDX 30 13 23 14 24 16 25 17 26 18 29 20 31 22 32 23 33 25 34 26
REMARK SMILES IDX 19 27 17 29 11 31 10 32 9 33 8 34 35 35 7 36 36 37 6 38 5 39
REMARK SMILES IDX 37 40 4 41 38 42 3 43 2 44 1 45
REMARK H PARENT 14 4 23 15 26 19 29 21 31 24 19 28 17 30
REMARK Flexibility Score: inf
ROOT
ATOM      1  N   UNL     1      27.955  38.133   9.262  1.00  0.00    -0.319 N 
ATOM      2  C   UNL     1      29.361  38.247   9.302  1.00  0.00     0.407 C 
ATOM      3  O   UNL     1      30.037  38.483   8.289  1.00  0.00    -0.225 OA
ATOM      4  H   UNL     1      27.504  37.900  10.205  1.00  0.00     0.167 HD
ENDROOT
BRANCH   1   5
ATOM      5  C   UNL     1      27.085  38.284   8.166  1.00  0.00     0.154 C 
BRANCH   5   6
ATOM      6  C   UNL     1      25.775  37.638   8.174  1.00  0.00     0.165 C 
BRANCH   6   7
ATOM      7  C   UNL     1      25.379  36.808   9.290  1.00  0.00     0.176 C 
BRANCH   7   8
ATOM      8  C   UNL     1      23.901  36.361   9.320  1.00  0.00     0.178 C 
ATOM      9  C   UNL     1      21.987  37.485   8.523  1.00  0.00     0.269 C 
ATOM     10  C   UNL     1      21.637  37.951   9.946  1.00  0.00     0.112 C 
ATOM     11  O   UNL     1      23.309  37.295   8.488  1.00  0.00    -0.332 OA
ATOM     12  C   UNL     1      21.921  36.802  10.832  1.00  0.00     0.145 C 
ATOM     13  C   UNL     1      23.333  36.214  10.654  1.00  0.00     0.142 C 
BRANCH   9  14
ATOM     14  O   UNL     1      21.749  38.649   7.743  1.00  0.00    -0.357 OA
ATOM     15  H   UNL     1      22.351  39.385   8.012  1.00  0.00     0.214 HD
ENDBRANCH   9  14
BRANCH   9  16
ATOM     16  C   UNL     1      21.123  36.434   8.023  1.00  0.00     0.364 C 
ATOM     17  O   UNL     1      19.963  36.703   7.621  1.00  0.00    -0.246 OA
BRANCH  16  18
ATOM     18  O   UNL     1      21.457  35.082   7.934  1.00  0.00    -0.477 OA
ATOM     19  H   UNL     1      21.473  34.467   8.752  1.00  0.00     0.296 HD
ENDBRANCH  16  18
ENDBRANCH   9  16
BRANCH  12  20
ATOM     20  O   UNL     1      21.790  37.096  12.199  1.00  0.00    -0.391 OA
ATOM     21  H   UNL     1      21.348  38.002  12.222  1.00  0.00     0.211 HD
ENDBRANCH  12  20
BRANCH  13  22
ATOM     22  N   UNL     1      23.169  34.888  11.166  1.00  0.00    -0.348 N 
ATOM     23  C   UNL     1      23.596  34.390  12.397  1.00  0.00     0.217 C 
ATOM     24  H   UNL     1      22.658  34.218  10.517  1.00  0.00     0.163 HD
ATOM     25  C   UNL     1      23.354  32.968  12.794  1.00  0.00     0.114 C 
ATOM     26  O   UNL     1      24.186  35.172  13.150  1.00  0.00    -0.275 OA
ENDBRANCH  13  22
ENDBRANCH   7   8
BRANCH   7  27
ATOM     27  O   UNL     1      26.222  35.706   9.395  1.00  0.00    -0.388 OA
ATOM     28  H   UNL     1      27.072  35.924   9.854  1.00  0.00     0.211 HD
ENDBRANCH   7  27
ENDBRANCH   6   7
BRANCH   6  29
ATOM     29  O   UNL     1      25.536  37.028   6.910  1.00  0.00    -0.388 OA
ATOM     30  H   UNL     1      24.595  36.716   6.859  1.00  0.00     0.211 HD
ENDBRANCH   6  29
ENDBRANCH   5   6
ENDBRANCH   1   5
BRANCH   2  31
ATOM     31  O   UNL     1      30.069  38.096  10.512  1.00  0.00    -0.443 OA
BRANCH  31  32
ATOM     32  C   UNL     1      29.386  38.212  11.736  1.00  0.00     0.294 C 
BRANCH  32  33
ATOM     33  C   UNL     1      28.978  36.878  12.205  1.00  0.00     0.121 A 
ATOM     34  C   UNL     1      29.657  36.169  13.203  1.00  0.00     0.144 A 
ATOM     35  N   UNL     1      27.971  36.087  11.846  1.00  0.00    -0.131 NA
ATOM     36  N   UNL     1      29.026  34.995  13.392  1.00  0.00    -0.220 N 
ATOM     37  N   UNL     1      28.001  34.984  12.543  1.00  0.00    -0.062 NA
BRANCH  36  38
ATOM     38  C   UNL     1      29.375  33.968  14.309  1.00  0.00     0.067 A 
ATOM     39  C   UNL     1      28.447  33.294  15.069  1.00  0.00     0.032 A 
ATOM     40  C   UNL     1      30.710  33.592  14.475  1.00  0.00     0.032 A 
ATOM     41  C   UNL     1      28.808  32.290  15.960  1.00  0.00     0.048 A 
ATOM     42  C   UNL     1      31.066  32.594  15.361  1.00  0.00     0.048 A 
ATOM     43  C   UNL     1      30.126  31.930  16.113  1.00  0.00     0.119 A 
BRANCH  43  44
ATOM     44  O   UNL     1      30.474  30.946  16.987  1.00  0.00    -0.497 OA
ATOM     45  C   UNL     1      30.205  31.098  18.364  1.00  0.00     0.278 C 
ENDBRANCH  43  44
ENDBRANCH  36  38
ENDBRANCH  32  33
ENDBRANCH  31  32
ENDBRANCH   2  31
TORSDOF 16
BEGIN_RES LYS A 131
REMARK  4 active torsions:
REMARK  status: ('A' for Active; 'I' for Inactive)
REMARK    1  A    between atoms: CA   and  CB  
REMARK    2  A    between atoms: CB   and  CG  
REMARK    3  A    between atoms: CG   and  CD  
REMARK    4  A    between atoms: CD   and  CE  
ROOT
ATOM      1  CA  LYS A 131      29.867  25.555  16.977  1.00 20.52     0.186 C 
ENDROOT
BRANCH   1   2
ATOM      2  CB  LYS A 131      28.345  25.722  17.026  1.00 20.94     0.034 C 
BRANCH   2   3
ATOM      3  CG  LYS A 131      27.601  24.401  16.903  1.00 22.96     0.005 C 
BRANCH   3   4
ATOM      4  CD  LYS A 131      26.149  24.532  17.269  1.00 24.33     0.041 C 
BRANCH   4   5
ATOM      5  CE  LYS A 131      26.025  24.848  18.756  1.00 26.91     0.338 C 
ATOM      6  NZ  LYS A 131      24.602  25.017  19.133  1.00 27.40     0.618 N 
ENDBRANCH   4   5
ENDBRANCH   3   4
ENDBRANCH   2   3
ENDBRANCH   1   2
END_RES LYS A 131
BEGIN_RES LYS A 135
REMARK  4 active torsions:
REMARK  status: ('A' for Active; 'I' for Inactive)
REMARK    5  A    between atoms: CA   and  CB  
REMARK    6  A    between atoms: CB   and  CG  
REMARK    7  A    between atoms: CG   and  CD  
REMARK    8  A    between atoms: CD   and  CE  
ROOT
ATOM      7  CA  LYS A 135      33.193  34.663   9.290  1.00 25.02     0.186 C 
ENDROOT
BRANCH   7   8
ATOM      8  CB  LYS A 135      32.060  35.360  10.034  1.00 26.63     0.034 C 
BRANCH   8   9
ATOM      9  CG  LYS A 135      30.709  34.736   9.796  1.00 29.45     0.005 C 
BRANCH   9  10
ATOM     10  CD  LYS A 135      30.476  34.512   8.310  1.00 32.00     0.041 C 
BRANCH  10  11
ATOM     11  CE  LYS A 135      29.030  34.793   7.949  1.00 34.25     0.338 C 
ATOM     12  NZ  LYS A 135      28.934  35.545   6.667  1.00 35.99     0.618 N 
ENDBRANCH  10  11
ENDBRANCH   9  10
ENDBRANCH   8   9
ENDBRANCH   7   8
END_RES LYS A 135
