REMARK VINA RESULT:    -8.018      0.000      0.000
REMARK INTER + INTRA:         -13.658
REMARK INTER:                  -8.429
REMARK INTRA:                  -5.229
REMARK UNBOUND:                 3.032
REMARK SMILES CC(=O)N[C@@H]1[C@@H](O)C[C@](O)(C(=O)O)O[C@H]1C(O)[C@H](O)CNC(=O)OCc1cn(C2CC(O)C=C[C@@H](O)C2)nn1
REMARK SMILES IDX 21 1 22 2 23 3 20 5 18 6 16 7 15 8 9 9 8 10 14 11 6 12 5 13
REMARK SMILES IDX 10 14 11 16 12 17 13 18 7 20 4 22 2 23 1 25 3 26 17 27 19 29
REMARK SMILES IDX 24 31 25 32 26 33 27 34 39 35 28 36 38 37 29 38 30 39 31 40
REMARK SMILES IDX 32 42 37 44 35 45 34 46 33 47 36 49
REMARK H PARENT 21 4 10 15 13 19 7 21 4 24 17 28 19 30 32 43 36 50
REMARK Flexibility Score: 90.00
ROOT
ATOM      1  N   UNL     1      28.396  31.153  16.686  1.00  0.00    -0.319 N 
ATOM      2  C   UNL     1      27.428  30.120  16.509  1.00  0.00     0.407 C 
ATOM      3  O   UNL     1      27.739  28.938  16.211  1.00  0.00    -0.225 OA
ATOM      4  H   UNL     1      28.109  32.125  16.932  1.00  0.00     0.167 HD
ENDROOT
BRANCH   1   5
ATOM      5  C   UNL     1      29.794  30.761  16.500  1.00  0.00     0.154 C 
BRANCH   5   6
ATOM      6  C   UNL     1      30.569  32.040  16.243  1.00  0.00     0.165 C 
BRANCH   6   7
ATOM      7  C   UNL     1      29.668  33.227  15.994  1.00  0.00     0.176 C 
BRANCH   7   8
ATOM      8  C   UNL     1      30.099  34.032  14.808  1.00  0.00     0.178 C 
ATOM      9  C   UNL     1      31.598  35.486  13.894  1.00  0.00     0.269 C 
ATOM     10  C   UNL     1      30.753  35.177  12.676  1.00  0.00     0.112 C 
ATOM     11  O   UNL     1      31.322  34.630  14.952  1.00  0.00    -0.332 OA
ATOM     12  C   UNL     1      29.274  35.340  12.961  1.00  0.00     0.145 C 
ATOM     13  C   UNL     1      29.090  35.095  14.431  1.00  0.00     0.142 C 
BRANCH   9  14
ATOM     14  O   UNL     1      31.489  36.823  14.259  1.00  0.00    -0.357 OA
ATOM     15  H   UNL     1      31.706  37.434  13.506  1.00  0.00     0.214 HD
ENDBRANCH   9  14
BRANCH   9  16
ATOM     16  C   UNL     1      33.007  35.240  13.504  1.00  0.00     0.364 C 
ATOM     17  O   UNL     1      33.886  34.877  14.332  1.00  0.00    -0.246 OA
BRANCH  16  18
ATOM     18  O   UNL     1      33.382  35.412  12.190  1.00  0.00    -0.477 OA
ATOM     19  H   UNL     1      33.473  34.660  11.514  1.00  0.00     0.296 HD
ENDBRANCH  16  18
ENDBRANCH   9  16
BRANCH  12  20
ATOM     20  O   UNL     1      28.907  36.602  12.554  1.00  0.00    -0.391 OA
ATOM     21  H   UNL     1      28.292  36.494  11.764  1.00  0.00     0.211 HD
ENDBRANCH  12  20
BRANCH  13  22
ATOM     22  N   UNL     1      27.768  34.797  14.838  1.00  0.00    -0.348 N 
ATOM     23  C   UNL     1      26.869  35.704  15.460  1.00  0.00     0.217 C 
ATOM     24  H   UNL     1      27.410  33.832  14.674  1.00  0.00     0.163 HD
ATOM     25  C   UNL     1      25.488  35.291  15.854  1.00  0.00     0.114 C 
ATOM     26  O   UNL     1      27.274  36.865  15.667  1.00  0.00    -0.275 OA
ENDBRANCH  13  22
ENDBRANCH   7   8
BRANCH   7  27
ATOM     27  O   UNL     1      29.456  33.958  17.137  1.00  0.00    -0.388 OA
ATOM     28  H   UNL     1      28.658  33.607  17.591  1.00  0.00     0.211 HD
ENDBRANCH   7  27
ENDBRANCH   6   7
BRANCH   6  29
ATOM     29  O   UNL     1      31.329  31.890  15.059  1.00  0.00    -0.388 OA
ATOM     30  H   UNL     1      32.239  31.533  15.264  1.00  0.00     0.211 HD
ENDBRANCH   6  29
ENDBRANCH   5   6
ENDBRANCH   1   5
BRANCH   2  31
ATOM     31  O   UNL     1      26.094  30.409  16.666  1.00  0.00    -0.443 OA
BRANCH  31  32
ATOM     32  C   UNL     1      25.040  29.619  16.144  1.00  0.00     0.294 C 
BRANCH  32  33
ATOM     33  C   UNL     1      24.520  30.277  14.923  1.00  0.00     0.120 A 
ATOM     34  C   UNL     1      24.452  31.618  14.615  1.00  0.00     0.138 A 
ATOM     35  N   UNL     1      24.005  29.618  13.867  1.00  0.00    -0.132 NA
ATOM     36  N   UNL     1      23.902  31.743  13.392  1.00  0.00    -0.249 N 
ATOM     37  N   UNL     1      23.645  30.502  12.973  1.00  0.00    -0.067 NA
BRANCH  36  38
ATOM     38  C   UNL     1      23.647  32.997  12.682  1.00  0.00     0.115 C 
BRANCH  38  39
ATOM     39  C   UNL     1      24.832  33.880  12.883  1.00  0.00     0.063 C 
BRANCH  39  40
ATOM     40  C   UNL     1      24.889  35.065  11.984  1.00  0.00     0.139 CG0
ATOM     41  G   UNL     1      23.820  36.046  12.234  1.00  0.00     0.000 G0
BRANCH  40  42
ATOM     42  O   UNL     1      26.169  35.663  11.961  1.00  0.00    -0.389 OA
ATOM     43  H   UNL     1      26.773  35.085  11.448  1.00  0.00     0.211 HD
ENDBRANCH  40  42
ENDBRANCH  39  40
ENDBRANCH  38  39
BRANCH  38  44
ATOM     44  C   UNL     1      22.365  33.556  13.196  1.00  0.00     0.063 C 
BRANCH  44  45
ATOM     45  C   UNL     1      21.764  34.627  12.338  1.00  0.00     0.139 C 
BRANCH  45  46
ATOM     46  C   UNL     1      22.517  35.900  12.362  1.00  0.00     0.002 C 
ATOM     47  C   UNL     1      23.811  36.082  12.220  1.00  0.00     0.002 CG0
ATOM     48  G   UNL     1      24.868  35.082  12.000  1.00  0.00     0.000 G0
ENDBRANCH  45  46
BRANCH  45  49
ATOM     49  O   UNL     1      21.535  34.200  11.031  1.00  0.00    -0.389 OA
ATOM     50  H   UNL     1      20.746  33.604  10.975  1.00  0.00     0.211 HD
ENDBRANCH  45  49
ENDBRANCH  44  45
ENDBRANCH  38  44
ENDBRANCH  36  38
ENDBRANCH  32  33
ENDBRANCH  31  32
ENDBRANCH   2  31
TORSDOF 17
BEGIN_RES LYS A 131
REMARK  4 active torsions:
REMARK  status: ('A' for Active; 'I' for Inactive)
REMARK    1  A    between atoms: CA   and  CB  
REMARK    2  A    between atoms: CB   and  CG  
REMARK    3  A    between atoms: CG   and  CD  
REMARK    4  A    between atoms: CD   and  CE  
ROOT
ATOM      1  CA  LYS A 131      29.867  25.555  16.977  1.00 20.52     0.186 C 
ENDROOT
BRANCH   1   2
ATOM      2  CB  LYS A 131      28.345  25.722  17.026  1.00 20.94     0.034 C 
BRANCH   2   3
ATOM      3  CG  LYS A 131      27.602  24.400  16.909  1.00 22.96     0.005 C 
BRANCH   3   4
ATOM      4  CD  LYS A 131      26.158  24.525  17.312  1.00 24.33     0.041 C 
BRANCH   4   5
ATOM      5  CE  LYS A 131      25.825  23.455  18.347  1.00 26.91     0.338 C 
ATOM      6  NZ  LYS A 131      25.296  22.239  17.685  1.00 27.40     0.618 N 
ENDBRANCH   4   5
ENDBRANCH   3   4
ENDBRANCH   2   3
ENDBRANCH   1   2
END_RES LYS A 131
BEGIN_RES LYS A 135
REMARK  4 active torsions:
REMARK  status: ('A' for Active; 'I' for Inactive)
REMARK    5  A    between atoms: CA   and  CB  
REMARK    6  A    between atoms: CB   and  CG  
REMARK    7  A    between atoms: CG   and  CD  
REMARK    8  A    between atoms: CD   and  CE  
ROOT
ATOM      7  CA  LYS A 135      33.193  34.663   9.290  1.00 25.02     0.186 C 
ENDROOT
BRANCH   7   8
ATOM      8  CB  LYS A 135      32.060  35.360  10.034  1.00 26.63     0.034 C 
BRANCH   8   9
ATOM      9  CG  LYS A 135      30.842  35.608   9.182  1.00 29.45     0.005 C 
BRANCH   9  10
ATOM     10  CD  LYS A 135      29.896  34.418   9.239  1.00 32.00     0.041 C 
BRANCH  10  11
ATOM     11  CE  LYS A 135      28.453  34.884   9.216  1.00 34.25     0.338 C 
ATOM     12  NZ  LYS A 135      27.520  33.751   9.469  1.00 35.99     0.618 N 
ENDBRANCH  10  11
ENDBRANCH   9  10
ENDBRANCH   8   9
ENDBRANCH   7   8
END_RES LYS A 135
