REMARK VINA RESULT:    -4.030      3.408      5.694
REMARK INTER + INTRA:         -17.747
REMARK INTER:                 -10.150
REMARK INTRA:                  -7.597
REMARK UNBOUND:                -8.298
REMARK SMILES CC(=O)N[C@@H]1[C@@H](O)C[C@](O)(C(=O)O)O[C@H]1C(O)[C@H](O)CNC(=O)OCc1cn(CCCCCCCCCCC(=O)O)nn1
REMARK SMILES IDX 29 1 28 2 26 3 27 4 43 5 42 6 25 7 24 8 22 9 21 10 23 12
REMARK SMILES IDX 20 13 18 14 16 15 15 16 9 17 8 18 14 19 6 20 5 21 10 22
REMARK SMILES IDX 11 24 12 25 13 26 7 28 4 30 2 31 1 33 3 34 17 35 19 37 30 39
REMARK SMILES IDX 31 40 32 41 33 42 34 43 35 44 36 45 37 46 38 47 39 48 40 49
REMARK SMILES IDX 41 50
REMARK H PARENT 21 11 10 23 13 27 7 29 4 32 17 36 19 38 41 51
REMARK Flexibility Score: inf
ROOT
ATOM      1  C   UNL     1      27.237  29.046  16.554  1.00  0.00     0.146 C 
ENDROOT
BRANCH   1   2
ATOM      2  N   UNL     1      26.959  28.337  17.773  1.00  0.00    -0.252 N 
ATOM      3  C   UNL     1      26.041  27.210  19.417  1.00  0.00     0.120 A 
ATOM      4  C   UNL     1      25.795  27.759  18.187  1.00  0.00     0.138 A 
ATOM      5  N   UNL     1      27.333  27.462  19.721  1.00  0.00    -0.132 NA
ATOM      6  N   UNL     1      27.847  28.131  18.724  1.00  0.00    -0.067 NA
BRANCH   3   7
ATOM      7  C   UNL     1      25.050  26.481  20.236  1.00  0.00     0.294 C 
BRANCH   7   8
ATOM      8  O   UNL     1      25.683  25.812  21.305  1.00  0.00    -0.443 OA
BRANCH   8   9
ATOM      9  C   UNL     1      26.162  26.519  22.400  1.00  0.00     0.407 C 
ATOM     10  N   UNL     1      25.910  27.908  22.560  1.00  0.00    -0.319 N 
ATOM     11  H   UNL     1      25.354  28.428  21.848  1.00  0.00     0.167 HD
ATOM     12  O   UNL     1      26.845  25.883  23.275  1.00  0.00    -0.225 OA
BRANCH  10  13
ATOM     13  C   UNL     1      26.421  28.596  23.703  1.00  0.00     0.154 C 
BRANCH  13  14
ATOM     14  C   UNL     1      27.686  29.371  23.399  1.00  0.00     0.165 C 
BRANCH  14  15
ATOM     15  C   UNL     1      28.827  28.826  24.204  1.00  0.00     0.176 C 
BRANCH  15  16
ATOM     16  C   UNL     1      30.022  28.585  23.307  1.00  0.00     0.178 C 
ATOM     17  C   UNL     1      30.817  29.091  21.190  1.00  0.00     0.269 C 
ATOM     18  C   UNL     1      31.653  27.849  21.404  1.00  0.00     0.112 C 
ATOM     19  O   UNL     1      29.782  29.195  22.106  1.00  0.00    -0.332 OA
ATOM     20  C   UNL     1      30.737  26.731  21.818  1.00  0.00     0.145 C 
ATOM     21  C   UNL     1      30.228  27.093  23.220  1.00  0.00     0.142 C 
BRANCH  17  22
ATOM     22  O   UNL     1      30.237  28.969  19.931  1.00  0.00    -0.357 OA
ATOM     23  H   UNL     1      30.889  29.149  19.217  1.00  0.00     0.214 HD
ENDBRANCH  17  22
BRANCH  17  24
ATOM     24  C   UNL     1      31.718  30.244  21.193  1.00  0.00     0.364 C 
ATOM     25  O   UNL     1      32.926  30.080  21.493  1.00  0.00    -0.246 OA
BRANCH  24  26
ATOM     26  O   UNL     1      31.326  31.539  20.881  1.00  0.00    -0.477 OA
ATOM     27  H   UNL     1      32.055  32.263  20.789  1.00  0.00     0.296 HD
ENDBRANCH  24  26
ENDBRANCH  17  24
BRANCH  20  28
ATOM     28  O   UNL     1      29.705  26.571  20.919  1.00  0.00    -0.391 OA
ATOM     29  H   UNL     1      28.851  26.677  21.410  1.00  0.00     0.211 HD
ENDBRANCH  20  28
BRANCH  21  30
ATOM     30  N   UNL     1      31.259  26.652  24.135  1.00  0.00    -0.348 N 
ATOM     31  C   UNL     1      30.947  25.630  25.062  1.00  0.00     0.217 C 
ATOM     32  H   UNL     1      32.225  27.064  24.128  1.00  0.00     0.163 HD
ATOM     33  C   UNL     1      31.985  25.146  26.024  1.00  0.00     0.114 C 
ATOM     34  O   UNL     1      29.805  25.131  25.082  1.00  0.00    -0.275 OA
ENDBRANCH  21  30
ENDBRANCH  15  16
BRANCH  15  35
ATOM     35  O   UNL     1      28.392  27.652  24.827  1.00  0.00    -0.388 OA
ATOM     36  H   UNL     1      28.981  26.892  24.676  1.00  0.00     0.211 HD
ENDBRANCH  15  35
ENDBRANCH  14  15
BRANCH  14  37
ATOM     37  O   UNL     1      27.543  30.723  23.711  1.00  0.00    -0.388 OA
ATOM     38  H   UNL     1      28.320  31.062  24.195  1.00  0.00     0.211 HD
ENDBRANCH  14  37
ENDBRANCH  13  14
ENDBRANCH  10  13
ENDBRANCH   8   9
ENDBRANCH   7   8
ENDBRANCH   3   7
ENDBRANCH   1   2
BRANCH   1  39
ATOM     39  C   UNL     1      26.851  30.490  16.726  1.00  0.00     0.024 C 
BRANCH  39  40
ATOM     40  C   UNL     1      28.014  31.429  16.576  1.00  0.00     0.002 C 
BRANCH  40  41
ATOM     41  C   UNL     1      28.828  31.547  17.841  1.00  0.00     0.000 C 
BRANCH  41  42
ATOM     42  C   UNL     1      30.313  31.561  17.493  1.00  0.00     0.000 C 
BRANCH  42  43
ATOM     43  C   UNL     1      30.463  31.475  15.997  1.00  0.00     0.000 C 
BRANCH  43  44
ATOM     44  C   UNL     1      31.502  32.431  15.488  1.00  0.00     0.000 C 
BRANCH  44  45
ATOM     45  C   UNL     1      31.594  33.629  16.374  1.00  0.00     0.001 C 
BRANCH  45  46
ATOM     46  C   UNL     1      31.725  34.909  15.554  1.00  0.00     0.012 C 
BRANCH  46  47
ATOM     47  C   UNL     1      33.142  35.156  15.109  1.00  0.00     0.122 C 
BRANCH  47  48
ATOM     48  C   UNL     1      33.117  35.193  13.613  1.00  0.00     0.303 C 
ATOM     49  O   UNL     1      32.317  35.891  12.957  1.00  0.00    -0.252 OA
BRANCH  48  50
ATOM     50  O   UNL     1      34.030  34.414  12.901  1.00  0.00    -0.481 OA
ATOM     51  H   UNL     1      34.484  34.810  12.096  1.00  0.00     0.296 HD
ENDBRANCH  48  50
ENDBRANCH  47  48
ENDBRANCH  46  47
ENDBRANCH  45  46
ENDBRANCH  44  45
ENDBRANCH  43  44
ENDBRANCH  42  43
ENDBRANCH  41  42
ENDBRANCH  40  41
ENDBRANCH  39  40
ENDBRANCH   1  39
TORSDOF 26
BEGIN_RES LYS A 131
REMARK  4 active torsions:
REMARK  status: ('A' for Active; 'I' for Inactive)
REMARK    1  A    between atoms: CA   and  CB  
REMARK    2  A    between atoms: CB   and  CG  
REMARK    3  A    between atoms: CG   and  CD  
REMARK    4  A    between atoms: CD   and  CE  
ROOT
ATOM      1  CA  LYS A 131      29.867  25.555  16.977  1.00 20.52     0.186 C 
ENDROOT
BRANCH   1   2
ATOM      2  CB  LYS A 131      28.345  25.722  17.026  1.00 20.94     0.034 C 
BRANCH   2   3
ATOM      3  CG  LYS A 131      27.599  24.420  16.777  1.00 22.96     0.005 C 
BRANCH   3   4
ATOM      4  CD  LYS A 131      26.908  23.918  18.015  1.00 24.33     0.041 C 
BRANCH   4   5
ATOM      5  CE  LYS A 131      25.747  23.013  17.617  1.00 26.91     0.338 C 
ATOM      6  NZ  LYS A 131      24.476  23.517  18.189  1.00 27.40     0.618 N 
ENDBRANCH   4   5
ENDBRANCH   3   4
ENDBRANCH   2   3
ENDBRANCH   1   2
END_RES LYS A 131
BEGIN_RES LYS A 135
REMARK  4 active torsions:
REMARK  status: ('A' for Active; 'I' for Inactive)
REMARK    5  A    between atoms: CA   and  CB  
REMARK    6  A    between atoms: CB   and  CG  
REMARK    7  A    between atoms: CG   and  CD  
REMARK    8  A    between atoms: CD   and  CE  
ROOT
ATOM      7  CA  LYS A 135      33.193  34.663   9.290  1.00 25.02     0.186 C 
ENDROOT
BRANCH   7   8
ATOM      8  CB  LYS A 135      32.060  35.360  10.034  1.00 26.63     0.034 C 
BRANCH   8   9
ATOM      9  CG  LYS A 135      30.712  34.726   9.809  1.00 29.45     0.005 C 
BRANCH   9  10
ATOM     10  CD  LYS A 135      30.456  34.523   8.323  1.00 32.00     0.041 C 
BRANCH  10  11
ATOM     11  CE  LYS A 135      29.005  34.812   7.988  1.00 34.25     0.338 C 
ATOM     12  NZ  LYS A 135      28.887  35.524   6.686  1.00 35.99     0.618 N 
ENDBRANCH  10  11
ENDBRANCH   9  10
ENDBRANCH   8   9
ENDBRANCH   7   8
END_RES LYS A 135
