REMARK VINA RESULT:    -5.160      2.047      2.592
REMARK INTER + INTRA:         -14.094
REMARK INTER:                  -8.300
REMARK INTRA:                  -5.794
REMARK UNBOUND:                -5.164
REMARK SMILES CC(=O)N[C@@H]1[C@@H](O)C[C@](O)(C(=O)O)O[C@H]1C(O)[C@H](O)CNC(=O)OCc1cn(-c2cccnc2)nn1
REMARK SMILES IDX 20 1 18 2 16 3 15 4 9 5 8 6 14 7 6 8 5 9 10 10 11 12 12 13
REMARK SMILES IDX 13 14 7 16 4 18 2 19 1 21 3 22 17 23 19 25 21 27 22 28 23 30
REMARK SMILES IDX 24 31 25 32 26 33 27 34 36 35 28 36 35 37 29 38 30 39 34 40
REMARK SMILES IDX 31 41 33 42 32 43
REMARK H PARENT 10 11 13 15 7 17 4 20 17 24 19 26 21 29
REMARK Flexibility Score: inf
ROOT
ATOM      1  C   UNL     1      27.670  28.853  20.132  1.00  0.00     0.154 C 
ENDROOT
BRANCH   1   2
ATOM      2  C   UNL     1      28.032  27.547  20.738  1.00  0.00     0.165 C 
BRANCH   2   3
ATOM      3  C   UNL     1      28.627  27.657  22.090  1.00  0.00     0.176 C 
BRANCH   3   4
ATOM      4  C   UNL     1      29.764  28.596  22.290  1.00  0.00     0.178 C 
ATOM      5  C   UNL     1      31.692  29.469  21.476  1.00  0.00     0.269 C 
ATOM      6  C   UNL     1      31.972  30.127  22.780  1.00  0.00     0.112 C 
ATOM      7  O   UNL     1      30.849  28.374  21.505  1.00  0.00    -0.332 OA
ATOM      8  C   UNL     1      30.887  30.100  23.799  1.00  0.00     0.145 C 
ATOM      9  C   UNL     1      30.164  28.723  23.733  1.00  0.00     0.142 C 
BRANCH   5  10
ATOM     10  O   UNL     1      32.953  28.954  21.039  1.00  0.00    -0.357 OA
ATOM     11  H   UNL     1      33.498  29.758  20.876  1.00  0.00     0.214 HD
ENDBRANCH   5  10
BRANCH   5  12
ATOM     12  C   UNL     1      31.270  30.422  20.425  1.00  0.00     0.364 C 
ATOM     13  O   UNL     1      31.372  31.657  20.628  1.00  0.00    -0.246 OA
BRANCH  12  14
ATOM     14  O   UNL     1      30.754  30.058  19.188  1.00  0.00    -0.477 OA
ATOM     15  H   UNL     1      31.446  29.815  18.470  1.00  0.00     0.296 HD
ENDBRANCH  12  14
ENDBRANCH   5  12
BRANCH   8  16
ATOM     16  O   UNL     1      31.412  30.168  25.090  1.00  0.00    -0.391 OA
ATOM     17  H   UNL     1      32.378  29.961  25.063  1.00  0.00     0.211 HD
ENDBRANCH   8  16
BRANCH   9  18
ATOM     18  N   UNL     1      28.979  28.885  24.531  1.00  0.00    -0.348 N 
ATOM     19  C   UNL     1      28.736  28.185  25.735  1.00  0.00     0.217 C 
ATOM     20  H   UNL     1      28.239  29.565  24.213  1.00  0.00     0.163 HD
ATOM     21  C   UNL     1      27.482  28.422  26.486  1.00  0.00     0.114 C 
ATOM     22  O   UNL     1      29.587  27.368  26.155  1.00  0.00    -0.275 OA
ENDBRANCH   9  18
ENDBRANCH   3   4
BRANCH   3  23
ATOM     23  O   UNL     1      28.727  26.460  22.775  1.00  0.00    -0.388 OA
ATOM     24  H   UNL     1      29.074  26.504  23.680  1.00  0.00     0.211 HD
ENDBRANCH   3  23
ENDBRANCH   2   3
BRANCH   2  25
ATOM     25  O   UNL     1      29.002  26.900  19.933  1.00  0.00    -0.388 OA
ATOM     26  H   UNL     1      29.821  27.432  19.993  1.00  0.00     0.211 HD
ENDBRANCH   2  25
ENDBRANCH   1   2
BRANCH   1  27
ATOM     27  N   UNL     1      28.049  29.060  18.766  1.00  0.00    -0.319 N 
ATOM     28  C   UNL     1      27.225  28.927  17.655  1.00  0.00     0.407 C 
ATOM     29  H   UNL     1      29.058  29.344  18.570  1.00  0.00     0.167 HD
ATOM     30  O   UNL     1      26.038  28.593  17.761  1.00  0.00    -0.225 OA
BRANCH  28  31
ATOM     31  O   UNL     1      27.671  29.159  16.342  1.00  0.00    -0.443 OA
BRANCH  31  32
ATOM     32  C   UNL     1      27.616  30.450  15.780  1.00  0.00     0.294 C 
BRANCH  32  33
ATOM     33  C   UNL     1      28.890  31.174  15.944  1.00  0.00     0.121 A 
ATOM     34  C   UNL     1      29.143  32.404  15.357  1.00  0.00     0.144 A 
ATOM     35  N   UNL     1      29.998  30.866  16.618  1.00  0.00    -0.131 NA
ATOM     36  N   UNL     1      30.384  32.795  15.694  1.00  0.00    -0.219 N 
ATOM     37  N   UNL     1      30.887  31.858  16.455  1.00  0.00    -0.062 NA
BRANCH  36  38
ATOM     38  C   UNL     1      31.045  34.003  15.305  1.00  0.00     0.085 A 
ATOM     39  C   UNL     1      32.414  34.043  15.105  1.00  0.00     0.031 A 
ATOM     40  C   UNL     1      30.314  35.159  15.121  1.00  0.00     0.139 A 
ATOM     41  C   UNL     1      33.014  35.246  14.726  1.00  0.00     0.022 A 
ATOM     42  N   UNL     1      30.926  36.319  14.752  1.00  0.00    -0.262 NA
ATOM     43  C   UNL     1      32.254  36.388  14.550  1.00  0.00     0.111 A 
ENDBRANCH  36  38
ENDBRANCH  32  33
ENDBRANCH  31  32
ENDBRANCH  28  31
ENDBRANCH   1  27
TORSDOF 15
BEGIN_RES LYS A 131
REMARK  4 active torsions:
REMARK  status: ('A' for Active; 'I' for Inactive)
REMARK    1  A    between atoms: CA   and  CB  
REMARK    2  A    between atoms: CB   and  CG  
REMARK    3  A    between atoms: CG   and  CD  
REMARK    4  A    between atoms: CD   and  CE  
ROOT
ATOM      1  CA  LYS A 131      29.867  25.555  16.977  1.00 20.52     0.186 C 
ENDROOT
BRANCH   1   2
ATOM      2  CB  LYS A 131      28.345  25.722  17.026  1.00 20.94     0.034 C 
BRANCH   2   3
ATOM      3  CG  LYS A 131      27.599  24.467  16.599  1.00 22.96     0.005 C 
BRANCH   3   4
ATOM      4  CD  LYS A 131      26.524  24.086  17.579  1.00 24.33     0.041 C 
BRANCH   4   5
ATOM      5  CE  LYS A 131      26.309  25.228  18.567  1.00 26.91     0.338 C 
ATOM      6  NZ  LYS A 131      25.506  24.767  19.725  1.00 27.40     0.618 N 
ENDBRANCH   4   5
ENDBRANCH   3   4
ENDBRANCH   2   3
ENDBRANCH   1   2
END_RES LYS A 131
BEGIN_RES LYS A 135
REMARK  4 active torsions:
REMARK  status: ('A' for Active; 'I' for Inactive)
REMARK    5  A    between atoms: CA   and  CB  
REMARK    6  A    between atoms: CB   and  CG  
REMARK    7  A    between atoms: CG   and  CD  
REMARK    8  A    between atoms: CD   and  CE  
ROOT
ATOM      7  CA  LYS A 135      33.193  34.663   9.290  1.00 25.02     0.186 C 
ENDROOT
BRANCH   7   8
ATOM      8  CB  LYS A 135      32.060  35.360  10.034  1.00 26.63     0.034 C 
BRANCH   8   9
ATOM      9  CG  LYS A 135      30.810  35.527   9.209  1.00 29.45     0.005 C 
BRANCH   9  10
ATOM     10  CD  LYS A 135      30.200  34.173   8.879  1.00 32.00     0.041 C 
BRANCH  10  11
ATOM     11  CE  LYS A 135      28.709  34.305   8.635  1.00 34.25     0.338 C 
ATOM     12  NZ  LYS A 135      27.933  33.963   9.859  1.00 35.99     0.618 N 
ENDBRANCH  10  11
ENDBRANCH   9  10
ENDBRANCH   8   9
ENDBRANCH   7   8
END_RES LYS A 135
