REMARK VINA RESULT:    -4.479      6.419     10.470
REMARK INTER + INTRA:         -14.309
REMARK INTER:                  -7.515
REMARK INTRA:                  -6.794
REMARK UNBOUND:                -6.295
REMARK SMILES CC(=O)N[C@@H]1[C@@H](O)C[C@](O)(C(=O)O)O[C@H]1C(O)[C@H](O)CNC(=O)OCc1cn(Cc2cccc(Br)c2)nn1
REMARK SMILES IDX 21 1 22 2 23 3 20 5 18 6 16 7 15 8 9 9 8 10 14 11 6 12 5 13
REMARK SMILES IDX 10 14 11 16 12 17 13 18 7 20 4 22 2 23 1 25 3 26 17 27 19 29
REMARK SMILES IDX 24 31 25 32 26 33 27 34 38 35 28 36 37 37 29 38 30 39 31 40
REMARK SMILES IDX 36 41 32 42 34 43 33 44 35 45
REMARK H PARENT 21 4 10 15 13 19 7 21 4 24 17 28 19 30
REMARK Flexibility Score: inf
ROOT
ATOM      1  N   UNL     1      24.435  36.963   9.731  1.00  0.00    -0.319 N 
ATOM      2  C   UNL     1      24.331  35.739  10.433  1.00  0.00     0.407 C 
ATOM      3  O   UNL     1      23.208  35.148  10.546  1.00  0.00    -0.225 OA
ATOM      4  H   UNL     1      25.373  37.411   9.663  1.00  0.00     0.167 HD
ENDROOT
BRANCH   1   5
ATOM      5  C   UNL     1      23.229  37.499   9.161  1.00  0.00     0.154 C 
BRANCH   5   6
ATOM      6  C   UNL     1      23.353  37.647   7.637  1.00  0.00     0.165 C 
BRANCH   6   7
ATOM      7  C   UNL     1      23.507  39.105   7.386  1.00  0.00     0.176 C 
BRANCH   7   8
ATOM      8  C   UNL     1      24.915  39.619   7.303  1.00  0.00     0.178 C 
ATOM      9  C   UNL     1      27.047  38.674   7.177  1.00  0.00     0.269 C 
ATOM     10  C   UNL     1      27.559  39.896   7.915  1.00  0.00     0.112 C 
ATOM     11  O   UNL     1      25.718  38.483   7.461  1.00  0.00    -0.332 OA
ATOM     12  C   UNL     1      26.554  40.360   8.957  1.00  0.00     0.145 C 
ATOM     13  C   UNL     1      25.264  40.738   8.206  1.00  0.00     0.142 C 
BRANCH   9  14
ATOM     14  O   UNL     1      27.717  37.579   7.766  1.00  0.00    -0.357 OA
ATOM     15  H   UNL     1      27.094  36.920   8.127  1.00  0.00     0.214 HD
ENDBRANCH   9  14
BRANCH   9  16
ATOM     16  C   UNL     1      27.392  38.688   5.754  1.00  0.00     0.364 C 
ATOM     17  O   UNL     1      27.749  39.755   5.201  1.00  0.00    -0.246 OA
BRANCH  16  18
ATOM     18  O   UNL     1      27.346  37.555   4.954  1.00  0.00    -0.477 OA
ATOM     19  H   UNL     1      28.113  36.911   4.970  1.00  0.00     0.296 HD
ENDBRANCH  16  18
ENDBRANCH   9  16
BRANCH  12  20
ATOM     20  O   UNL     1      26.337  39.402   9.913  1.00  0.00    -0.391 OA
ATOM     21  H   UNL     1      27.156  38.816   9.974  1.00  0.00     0.211 HD
ENDBRANCH  12  20
BRANCH  13  22
ATOM     22  N   UNL     1      25.636  41.944   7.455  1.00  0.00    -0.348 N 
ATOM     23  C   UNL     1      24.659  42.882   7.026  1.00  0.00     0.217 C 
ATOM     24  H   UNL     1      26.624  42.164   7.202  1.00  0.00     0.163 HD
ATOM     25  C   UNL     1      25.064  44.112   6.254  1.00  0.00     0.114 C 
ATOM     26  O   UNL     1      23.452  42.727   7.268  1.00  0.00    -0.275 OA
ENDBRANCH  13  22
ENDBRANCH   7   8
BRANCH   7  27
ATOM     27  O   UNL     1      22.953  39.753   8.522  1.00  0.00    -0.388 OA
ATOM     28  H   UNL     1      23.286  39.220   9.298  1.00  0.00     0.211 HD
ENDBRANCH   7  27
ENDBRANCH   6   7
BRANCH   6  29
ATOM     29  O   UNL     1      22.190  37.091   7.111  1.00  0.00    -0.388 OA
ATOM     30  H   UNL     1      21.507  37.075   7.816  1.00  0.00     0.211 HD
ENDBRANCH   6  29
ENDBRANCH   5   6
ENDBRANCH   1   5
BRANCH   2  31
ATOM     31  O   UNL     1      25.415  35.112  11.031  1.00  0.00    -0.443 OA
BRANCH  31  32
ATOM     32  C   UNL     1      26.083  35.620  12.172  1.00  0.00     0.294 C 
BRANCH  32  33
ATOM     33  C   UNL     1      27.319  36.356  11.793  1.00  0.00     0.120 A 
ATOM     34  C   UNL     1      28.469  36.497  12.578  1.00  0.00     0.138 A 
ATOM     35  N   UNL     1      27.594  37.021  10.657  1.00  0.00    -0.132 NA
ATOM     36  N   UNL     1      29.360  37.223  11.895  1.00  0.00    -0.248 N 
ATOM     37  N   UNL     1      28.808  37.528  10.736  1.00  0.00    -0.067 NA
BRANCH  36  38
ATOM     38  C   UNL     1      30.690  37.629  12.295  1.00  0.00     0.181 C 
BRANCH  38  39
ATOM     39  C   UNL     1      31.215  38.655  11.358  1.00  0.00    -0.025 A 
ATOM     40  C   UNL     1      31.813  38.296  10.170  1.00  0.00     0.006 A 
ATOM     41  C   UNL     1      31.110  39.983  11.666  1.00  0.00     0.021 A 
ATOM     42  C   UNL     1      32.309  39.259   9.287  1.00  0.00     0.002 A 
ATOM     43  C   UNL     1      31.600  40.954  10.793  1.00  0.00     0.018 A 
ATOM     44  C   UNL     1      32.201  40.587   9.600  1.00  0.00     0.016 A 
ATOM     45  Br  UNL     1      31.436  42.788  11.255  1.00  0.00    -0.051 Br
ENDBRANCH  38  39
ENDBRANCH  36  38
ENDBRANCH  32  33
ENDBRANCH  31  32
ENDBRANCH   2  31
TORSDOF 16
BEGIN_RES LYS A 131
REMARK  4 active torsions:
REMARK  status: ('A' for Active; 'I' for Inactive)
REMARK    1  A    between atoms: CA   and  CB  
REMARK    2  A    between atoms: CB   and  CG  
REMARK    3  A    between atoms: CG   and  CD  
REMARK    4  A    between atoms: CD   and  CE  
ROOT
ATOM      1  CA  LYS A 131      29.867  25.555  16.977  1.00 20.52     0.186 C 
ENDROOT
BRANCH   1   2
ATOM      2  CB  LYS A 131      28.345  25.722  17.026  1.00 20.94     0.034 C 
BRANCH   2   3
ATOM      3  CG  LYS A 131      27.599  24.476  16.574  1.00 22.96     0.005 C 
BRANCH   3   4
ATOM      4  CD  LYS A 131      27.167  23.622  17.734  1.00 24.33     0.041 C 
BRANCH   4   5
ATOM      5  CE  LYS A 131      26.112  24.366  18.548  1.00 26.91     0.338 C 
ATOM      6  NZ  LYS A 131      25.492  23.460  19.543  1.00 27.40     0.618 N 
ENDBRANCH   4   5
ENDBRANCH   3   4
ENDBRANCH   2   3
ENDBRANCH   1   2
END_RES LYS A 131
BEGIN_RES LYS A 135
REMARK  4 active torsions:
REMARK  status: ('A' for Active; 'I' for Inactive)
REMARK    5  A    between atoms: CA   and  CB  
REMARK    6  A    between atoms: CB   and  CG  
REMARK    7  A    between atoms: CG   and  CD  
REMARK    8  A    between atoms: CD   and  CE  
ROOT
ATOM      7  CA  LYS A 135      33.193  34.663   9.290  1.00 25.02     0.186 C 
ENDROOT
BRANCH   7   8
ATOM      8  CB  LYS A 135      32.060  35.360  10.034  1.00 26.63     0.034 C 
BRANCH   8   9
ATOM      9  CG  LYS A 135      30.745  34.628   9.951  1.00 29.45     0.005 C 
BRANCH   9  10
ATOM     10  CD  LYS A 135      30.308  34.472   8.503  1.00 32.00     0.041 C 
BRANCH  10  11
ATOM     11  CE  LYS A 135      28.796  34.418   8.406  1.00 34.25     0.338 C 
ATOM     12  NZ  LYS A 135      28.209  33.691   9.567  1.00 35.99     0.618 N 
ENDBRANCH  10  11
ENDBRANCH   9  10
ENDBRANCH   8   9
ENDBRANCH   7   8
END_RES LYS A 135
