REMARK VINA RESULT:    -4.408      3.230      5.420
REMARK INTER + INTRA:         -13.415
REMARK INTER:                  -7.462
REMARK INTRA:                  -5.954
REMARK UNBOUND:                -5.786
REMARK SMILES CC(=O)N[C@@H]1[C@@H](O)C[C@](O)(C(=O)O)O[C@H]1C(O)[C@H](O)CNC(=O)OCc1cn(C2CCN(C)CC2)nn1
REMARK SMILES IDX 20 1 18 2 16 3 15 4 9 5 8 6 14 7 6 8 5 9 10 10 11 12 12 13
REMARK SMILES IDX 13 14 7 16 4 18 2 19 1 21 3 22 17 23 19 25 21 27 22 28 23 30
REMARK SMILES IDX 24 31 25 32 26 33 27 34 37 35 28 36 36 37 29 38 30 39 35 40
REMARK SMILES IDX 31 41 34 42 32 43 33 44
REMARK H PARENT 10 11 13 15 7 17 4 20 17 24 19 26 21 29
REMARK Flexibility Score: inf
ROOT
ATOM      1  C   UNL     1      25.736  33.580  16.177  1.00  0.00     0.154 C 
ENDROOT
BRANCH   1   2
ATOM      2  C   UNL     1      25.112  32.235  16.343  1.00  0.00     0.165 C 
BRANCH   2   3
ATOM      3  C   UNL     1      26.091  31.105  16.100  1.00  0.00     0.176 C 
BRANCH   3   4
ATOM      4  C   UNL     1      27.472  31.522  16.558  1.00  0.00     0.178 C 
ATOM      5  C   UNL     1      29.576  32.216  15.819  1.00  0.00     0.269 C 
ATOM      6  C   UNL     1      30.248  31.277  16.773  1.00  0.00     0.112 C 
ATOM      7  O   UNL     1      28.267  31.954  15.543  1.00  0.00    -0.332 OA
ATOM      8  C   UNL     1      29.367  30.963  17.952  1.00  0.00     0.145 C 
ATOM      9  C   UNL     1      28.054  30.424  17.390  1.00  0.00     0.142 C 
BRANCH   5  10
ATOM     10  O   UNL     1      30.352  32.236  14.626  1.00  0.00    -0.357 OA
ATOM     11  H   UNL     1      30.429  33.155  14.268  1.00  0.00     0.214 HD
ENDBRANCH   5  10
BRANCH   5  12
ATOM     12  C   UNL     1      29.642  33.585  16.392  1.00  0.00     0.364 C 
ATOM     13  O   UNL     1      28.971  34.512  15.874  1.00  0.00    -0.246 OA
BRANCH  12  14
ATOM     14  O   UNL     1      30.409  33.936  17.492  1.00  0.00    -0.477 OA
ATOM     15  H   UNL     1      30.145  34.687  18.130  1.00  0.00     0.296 HD
ENDBRANCH  12  14
ENDBRANCH   5  12
BRANCH   8  16
ATOM     16  O   UNL     1      29.944  30.001  18.786  1.00  0.00    -0.391 OA
ATOM     17  H   UNL     1      30.215  30.371  19.655  1.00  0.00     0.211 HD
ENDBRANCH   8  16
BRANCH   9  18
ATOM     18  N   UNL     1      27.212  30.194  18.572  1.00  0.00    -0.348 N 
ATOM     19  C   UNL     1      26.958  28.902  19.073  1.00  0.00     0.217 C 
ATOM     20  H   UNL     1      26.814  31.028  19.021  1.00  0.00     0.163 HD
ATOM     21  C   UNL     1      26.093  28.684  20.285  1.00  0.00     0.114 C 
ATOM     22  O   UNL     1      27.473  27.918  18.481  1.00  0.00    -0.275 OA
ENDBRANCH   9  18
ENDBRANCH   3   4
BRANCH   3  23
ATOM     23  O   UNL     1      26.052  30.765  14.768  1.00  0.00    -0.388 OA
ATOM     24  H   UNL     1      26.917  30.376  14.479  1.00  0.00     0.211 HD
ENDBRANCH   3  23
ENDBRANCH   2   3
BRANCH   2  25
ATOM     25  O   UNL     1      24.076  32.112  15.387  1.00  0.00    -0.388 OA
ATOM     26  H   UNL     1      23.956  31.163  15.119  1.00  0.00     0.211 HD
ENDBRANCH   2  25
ENDBRANCH   1   2
BRANCH   1  27
ATOM     27  N   UNL     1      26.116  33.747  14.791  1.00  0.00    -0.319 N 
ATOM     28  C   UNL     1      25.982  34.959  14.062  1.00  0.00     0.407 C 
ATOM     29  H   UNL     1      26.530  32.946  14.224  1.00  0.00     0.167 HD
ATOM     30  O   UNL     1      25.513  35.958  14.628  1.00  0.00    -0.225 OA
BRANCH  28  31
ATOM     31  O   UNL     1      26.360  35.070  12.730  1.00  0.00    -0.443 OA
BRANCH  31  32
ATOM     32  C   UNL     1      27.240  36.096  12.314  1.00  0.00     0.294 C 
BRANCH  32  33
ATOM     33  C   UNL     1      28.651  35.717  12.579  1.00  0.00     0.120 A 
ATOM     34  C   UNL     1      29.690  36.521  12.953  1.00  0.00     0.138 A 
ATOM     35  N   UNL     1      29.164  34.475  12.490  1.00  0.00    -0.132 NA
ATOM     36  N   UNL     1      30.798  35.773  13.083  1.00  0.00    -0.249 N 
ATOM     37  N   UNL     1      30.436  34.520  12.791  1.00  0.00    -0.067 NA
BRANCH  36  38
ATOM     38  C   UNL     1      32.108  36.249  13.465  1.00  0.00     0.111 C 
ATOM     39  C   UNL     1      33.062  35.103  13.719  1.00  0.00     0.043 C 
ATOM     40  C   UNL     1      32.032  37.199  14.623  1.00  0.00     0.043 C 
ATOM     41  C   UNL     1      32.937  34.546  15.117  1.00  0.00     0.086 C 
ATOM     42  C   UNL     1      31.874  36.530  15.952  1.00  0.00     0.086 C 
ATOM     43  N   UNL     1      32.917  35.565  16.124  1.00  0.00    -0.306 NA
ATOM     44  C   UNL     1      34.178  36.231  16.281  1.00  0.00     0.105 C 
ENDBRANCH  36  38
ENDBRANCH  32  33
ENDBRANCH  31  32
ENDBRANCH  28  31
ENDBRANCH   1  27
TORSDOF 15
BEGIN_RES LYS A 131
REMARK  4 active torsions:
REMARK  status: ('A' for Active; 'I' for Inactive)
REMARK    1  A    between atoms: CA   and  CB  
REMARK    2  A    between atoms: CB   and  CG  
REMARK    3  A    between atoms: CG   and  CD  
REMARK    4  A    between atoms: CD   and  CE  
ROOT
ATOM      1  CA  LYS A 131      29.867  25.555  16.977  1.00 20.52     0.186 C 
ENDROOT
BRANCH   1   2
ATOM      2  CB  LYS A 131      28.345  25.722  17.026  1.00 20.94     0.034 C 
BRANCH   2   3
ATOM      3  CG  LYS A 131      27.601  24.401  16.905  1.00 22.96     0.005 C 
BRANCH   3   4
ATOM      4  CD  LYS A 131      26.501  24.275  17.922  1.00 24.33     0.041 C 
BRANCH   4   5
ATOM      5  CE  LYS A 131      25.161  24.582  17.263  1.00 26.91     0.338 C 
ATOM      6  NZ  LYS A 131      24.110  24.778  18.290  1.00 27.40     0.618 N 
ENDBRANCH   4   5
ENDBRANCH   3   4
ENDBRANCH   2   3
ENDBRANCH   1   2
END_RES LYS A 131
BEGIN_RES LYS A 135
REMARK  4 active torsions:
REMARK  status: ('A' for Active; 'I' for Inactive)
REMARK    5  A    between atoms: CA   and  CB  
REMARK    6  A    between atoms: CB   and  CG  
REMARK    7  A    between atoms: CG   and  CD  
REMARK    8  A    between atoms: CD   and  CE  
ROOT
ATOM      7  CA  LYS A 135      33.193  34.663   9.290  1.00 25.02     0.186 C 
ENDROOT
BRANCH   7   8
ATOM      8  CB  LYS A 135      32.060  35.360  10.034  1.00 26.63     0.034 C 
BRANCH   8   9
ATOM      9  CG  LYS A 135      30.798  35.493   9.222  1.00 29.45     0.005 C 
BRANCH   9  10
ATOM     10  CD  LYS A 135      30.222  34.123   8.897  1.00 32.00     0.041 C 
BRANCH  10  11
ATOM     11  CE  LYS A 135      28.710  34.139   9.016  1.00 34.25     0.338 C 
ATOM     12  NZ  LYS A 135      28.091  34.893   7.891  1.00 35.99     0.618 N 
ENDBRANCH  10  11
ENDBRANCH   9  10
ENDBRANCH   8   9
ENDBRANCH   7   8
END_RES LYS A 135
