REMARK VINA RESULT:    -6.174      5.575     10.234
REMARK INTER + INTRA:         -15.543
REMARK INTER:                  -9.192
REMARK INTRA:                  -6.350
REMARK UNBOUND:                -3.774
REMARK SMILES CC(=O)N[C@@H]1[C@@H](O)C[C@](O)(C(=O)O)O[C@H]1C(O)[C@H](O)CNC(=O)OCc1cn(COCc2ccccc2)nn1
REMARK SMILES IDX 21 1 22 2 23 3 20 5 18 6 16 7 15 8 9 9 8 10 14 11 6 12 5 13
REMARK SMILES IDX 10 14 11 16 12 17 13 18 7 20 4 22 2 23 1 25 3 26 17 27 19 29
REMARK SMILES IDX 24 31 25 32 26 33 27 34 39 35 28 36 38 37 29 38 30 39 31 40
REMARK SMILES IDX 32 41 33 42 37 43 34 44 36 45 35 46
REMARK H PARENT 21 4 10 15 13 19 7 21 4 24 17 28 19 30
REMARK Flexibility Score: inf
ROOT
ATOM      1  N   UNL     1      31.045  32.810  16.971  1.00  0.00    -0.319 N 
ATOM      2  C   UNL     1      30.739  34.155  16.609  1.00  0.00     0.407 C 
ATOM      3  O   UNL     1      30.236  34.963  17.448  1.00  0.00    -0.225 OA
ATOM      4  H   UNL     1      31.454  32.180  16.263  1.00  0.00     0.167 HD
ENDROOT
BRANCH   1   5
ATOM      5  C   UNL     1      30.757  32.410  18.334  1.00  0.00     0.154 C 
BRANCH   5   6
ATOM      6  C   UNL     1      29.817  31.236  18.395  1.00  0.00     0.165 C 
BRANCH   6   7
ATOM      7  C   UNL     1      28.475  31.676  18.938  1.00  0.00     0.176 C 
BRANCH   7   8
ATOM      8  C   UNL     1      27.424  30.624  18.804  1.00  0.00     0.178 C 
ATOM      9  C   UNL     1      27.156  28.424  18.086  1.00  0.00     0.269 C 
ATOM     10  C   UNL     1      25.685  28.788  17.944  1.00  0.00     0.112 C 
ATOM     11  O   UNL     1      27.986  29.538  18.141  1.00  0.00    -0.332 OA
ATOM     12  C   UNL     1      25.630  30.083  17.164  1.00  0.00     0.145 C 
ATOM     13  C   UNL     1      26.196  31.146  18.091  1.00  0.00     0.142 C 
BRANCH   9  14
ATOM     14  O   UNL     1      27.489  27.753  16.911  1.00  0.00    -0.357 OA
ATOM     15  H   UNL     1      26.796  27.858  16.212  1.00  0.00     0.214 HD
ENDBRANCH   9  14
BRANCH   9  16
ATOM     16  C   UNL     1      27.356  27.515  19.222  1.00  0.00     0.364 C 
ATOM     17  O   UNL     1      26.377  27.205  19.945  1.00  0.00    -0.246 OA
BRANCH  16  18
ATOM     18  O   UNL     1      28.587  26.964  19.556  1.00  0.00    -0.477 OA
ATOM     19  H   UNL     1      28.774  26.010  19.261  1.00  0.00     0.296 HD
ENDBRANCH  16  18
ENDBRANCH   9  16
BRANCH  12  20
ATOM     20  O   UNL     1      26.378  30.009  15.993  1.00  0.00    -0.391 OA
ATOM     21  H   UNL     1      27.286  30.404  16.172  1.00  0.00     0.211 HD
ENDBRANCH  12  20
BRANCH  13  22
ATOM     22  N   UNL     1      25.171  31.441  19.069  1.00  0.00    -0.348 N 
ATOM     23  C   UNL     1      24.767  32.784  19.295  1.00  0.00     0.217 C 
ATOM     24  H   UNL     1      24.688  30.705  19.640  1.00  0.00     0.163 HD
ATOM     25  C   UNL     1      23.717  33.144  20.287  1.00  0.00     0.114 C 
ATOM     26  O   UNL     1      25.294  33.729  18.653  1.00  0.00    -0.275 OA
ENDBRANCH  13  22
ENDBRANCH   7   8
BRANCH   7  27
ATOM     27  O   UNL     1      28.141  32.901  18.414  1.00  0.00    -0.388 OA
ATOM     28  H   UNL     1      27.240  32.810  17.991  1.00  0.00     0.211 HD
ENDBRANCH   7  27
ENDBRANCH   6   7
BRANCH   6  29
ATOM     29  O   UNL     1      30.387  30.243  19.182  1.00  0.00    -0.388 OA
ATOM     30  H   UNL     1      31.375  30.254  19.076  1.00  0.00     0.211 HD
ENDBRANCH   6  29
ENDBRANCH   5   6
ENDBRANCH   1   5
BRANCH   2  31
ATOM     31  O   UNL     1      30.972  34.649  15.333  1.00  0.00    -0.443 OA
BRANCH  31  32
ATOM     32  C   UNL     1      30.360  34.136  14.167  1.00  0.00     0.294 C 
BRANCH  32  33
ATOM     33  C   UNL     1      28.884  34.229  14.206  1.00  0.00     0.120 A 
ATOM     34  C   UNL     1      27.952  33.477  14.889  1.00  0.00     0.141 A 
ATOM     35  N   UNL     1      28.165  35.135  13.522  1.00  0.00    -0.132 NA
ATOM     36  N   UNL     1      26.709  33.940  14.607  1.00  0.00    -0.226 N 
ATOM     37  N   UNL     1      26.888  34.947  13.773  1.00  0.00    -0.065 NA
BRANCH  36  38
ATOM     38  C   UNL     1      25.428  33.430  15.120  1.00  0.00     0.307 C 
BRANCH  38  39
ATOM     39  O   UNL     1      25.129  32.225  14.491  1.00  0.00    -0.355 OA
BRANCH  39  40
ATOM     40  C   UNL     1      24.365  32.394  13.360  1.00  0.00     0.198 C 
BRANCH  40  41
ATOM     41  C   UNL     1      23.531  31.229  13.003  1.00  0.00    -0.022 A 
ATOM     42  C   UNL     1      24.092  29.969  12.971  1.00  0.00     0.006 A 
ATOM     43  C   UNL     1      22.199  31.371  12.707  1.00  0.00     0.006 A 
ATOM     44  C   UNL     1      23.321  28.851  12.642  1.00  0.00     0.000 A 
ATOM     45  C   UNL     1      21.438  30.259  12.382  1.00  0.00     0.000 A 
ATOM     46  C   UNL     1      21.982  29.014  12.347  1.00  0.00     0.000 A 
ENDBRANCH  40  41
ENDBRANCH  39  40
ENDBRANCH  38  39
ENDBRANCH  36  38
ENDBRANCH  32  33
ENDBRANCH  31  32
ENDBRANCH   2  31
TORSDOF 18
BEGIN_RES LYS A 131
REMARK  4 active torsions:
REMARK  status: ('A' for Active; 'I' for Inactive)
REMARK    1  A    between atoms: CA   and  CB  
REMARK    2  A    between atoms: CB   and  CG  
REMARK    3  A    between atoms: CG   and  CD  
REMARK    4  A    between atoms: CD   and  CE  
ROOT
ATOM      1  CA  LYS A 131      29.867  25.555  16.977  1.00 20.52     0.186 C 
ENDROOT
BRANCH   1   2
ATOM      2  CB  LYS A 131      28.345  25.722  17.026  1.00 20.94     0.034 C 
BRANCH   2   3
ATOM      3  CG  LYS A 131      27.601  24.404  16.874  1.00 22.96     0.005 C 
BRANCH   3   4
ATOM      4  CD  LYS A 131      26.627  24.171  17.996  1.00 24.33     0.041 C 
BRANCH   4   5
ATOM      5  CE  LYS A 131      25.613  23.112  17.578  1.00 26.91     0.338 C 
ATOM      6  NZ  LYS A 131      24.812  22.671  18.744  1.00 27.40     0.618 N 
ENDBRANCH   4   5
ENDBRANCH   3   4
ENDBRANCH   2   3
ENDBRANCH   1   2
END_RES LYS A 131
BEGIN_RES LYS A 135
REMARK  4 active torsions:
REMARK  status: ('A' for Active; 'I' for Inactive)
REMARK    5  A    between atoms: CA   and  CB  
REMARK    6  A    between atoms: CB   and  CG  
REMARK    7  A    between atoms: CG   and  CD  
REMARK    8  A    between atoms: CD   and  CE  
ROOT
ATOM      7  CA  LYS A 135      33.193  34.663   9.290  1.00 25.02     0.186 C 
ENDROOT
BRANCH   7   8
ATOM      8  CB  LYS A 135      32.060  35.360  10.034  1.00 26.63     0.034 C 
BRANCH   8   9
ATOM      9  CG  LYS A 135      30.837  35.595   9.186  1.00 29.45     0.005 C 
BRANCH   9  10
ATOM     10  CD  LYS A 135      30.193  34.273   8.795  1.00 32.00     0.041 C 
BRANCH  10  11
ATOM     11  CE  LYS A 135      28.774  34.495   8.310  1.00 34.25     0.338 C 
ATOM     12  NZ  LYS A 135      27.919  35.059   9.391  1.00 35.99     0.618 N 
ENDBRANCH  10  11
ENDBRANCH   9  10
ENDBRANCH   8   9
ENDBRANCH   7   8
END_RES LYS A 135
