REMARK VINA RESULT:    -5.403      5.557     10.161
REMARK INTER + INTRA:         -17.387
REMARK INTER:                 -11.147
REMARK INTRA:                  -6.240
REMARK UNBOUND:                -6.299
REMARK SMILES CC(=O)N[C@@H]1[C@@H](O)C[C@](O)(C(=O)O)O[C@H]1C(O)[C@H](O)CNC(=O)OCc1cn(C[C@@H](C(=O)O)C(c2ccccc2)c2ccccc2)nn1
REMARK SMILES IDX 21 1 22 2 23 3 20 5 18 6 16 7 15 8 9 9 8 10 14 11 6 12 5 13
REMARK SMILES IDX 10 14 11 16 12 17 13 18 7 20 4 22 2 23 1 25 3 26 17 27 19 29
REMARK SMILES IDX 24 31 25 32 26 33 27 34 48 35 28 36 47 37 29 38 30 39 31 40
REMARK SMILES IDX 32 41 33 42 34 44 35 45 36 46 40 47 37 48 39 49 38 50 41 51
REMARK SMILES IDX 42 52 46 53 43 54 45 55 44 56
REMARK H PARENT 21 4 10 15 13 19 7 21 4 24 17 28 19 30 33 43
REMARK Flexibility Score: inf
ROOT
ATOM      1  N   UNL     1      18.860  39.738   8.164  1.00  0.00    -0.319 N 
ATOM      2  C   UNL     1      19.446  40.537   9.179  1.00  0.00     0.407 C 
ATOM      3  O   UNL     1      19.059  40.411  10.378  1.00  0.00    -0.225 OA
ATOM      4  H   UNL     1      19.240  39.905   7.186  1.00  0.00     0.167 HD
ENDROOT
BRANCH   1   5
ATOM      5  C   UNL     1      17.825  38.765   8.415  1.00  0.00     0.154 C 
BRANCH   5   6
ATOM      6  C   UNL     1      17.787  37.663   7.354  1.00  0.00     0.165 C 
BRANCH   6   7
ATOM      7  C   UNL     1      18.788  36.634   7.783  1.00  0.00     0.176 C 
BRANCH   7   8
ATOM      8  C   UNL     1      18.524  36.075   9.152  1.00  0.00     0.178 C 
ATOM      9  C   UNL     1      19.684  35.332  11.016  1.00  0.00     0.269 C 
ATOM     10  C   UNL     1      18.336  34.925  11.553  1.00  0.00     0.112 C 
ATOM     11  O   UNL     1      19.645  36.161   9.929  1.00  0.00    -0.332 OA
ATOM     12  C   UNL     1      17.419  34.392  10.507  1.00  0.00     0.145 C 
ATOM     13  C   UNL     1      18.025  34.650   9.128  1.00  0.00     0.142 C 
BRANCH   9  14
ATOM     14  O   UNL     1      20.397  34.162  10.733  1.00  0.00    -0.357 OA
ATOM     15  H   UNL     1      21.040  33.951  11.463  1.00  0.00     0.214 HD
ENDBRANCH   9  14
BRANCH   9  16
ATOM     16  C   UNL     1      20.392  36.039  12.111  1.00  0.00     0.364 C 
ATOM     17  O   UNL     1      20.076  37.223  12.382  1.00  0.00    -0.246 OA
BRANCH  16  18
ATOM     18  O   UNL     1      21.390  35.433  12.843  1.00  0.00    -0.477 OA
ATOM     19  H   UNL     1      21.665  35.827  13.753  1.00  0.00     0.296 HD
ENDBRANCH  16  18
ENDBRANCH   9  16
BRANCH  12  20
ATOM     20  O   UNL     1      17.037  33.085  10.677  1.00  0.00    -0.391 OA
ATOM     21  H   UNL     1      16.048  33.002  10.688  1.00  0.00     0.211 HD
ENDBRANCH  12  20
BRANCH  13  22
ATOM     22  N   UNL     1      17.009  34.465   8.101  1.00  0.00    -0.348 N 
ATOM     23  C   UNL     1      16.929  33.212   7.449  1.00  0.00     0.217 C 
ATOM     24  H   UNL     1      16.376  35.247   7.876  1.00  0.00     0.163 HD
ATOM     25  C   UNL     1      15.917  32.968   6.398  1.00  0.00     0.114 C 
ATOM     26  O   UNL     1      17.719  32.284   7.751  1.00  0.00    -0.275 OA
ENDBRANCH  13  22
ENDBRANCH   7   8
BRANCH   7  27
ATOM     27  O   UNL     1      20.073  37.109   7.617  1.00  0.00    -0.388 OA
ATOM     28  H   UNL     1      20.420  37.584   8.426  1.00  0.00     0.211 HD
ENDBRANCH   7  27
ENDBRANCH   6   7
BRANCH   6  29
ATOM     29  O   UNL     1      18.178  38.277   6.151  1.00  0.00    -0.388 OA
ATOM     30  H   UNL     1      18.810  39.002   6.438  1.00  0.00     0.211 HD
ENDBRANCH   6  29
ENDBRANCH   5   6
ENDBRANCH   1   5
BRANCH   2  31
ATOM     31  O   UNL     1      20.435  41.456   8.890  1.00  0.00    -0.443 OA
BRANCH  31  32
ATOM     32  C   UNL     1      21.759  41.323   9.423  1.00  0.00     0.294 C 
BRANCH  32  33
ATOM     33  C   UNL     1      22.552  40.363   8.623  1.00  0.00     0.120 A 
ATOM     34  C   UNL     1      22.831  39.038   8.993  1.00  0.00     0.138 A 
ATOM     35  N   UNL     1      23.155  40.508   7.438  1.00  0.00    -0.132 NA
ATOM     36  N   UNL     1      23.566  38.445   8.052  1.00  0.00    -0.251 N 
ATOM     37  N   UNL     1      23.754  39.381   7.094  1.00  0.00    -0.067 NA
BRANCH  36  38
ATOM     38  C   UNL     1      24.104  37.122   7.909  1.00  0.00     0.162 C 
BRANCH  38  39
ATOM     39  C   UNL     1      24.469  36.409   9.167  1.00  0.00     0.132 C 
BRANCH  39  40
ATOM     40  C   UNL     1      23.394  35.521   9.611  1.00  0.00     0.309 C 
ATOM     41  O   UNL     1      23.329  34.942  10.709  1.00  0.00    -0.252 OA
BRANCH  40  42
ATOM     42  O   UNL     1      22.306  35.267   8.747  1.00  0.00    -0.481 OA
ATOM     43  H   UNL     1      22.026  34.297   8.584  1.00  0.00     0.296 HD
ENDBRANCH  40  42
ENDBRANCH  39  40
BRANCH  39  44
ATOM     44  C   UNL     1      25.799  35.685   9.044  1.00  0.00     0.065 C 
BRANCH  44  45
ATOM     45  C   UNL     1      26.557  35.718  10.316  1.00  0.00    -0.040 A 
ATOM     46  C   UNL     1      27.266  34.600  10.771  1.00  0.00     0.004 A 
ATOM     47  C   UNL     1      26.604  36.847  11.112  1.00  0.00     0.004 A 
ATOM     48  C   UNL     1      27.972  34.630  11.953  1.00  0.00     0.000 A 
ATOM     49  C   UNL     1      27.302  36.893  12.291  1.00  0.00     0.000 A 
ATOM     50  C   UNL     1      27.993  35.792  12.728  1.00  0.00     0.000 A 
ENDBRANCH  44  45
BRANCH  44  51
ATOM     51  C   UNL     1      26.657  36.200   7.971  1.00  0.00    -0.040 A 
ATOM     52  C   UNL     1      27.327  35.265   7.172  1.00  0.00     0.004 A 
ATOM     53  C   UNL     1      26.838  37.541   7.709  1.00  0.00     0.004 A 
ATOM     54  C   UNL     1      28.139  35.709   6.155  1.00  0.00     0.000 A 
ATOM     55  C   UNL     1      27.651  37.987   6.691  1.00  0.00     0.000 A 
ATOM     56  C   UNL     1      28.320  37.066   5.892  1.00  0.00     0.000 A 
ENDBRANCH  44  51
ENDBRANCH  39  44
ENDBRANCH  38  39
ENDBRANCH  36  38
ENDBRANCH  32  33
ENDBRANCH  31  32
ENDBRANCH   2  31
TORSDOF 21
BEGIN_RES LYS A 131
REMARK  4 active torsions:
REMARK  status: ('A' for Active; 'I' for Inactive)
REMARK    1  A    between atoms: CA   and  CB  
REMARK    2  A    between atoms: CB   and  CG  
REMARK    3  A    between atoms: CG   and  CD  
REMARK    4  A    between atoms: CD   and  CE  
ROOT
ATOM      1  CA  LYS A 131      29.867  25.555  16.977  1.00 20.52     0.186 C 
ENDROOT
BRANCH   1   2
ATOM      2  CB  LYS A 131      28.345  25.722  17.026  1.00 20.94     0.034 C 
BRANCH   2   3
ATOM      3  CG  LYS A 131      27.600  24.418  16.787  1.00 22.96     0.005 C 
BRANCH   3   4
ATOM      4  CD  LYS A 131      26.663  24.086  17.916  1.00 24.33     0.041 C 
BRANCH   4   5
ATOM      5  CE  LYS A 131      26.341  25.355  18.700  1.00 26.91     0.338 C 
ATOM      6  NZ  LYS A 131      24.959  25.805  18.414  1.00 27.40     0.618 N 
ENDBRANCH   4   5
ENDBRANCH   3   4
ENDBRANCH   2   3
ENDBRANCH   1   2
END_RES LYS A 131
BEGIN_RES LYS A 135
REMARK  4 active torsions:
REMARK  status: ('A' for Active; 'I' for Inactive)
REMARK    5  A    between atoms: CA   and  CB  
REMARK    6  A    between atoms: CB   and  CG  
REMARK    7  A    between atoms: CG   and  CD  
REMARK    8  A    between atoms: CD   and  CE  
ROOT
ATOM      7  CA  LYS A 135      33.193  34.663   9.290  1.00 25.02     0.186 C 
ENDROOT
BRANCH   7   8
ATOM      8  CB  LYS A 135      32.060  35.360  10.034  1.00 26.63     0.034 C 
BRANCH   8   9
ATOM      9  CG  LYS A 135      30.760  35.378   9.272  1.00 29.45     0.005 C 
BRANCH   9  10
ATOM     10  CD  LYS A 135      30.044  36.706   9.463  1.00 32.00     0.041 C 
BRANCH  10  11
ATOM     11  CE  LYS A 135      30.799  37.823   8.768  1.00 34.25     0.338 C 
ATOM     12  NZ  LYS A 135      31.350  38.794   9.754  1.00 35.99     0.618 N 
ENDBRANCH  10  11
ENDBRANCH   9  10
ENDBRANCH   8   9
ENDBRANCH   7   8
END_RES LYS A 135
