REMARK VINA RESULT:    -5.285      3.106      6.610
REMARK INTER + INTRA:         -17.638
REMARK INTER:                  -9.999
REMARK INTRA:                  -7.639
REMARK UNBOUND:                -7.717
REMARK SMILES CC(=O)N[C@@H]1[C@@H](O)C[C@](O)(C(=O)O)O[C@H]1C(O)[C@H](O)CNC(=O)OCc1cn(-c2ccc(-c3c4ccc(=O)cc-4oc4cc(O)ccc34)c(C(=O)[O-])c2)nn1
REMARK SMILES IDX 21 1 22 2 23 3 20 5 18 6 16 7 15 8 9 9 8 10 14 11 6 12 5 13
REMARK SMILES IDX 10 14 11 16 12 17 13 18 7 20 4 22 2 23 1 25 3 26 17 27 19 29
REMARK SMILES IDX 24 31 25 32 26 33 27 34 55 35 28 36 54 37 29 38 53 39 30 40
REMARK SMILES IDX 49 41 31 42 32 43 50 44 51 45 52 46 33 47 48 48 34 49 47 50
REMARK SMILES IDX 42 51 40 52 35 53 46 54 43 55 41 56 39 57 36 58 44 59 37 60
REMARK SMILES IDX 38 61 45 62
REMARK H PARENT 21 4 10 15 13 19 7 21 4 24 17 28 19 30 45 63
REMARK Flexibility Score: inf
ROOT
ATOM      1  N   UNL     1      28.696  30.761  15.988  1.00  0.00    -0.319 N 
ATOM      2  C   UNL     1      29.958  31.142  16.560  1.00  0.00     0.407 C 
ATOM      3  O   UNL     1      30.074  31.023  17.811  1.00  0.00    -0.225 OA
ATOM      4  H   UNL     1      28.545  30.838  14.966  1.00  0.00     0.167 HD
ENDROOT
BRANCH   1   5
ATOM      5  C   UNL     1      27.620  30.270  16.815  1.00  0.00     0.154 C 
BRANCH   5   6
ATOM      6  C   UNL     1      26.318  30.532  16.133  1.00  0.00     0.165 C 
BRANCH   6   7
ATOM      7  C   UNL     1      25.949  32.015  16.156  1.00  0.00     0.176 C 
BRANCH   7   8
ATOM      8  C   UNL     1      24.470  32.197  15.854  1.00  0.00     0.178 C 
ATOM      9  C   UNL     1      23.712  31.764  13.695  1.00  0.00     0.269 C 
ATOM     10  C   UNL     1      22.508  32.663  13.872  1.00  0.00     0.112 C 
ATOM     11  O   UNL     1      24.117  31.275  14.911  1.00  0.00    -0.332 OA
ATOM     12  C   UNL     1      22.800  33.758  14.832  1.00  0.00     0.145 C 
ATOM     13  C   UNL     1      24.124  33.611  15.539  1.00  0.00     0.142 C 
BRANCH   9  14
ATOM     14  O   UNL     1      24.669  32.475  13.017  1.00  0.00    -0.357 OA
ATOM     15  H   UNL     1      25.572  32.381  13.369  1.00  0.00     0.214 HD
ENDBRANCH   9  14
BRANCH   9  16
ATOM     16  C   UNL     1      23.271  30.614  12.869  1.00  0.00     0.364 C 
ATOM     17  O   UNL     1      24.062  29.666  12.640  1.00  0.00    -0.246 OA
BRANCH  16  18
ATOM     18  O   UNL     1      22.002  30.521  12.320  1.00  0.00    -0.477 OA
ATOM     19  H   UNL     1      21.764  30.986  11.430  1.00  0.00     0.296 HD
ENDBRANCH  16  18
ENDBRANCH   9  16
BRANCH  12  20
ATOM     20  O   UNL     1      22.778  35.009  14.220  1.00  0.00    -0.391 OA
ATOM     21  H   UNL     1      22.100  35.090  13.513  1.00  0.00     0.211 HD
ENDBRANCH  12  20
BRANCH  13  22
ATOM     22  N   UNL     1      24.004  34.391  16.780  1.00  0.00    -0.348 N 
ATOM     23  C   UNL     1      24.537  35.682  16.942  1.00  0.00     0.217 C 
ATOM     24  H   UNL     1      23.489  33.940  17.571  1.00  0.00     0.163 HD
ATOM     25  C   UNL     1      24.374  36.403  18.224  1.00  0.00     0.114 C 
ATOM     26  O   UNL     1      25.152  36.177  15.941  1.00  0.00    -0.275 OA
ENDBRANCH  13  22
ENDBRANCH   7   8
BRANCH   7  27
ATOM     27  O   UNL     1      26.739  32.618  15.170  1.00  0.00    -0.388 OA
ATOM     28  H   UNL     1      26.168  32.690  14.359  1.00  0.00     0.211 HD
ENDBRANCH   7  27
ENDBRANCH   6   7
BRANCH   6  29
ATOM     29  O   UNL     1      25.287  29.759  16.663  1.00  0.00    -0.388 OA
ATOM     30  H   UNL     1      25.356  28.810  16.404  1.00  0.00     0.211 HD
ENDBRANCH   6  29
ENDBRANCH   5   6
ENDBRANCH   1   5
BRANCH   2  31
ATOM     31  O   UNL     1      31.003  31.609  15.821  1.00  0.00    -0.443 OA
BRANCH  31  32
ATOM     32  C   UNL     1      31.532  32.899  16.021  1.00  0.00     0.294 C 
BRANCH  32  33
ATOM     33  C   UNL     1      30.498  33.897  15.685  1.00  0.00     0.121 A 
ATOM     34  C   UNL     1      29.919  34.119  14.433  1.00  0.00     0.144 A 
ATOM     35  N   UNL     1      29.919  34.786  16.503  1.00  0.00    -0.131 NA
ATOM     36  N   UNL     1      29.025  35.119  14.542  1.00  0.00    -0.220 N 
ATOM     37  N   UNL     1      29.048  35.499  15.801  1.00  0.00    -0.062 NA
BRANCH  36  38
ATOM     38  C   UNL     1      28.254  35.608  13.455  1.00  0.00     0.067 A 
ATOM     39  C   UNL     1      27.556  36.778  13.456  1.00  0.00     0.039 A 
ATOM     40  C   UNL     1      28.202  34.832  12.294  1.00  0.00     0.029 A 
ATOM     41  C   UNL     1      26.811  37.217  12.366  1.00  0.00     0.007 A 
ATOM     42  C   UNL     1      27.477  35.242  11.209  1.00  0.00     0.012 A 
ATOM     43  C   UNL     1      26.775  36.446  11.246  1.00  0.00    -0.008 A 
BRANCH  41  44
ATOM     44  C   UNL     1      26.075  38.479  12.404  1.00  0.00     0.072 C 
ATOM     45  O   UNL     1      26.639  39.578  12.105  1.00  0.00    -0.545 OA
ATOM     46  O   UNL     1      24.755  38.501  12.764  1.00  0.00    -0.545 OA
ENDBRANCH  41  44
BRANCH  43  47
ATOM     47  C   UNL     1      26.034  36.793  10.043  1.00  0.00     0.004 A 
ATOM     48  C   UNL     1      24.739  36.399   9.785  1.00  0.00     0.026 A 
ATOM     49  C   UNL     1      26.663  37.573   9.087  1.00  0.00     0.026 A 
ATOM     50  C   UNL     1      24.079  35.620  10.715  1.00  0.00     0.016 A 
ATOM     51  C   UNL     1      24.083  36.766   8.616  1.00  0.00     0.139 A 
ATOM     52  C   UNL     1      25.934  37.930   7.879  1.00  0.00     0.139 A 
ATOM     53  C   UNL     1      27.956  38.018   9.246  1.00  0.00     0.016 A 
ATOM     54  C   UNL     1      22.774  35.200  10.501  1.00  0.00     0.047 A 
ATOM     55  C   UNL     1      22.790  36.365   8.375  1.00  0.00     0.093 A 
ATOM     56  O   UNL     1      24.684  37.504   7.714  1.00  0.00    -0.456 OA
ATOM     57  C   UNL     1      26.544  38.699   6.932  1.00  0.00     0.099 A 
ATOM     58  C   UNL     1      28.523  38.785   8.268  1.00  0.00     0.053 A 
ATOM     59  C   UNL     1      22.149  35.580   9.331  1.00  0.00     0.119 A 
ATOM     60  C   UNL     1      27.839  39.134   7.113  1.00  0.00     0.182 A 
ATOM     61  O   UNL     1      28.406  39.844   6.241  1.00  0.00    -0.290 OA
BRANCH  59  62
ATOM     62  O   UNL     1      20.847  35.163   9.108  1.00  0.00    -0.508 OA
ATOM     63  H   UNL     1      20.175  35.678   8.571  1.00  0.00     0.293 HD
ENDBRANCH  59  62
ENDBRANCH  43  47
ENDBRANCH  36  38
ENDBRANCH  32  33
ENDBRANCH  31  32
ENDBRANCH   2  31
TORSDOF 18
BEGIN_RES LYS A 131
REMARK  4 active torsions:
REMARK  status: ('A' for Active; 'I' for Inactive)
REMARK    1  A    between atoms: CA   and  CB  
REMARK    2  A    between atoms: CB   and  CG  
REMARK    3  A    between atoms: CG   and  CD  
REMARK    4  A    between atoms: CD   and  CE  
ROOT
ATOM      1  CA  LYS A 131      29.867  25.555  16.977  1.00 20.52     0.186 C 
ENDROOT
BRANCH   1   2
ATOM      2  CB  LYS A 131      28.345  25.722  17.026  1.00 20.94     0.034 C 
BRANCH   2   3
ATOM      3  CG  LYS A 131      27.602  24.398  16.932  1.00 22.96     0.005 C 
BRANCH   3   4
ATOM      4  CD  LYS A 131      26.624  24.216  18.060  1.00 24.33     0.041 C 
BRANCH   4   5
ATOM      5  CE  LYS A 131      25.204  24.191  17.504  1.00 26.91     0.338 C 
ATOM      6  NZ  LYS A 131      24.733  22.795  17.347  1.00 27.40     0.618 N 
ENDBRANCH   4   5
ENDBRANCH   3   4
ENDBRANCH   2   3
ENDBRANCH   1   2
END_RES LYS A 131
BEGIN_RES LYS A 135
REMARK  4 active torsions:
REMARK  status: ('A' for Active; 'I' for Inactive)
REMARK    5  A    between atoms: CA   and  CB  
REMARK    6  A    between atoms: CB   and  CG  
REMARK    7  A    between atoms: CG   and  CD  
REMARK    8  A    between atoms: CD   and  CE  
ROOT
ATOM      7  CA  LYS A 135      33.193  34.663   9.290  1.00 25.02     0.186 C 
ENDROOT
BRANCH   7   8
ATOM      8  CB  LYS A 135      32.060  35.360  10.034  1.00 26.63     0.034 C 
BRANCH   8   9
ATOM      9  CG  LYS A 135      30.694  34.823   9.691  1.00 29.45     0.005 C 
BRANCH   9  10
ATOM     10  CD  LYS A 135      30.429  34.946   8.199  1.00 32.00     0.041 C 
BRANCH  10  11
ATOM     11  CE  LYS A 135      28.945  34.822   7.910  1.00 34.25     0.338 C 
ATOM     12  NZ  LYS A 135      28.586  35.510   6.639  1.00 35.99     0.618 N 
ENDBRANCH  10  11
ENDBRANCH   9  10
ENDBRANCH   8   9
ENDBRANCH   7   8
END_RES LYS A 135
