REMARK VINA RESULT:    -4.255      3.084      8.908
REMARK INTER + INTRA:         -14.154
REMARK INTER:                  -8.410
REMARK INTRA:                  -5.744
REMARK UNBOUND:                -6.292
REMARK SMILES CC(=O)N[C@@H]1[C@@H](O)C[C@](O)(C(=O)O)O[C@H]1C(O)[C@H](O)CNC(=O)OCc1cn(CCC2OCCO2)nn1
REMARK SMILES IDX 21 1 22 2 23 3 20 5 18 6 16 7 15 8 9 9 8 10 14 11 6 12 5 13
REMARK SMILES IDX 10 14 11 16 12 17 13 18 7 20 4 22 2 23 1 25 3 26 17 27 19 29
REMARK SMILES IDX 24 31 25 32 26 33 27 34 37 35 28 36 36 37 29 38 30 39 31 40
REMARK SMILES IDX 32 41 35 42 33 43 34 44
REMARK H PARENT 21 4 10 15 13 19 7 21 4 24 17 28 19 30
REMARK Flexibility Score: inf
ROOT
ATOM      1  N   UNL     1      28.908  31.293  17.181  1.00  0.00    -0.319 N 
ATOM      2  C   UNL     1      28.175  30.385  17.982  1.00  0.00     0.407 C 
ATOM      3  O   UNL     1      27.302  29.633  17.430  1.00  0.00    -0.225 OA
ATOM      4  H   UNL     1      29.617  31.905  17.619  1.00  0.00     0.167 HD
ENDROOT
BRANCH   1   5
ATOM      5  C   UNL     1      28.663  31.354  15.779  1.00  0.00     0.154 C 
BRANCH   5   6
ATOM      6  C   UNL     1      28.956  32.698  15.171  1.00  0.00     0.165 C 
BRANCH   6   7
ATOM      7  C   UNL     1      30.317  32.777  14.547  1.00  0.00     0.176 C 
BRANCH   7   8
ATOM      8  C   UNL     1      30.873  34.179  14.663  1.00  0.00     0.178 C 
ATOM      9  C   UNL     1      31.830  35.833  13.337  1.00  0.00     0.269 C 
ATOM     10  C   UNL     1      32.798  36.113  14.450  1.00  0.00     0.112 C 
ATOM     11  O   UNL     1      31.209  34.614  13.408  1.00  0.00    -0.332 OA
ATOM     12  C   UNL     1      33.267  34.779  14.994  1.00  0.00     0.145 C 
ATOM     13  C   UNL     1      32.052  34.110  15.623  1.00  0.00     0.142 C 
BRANCH   9  14
ATOM     14  O   UNL     1      32.574  35.837  12.134  1.00  0.00    -0.357 OA
ATOM     15  H   UNL     1      32.851  36.739  11.881  1.00  0.00     0.214 HD
ENDBRANCH   9  14
BRANCH   9  16
ATOM     16  C   UNL     1      30.863  36.967  13.199  1.00  0.00     0.364 C 
ATOM     17  O   UNL     1      31.000  38.075  13.763  1.00  0.00    -0.246 OA
BRANCH  16  18
ATOM     18  O   UNL     1      29.754  36.756  12.392  1.00  0.00    -0.477 OA
ATOM     19  H   UNL     1      29.737  36.114  11.606  1.00  0.00     0.296 HD
ENDBRANCH  16  18
ENDBRANCH   9  16
BRANCH  12  20
ATOM     20  O   UNL     1      33.696  33.991  13.915  1.00  0.00    -0.391 OA
ATOM     21  H   UNL     1      32.979  33.404  13.576  1.00  0.00     0.211 HD
ENDBRANCH  12  20
BRANCH  13  22
ATOM     22  N   UNL     1      31.759  34.790  16.875  1.00  0.00    -0.348 N 
ATOM     23  C   UNL     1      31.351  34.025  17.997  1.00  0.00     0.217 C 
ATOM     24  H   UNL     1      31.848  35.843  16.956  1.00  0.00     0.163 HD
ATOM     25  C   UNL     1      31.029  34.625  19.316  1.00  0.00     0.114 C 
ATOM     26  O   UNL     1      31.260  32.771  17.856  1.00  0.00    -0.275 OA
ENDBRANCH  13  22
ENDBRANCH   7   8
BRANCH   7  27
ATOM     27  O   UNL     1      31.174  31.816  15.082  1.00  0.00    -0.388 OA
ATOM     28  H   UNL     1      30.792  30.913  15.105  1.00  0.00     0.211 HD
ENDBRANCH   7  27
ENDBRANCH   6   7
BRANCH   6  29
ATOM     29  O   UNL     1      28.835  33.673  16.150  1.00  0.00    -0.388 OA
ATOM     30  H   UNL     1      28.261  34.420  15.897  1.00  0.00     0.211 HD
ENDBRANCH   6  29
ENDBRANCH   5   6
ENDBRANCH   1   5
BRANCH   2  31
ATOM     31  O   UNL     1      28.328  30.244  19.332  1.00  0.00    -0.443 OA
BRANCH  31  32
ATOM     32  C   UNL     1      28.915  31.187  20.208  1.00  0.00     0.294 C 
BRANCH  32  33
ATOM     33  C   UNL     1      30.273  30.784  20.643  1.00  0.00     0.120 A 
ATOM     34  C   UNL     1      31.077  31.446  21.542  1.00  0.00     0.138 A 
ATOM     35  N   UNL     1      30.972  29.710  20.244  1.00  0.00    -0.132 NA
ATOM     36  N   UNL     1      32.233  30.759  21.662  1.00  0.00    -0.252 N 
ATOM     37  N   UNL     1      32.142  29.711  20.865  1.00  0.00    -0.067 NA
BRANCH  36  38
ATOM     38  C   UNL     1      33.389  31.062  22.497  1.00  0.00     0.151 C 
BRANCH  38  39
ATOM     39  C   UNL     1      34.560  30.181  22.122  1.00  0.00     0.086 C 
BRANCH  39  40
ATOM     40  C   UNL     1      34.870  29.200  23.201  1.00  0.00     0.251 C 
ATOM     41  O   UNL     1      36.146  28.658  23.129  1.00  0.00    -0.350 OA
ATOM     42  O   UNL     1      33.987  28.132  23.272  1.00  0.00    -0.350 OA
ATOM     43  C   UNL     1      36.100  27.454  23.827  1.00  0.00     0.192 C 
ATOM     44  C   UNL     1      34.650  27.071  23.841  1.00  0.00     0.192 C 
ENDBRANCH  39  40
ENDBRANCH  38  39
ENDBRANCH  36  38
ENDBRANCH  32  33
ENDBRANCH  31  32
ENDBRANCH   2  31
TORSDOF 17
BEGIN_RES LYS A 131
REMARK  4 active torsions:
REMARK  status: ('A' for Active; 'I' for Inactive)
REMARK    1  A    between atoms: CA   and  CB  
REMARK    2  A    between atoms: CB   and  CG  
REMARK    3  A    between atoms: CG   and  CD  
REMARK    4  A    between atoms: CD   and  CE  
ROOT
ATOM      1  CA  LYS A 131      29.867  25.555  16.977  1.00 20.52     0.186 C 
ENDROOT
BRANCH   1   2
ATOM      2  CB  LYS A 131      28.345  25.722  17.026  1.00 20.94     0.034 C 
BRANCH   2   3
ATOM      3  CG  LYS A 131      27.601  24.401  16.898  1.00 22.96     0.005 C 
BRANCH   3   4
ATOM      4  CD  LYS A 131      26.641  24.180  18.033  1.00 24.33     0.041 C 
BRANCH   4   5
ATOM      5  CE  LYS A 131      25.880  25.471  18.315  1.00 26.91     0.338 C 
ATOM      6  NZ  LYS A 131      25.999  25.842  19.745  1.00 27.40     0.618 N 
ENDBRANCH   4   5
ENDBRANCH   3   4
ENDBRANCH   2   3
ENDBRANCH   1   2
END_RES LYS A 131
BEGIN_RES LYS A 135
REMARK  4 active torsions:
REMARK  status: ('A' for Active; 'I' for Inactive)
REMARK    5  A    between atoms: CA   and  CB  
REMARK    6  A    between atoms: CB   and  CG  
REMARK    7  A    between atoms: CG   and  CD  
REMARK    8  A    between atoms: CD   and  CE  
ROOT
ATOM      7  CA  LYS A 135      33.193  34.663   9.290  1.00 25.02     0.186 C 
ENDROOT
BRANCH   7   8
ATOM      8  CB  LYS A 135      32.060  35.360  10.034  1.00 26.63     0.034 C 
BRANCH   8   9
ATOM      9  CG  LYS A 135      30.799  35.497   9.220  1.00 29.45     0.005 C 
BRANCH   9  10
ATOM     10  CD  LYS A 135      30.098  34.154   9.086  1.00 32.00     0.041 C 
BRANCH  10  11
ATOM     11  CE  LYS A 135      28.643  34.349   8.706  1.00 34.25     0.338 C 
ATOM     12  NZ  LYS A 135      27.743  33.607   9.632  1.00 35.99     0.618 N 
ENDBRANCH  10  11
ENDBRANCH   9  10
ENDBRANCH   8   9
ENDBRANCH   7   8
END_RES LYS A 135
