REMARK VINA RESULT:    -5.180      4.472      8.132
REMARK INTER + INTRA:         -15.049
REMARK INTER:                 -11.042
REMARK INTRA:                  -4.006
REMARK UNBOUND:                -6.084
REMARK SMILES CC(=O)N[C@@H]1[C@@H](O)C[C@](O)(C(=O)O)O[C@H]1C(O)[C@H](O)CNC(=O)OCc1cn(-c2c3ccccc3nc3ccccc23)nn1
REMARK SMILES IDX 20 1 18 2 16 3 15 4 9 5 8 6 14 7 6 8 5 9 10 10 11 12 12 13
REMARK SMILES IDX 13 14 7 16 4 18 2 19 1 21 3 22 17 23 19 25 21 27 22 28 23 30
REMARK SMILES IDX 24 31 25 32 26 33 27 34 44 35 28 36 43 37 29 38 30 39 42 40
REMARK SMILES IDX 31 41 35 42 37 43 41 44 32 45 34 46 36 47 38 48 40 49 33 50
REMARK SMILES IDX 39 51
REMARK H PARENT 10 11 13 15 7 17 4 20 17 24 19 26 21 29
REMARK Flexibility Score: inf
ROOT
ATOM      1  C   UNL     1      33.021  39.763   7.718  1.00  0.00     0.154 C 
ENDROOT
BRANCH   1   2
ATOM      2  C   UNL     1      34.181  40.719   7.639  1.00  0.00     0.165 C 
BRANCH   2   3
ATOM      3  C   UNL     1      35.374  39.925   7.209  1.00  0.00     0.176 C 
BRANCH   3   4
ATOM      4  C   UNL     1      36.354  40.704   6.344  1.00  0.00     0.178 C 
ATOM      5  C   UNL     1      36.773  42.843   5.726  1.00  0.00     0.269 C 
ATOM      6  C   UNL     1      36.795  42.588   4.243  1.00  0.00     0.112 C 
ATOM      7  O   UNL     1      35.941  42.006   6.395  1.00  0.00    -0.332 OA
ATOM      8  C   UNL     1      36.250  41.239   3.875  1.00  0.00     0.145 C 
ATOM      9  C   UNL     1      36.392  40.209   4.945  1.00  0.00     0.142 C 
BRANCH   5  10
ATOM     10  O   UNL     1      36.226  44.152   5.936  1.00  0.00    -0.357 OA
ATOM     11  H   UNL     1      36.043  44.574   5.062  1.00  0.00     0.214 HD
ENDBRANCH   5  10
BRANCH   5  12
ATOM     12  C   UNL     1      38.156  42.946   6.253  1.00  0.00     0.364 C 
ATOM     13  O   UNL     1      38.403  43.433   7.388  1.00  0.00    -0.246 OA
BRANCH  12  14
ATOM     14  O   UNL     1      39.275  42.510   5.526  1.00  0.00    -0.477 OA
ATOM     15  H   UNL     1      39.194  42.379   4.529  1.00  0.00     0.296 HD
ENDBRANCH  12  14
ENDBRANCH   5  12
BRANCH   8  16
ATOM     16  O   UNL     1      34.913  41.388   3.494  1.00  0.00    -0.391 OA
ATOM     17  H   UNL     1      34.700  42.332   3.287  1.00  0.00     0.211 HD
ENDBRANCH   8  16
BRANCH   9  18
ATOM     18  N   UNL     1      37.563  39.377   4.643  1.00  0.00    -0.348 N 
ATOM     19  C   UNL     1      37.451  38.037   4.180  1.00  0.00     0.217 C 
ATOM     20  H   UNL     1      38.535  39.739   4.757  1.00  0.00     0.163 HD
ATOM     21  C   UNL     1      38.656  37.206   3.874  1.00  0.00     0.114 C 
ATOM     22  O   UNL     1      36.315  37.521   4.016  1.00  0.00    -0.275 OA
ENDBRANCH   9  18
ENDBRANCH   3   4
BRANCH   3  23
ATOM     23  O   UNL     1      34.950  38.821   6.487  1.00  0.00    -0.388 OA
ATOM     24  H   UNL     1      34.373  39.144   5.753  1.00  0.00     0.211 HD
ENDBRANCH   3  23
ENDBRANCH   2   3
BRANCH   2  25
ATOM     25  O   UNL     1      34.354  41.361   8.843  1.00  0.00    -0.388 OA
ATOM     26  H   UNL     1      35.045  42.077   8.709  1.00  0.00     0.211 HD
ENDBRANCH   2  25
ENDBRANCH   1   2
BRANCH   1  27
ATOM     27  N   UNL     1      31.848  40.130   7.002  1.00  0.00    -0.319 N 
ATOM     28  C   UNL     1      31.736  40.154   5.597  1.00  0.00     0.407 C 
ATOM     29  H   UNL     1      30.944  40.423   7.520  1.00  0.00     0.167 HD
ATOM     30  O   UNL     1      32.695  39.854   4.856  1.00  0.00    -0.225 OA
BRANCH  28  31
ATOM     31  O   UNL     1      30.541  40.514   4.953  1.00  0.00    -0.443 OA
BRANCH  31  32
ATOM     32  C   UNL     1      29.344  40.708   5.707  1.00  0.00     0.294 C 
BRANCH  32  33
ATOM     33  C   UNL     1      28.676  39.391   5.834  1.00  0.00     0.121 A 
ATOM     34  C   UNL     1      28.414  38.711   7.005  1.00  0.00     0.144 A 
ATOM     35  N   UNL     1      28.188  38.583   4.862  1.00  0.00    -0.131 NA
ATOM     36  N   UNL     1      27.795  37.551   6.731  1.00  0.00    -0.219 N 
ATOM     37  N   UNL     1      27.668  37.491   5.424  1.00  0.00    -0.062 NA
BRANCH  36  38
ATOM     38  C   UNL     1      27.356  36.571   7.648  1.00  0.00     0.085 A 
ATOM     39  C   UNL     1      28.254  35.628   8.157  1.00  0.00     0.027 A 
ATOM     40  C   UNL     1      26.041  36.505   8.079  1.00  0.00     0.027 A 
ATOM     41  C   UNL     1      29.576  35.641   7.768  1.00  0.00     0.012 A 
ATOM     42  C   UNL     1      27.861  34.677   9.045  1.00  0.00     0.073 A 
ATOM     43  C   UNL     1      25.665  35.533   8.979  1.00  0.00     0.073 A 
ATOM     44  C   UNL     1      25.160  37.429   7.576  1.00  0.00     0.012 A 
ATOM     45  C   UNL     1      30.500  34.734   8.240  1.00  0.00     0.001 A 
ATOM     46  C   UNL     1      28.783  33.755   9.531  1.00  0.00     0.029 A 
ATOM     47  N   UNL     1      26.573  34.646   9.440  1.00  0.00    -0.248 NA
ATOM     48  C   UNL     1      24.349  35.505   9.377  1.00  0.00     0.029 A 
ATOM     49  C   UNL     1      23.831  37.375   8.000  1.00  0.00     0.001 A 
ATOM     50  C   UNL     1      30.107  33.751   9.154  1.00  0.00     0.002 A 
ATOM     51  C   UNL     1      23.411  36.419   8.898  1.00  0.00     0.002 A 
ENDBRANCH  36  38
ENDBRANCH  32  33
ENDBRANCH  31  32
ENDBRANCH  28  31
ENDBRANCH   1  27
TORSDOF 15
BEGIN_RES LYS A 131
REMARK  4 active torsions:
REMARK  status: ('A' for Active; 'I' for Inactive)
REMARK    1  A    between atoms: CA   and  CB  
REMARK    2  A    between atoms: CB   and  CG  
REMARK    3  A    between atoms: CG   and  CD  
REMARK    4  A    between atoms: CD   and  CE  
ROOT
ATOM      1  CA  LYS A 131      29.867  25.555  16.977  1.00 20.52     0.186 C 
ENDROOT
BRANCH   1   2
ATOM      2  CB  LYS A 131      28.345  25.722  17.026  1.00 20.94     0.034 C 
BRANCH   2   3
ATOM      3  CG  LYS A 131      27.605  24.393  17.049  1.00 22.96     0.005 C 
BRANCH   3   4
ATOM      4  CD  LYS A 131      26.126  24.572  17.247  1.00 24.33     0.041 C 
BRANCH   4   5
ATOM      5  CE  LYS A 131      25.612  23.519  18.224  1.00 26.91     0.338 C 
ATOM      6  NZ  LYS A 131      25.099  22.337  17.490  1.00 27.40     0.618 N 
ENDBRANCH   4   5
ENDBRANCH   3   4
ENDBRANCH   2   3
ENDBRANCH   1   2
END_RES LYS A 131
BEGIN_RES LYS A 135
REMARK  4 active torsions:
REMARK  status: ('A' for Active; 'I' for Inactive)
REMARK    5  A    between atoms: CA   and  CB  
REMARK    6  A    between atoms: CB   and  CG  
REMARK    7  A    between atoms: CG   and  CD  
REMARK    8  A    between atoms: CD   and  CE  
ROOT
ATOM      7  CA  LYS A 135      33.193  34.663   9.290  1.00 25.02     0.186 C 
ENDROOT
BRANCH   7   8
ATOM      8  CB  LYS A 135      32.060  35.360  10.034  1.00 26.63     0.034 C 
BRANCH   8   9
ATOM      9  CG  LYS A 135      32.518  36.123  11.250  1.00 29.45     0.005 C 
BRANCH   9  10
ATOM     10  CD  LYS A 135      31.391  36.985  11.798  1.00 32.00     0.041 C 
BRANCH  10  11
ATOM     11  CE  LYS A 135      31.481  38.394  11.244  1.00 34.25     0.338 C 
ATOM     12  NZ  LYS A 135      30.540  38.584  10.106  1.00 35.99     0.618 N 
ENDBRANCH  10  11
ENDBRANCH   9  10
ENDBRANCH   8   9
ENDBRANCH   7   8
END_RES LYS A 135
