REMARK VINA RESULT:    -5.941      2.187      3.091
REMARK INTER + INTRA:         -16.467
REMARK INTER:                 -10.787
REMARK INTRA:                  -5.680
REMARK UNBOUND:                -5.490
REMARK SMILES CC(=O)N[C@@H]1[C@@H](O)C[C@](O)(C(=O)O)O[C@H]1C(O)[C@H](O)CNC(=O)OCc1cn(C(c2ccccc2)c2ccccc2)nn1
REMARK SMILES IDX 21 1 22 2 23 3 20 5 18 6 16 7 15 8 9 9 8 10 14 11 6 12 5 13
REMARK SMILES IDX 10 14 11 16 12 17 13 18 7 20 4 22 2 23 1 25 3 26 17 27 19 29
REMARK SMILES IDX 24 31 25 32 26 33 27 34 43 35 28 36 42 37 29 38 30 39 31 40
REMARK SMILES IDX 35 41 32 42 34 43 33 44 36 45 37 46 41 47 38 48 40 49 39 50
REMARK H PARENT 21 4 10 15 13 19 7 21 4 24 17 28 19 30
REMARK Flexibility Score: inf
ROOT
ATOM      1  N   UNL     1      31.824  35.410  14.898  1.00  0.00    -0.319 N 
ATOM      2  C   UNL     1      31.586  35.950  13.616  1.00  0.00     0.407 C 
ATOM      3  O   UNL     1      31.865  35.286  12.590  1.00  0.00    -0.225 OA
ATOM      4  H   UNL     1      31.584  35.988  15.729  1.00  0.00     0.167 HD
ENDROOT
BRANCH   1   5
ATOM      5  C   UNL     1      32.379  34.105  15.070  1.00  0.00     0.154 C 
BRANCH   5   6
ATOM      6  C   UNL     1      31.853  33.515  16.379  1.00  0.00     0.165 C 
BRANCH   6   7
ATOM      7  C   UNL     1      30.619  32.713  15.997  1.00  0.00     0.176 C 
BRANCH   7   8
ATOM      8  C   UNL     1      30.450  31.421  16.746  1.00  0.00     0.178 C 
ATOM      9  C   UNL     1      28.130  31.095  16.509  1.00  0.00     0.269 C 
ATOM     10  C   UNL     1      27.907  31.409  17.972  1.00  0.00     0.112 C 
ATOM     11  O   UNL     1      29.393  30.753  16.161  1.00  0.00    -0.332 OA
ATOM     12  C   UNL     1      28.996  32.253  18.562  1.00  0.00     0.145 C 
ATOM     13  C   UNL     1      30.304  31.612  18.204  1.00  0.00     0.142 C 
BRANCH   9  14
ATOM     14  O   UNL     1      27.781  32.259  15.821  1.00  0.00    -0.357 OA
ATOM     15  H   UNL     1      27.201  31.975  15.059  1.00  0.00     0.214 HD
ENDBRANCH   9  14
BRANCH   9  16
ATOM     16  C   UNL     1      27.133  30.042  16.096  1.00  0.00     0.364 C 
ATOM     17  O   UNL     1      26.117  30.329  15.456  1.00  0.00    -0.246 OA
BRANCH  16  18
ATOM     18  O   UNL     1      27.382  28.737  16.451  1.00  0.00    -0.477 OA
ATOM     19  H   UNL     1      26.858  27.986  15.989  1.00  0.00     0.296 HD
ENDBRANCH  16  18
ENDBRANCH   9  16
BRANCH  12  20
ATOM     20  O   UNL     1      28.846  33.534  18.114  1.00  0.00    -0.391 OA
ATOM     21  H   UNL     1      29.664  34.078  18.278  1.00  0.00     0.211 HD
ENDBRANCH  12  20
BRANCH  13  22
ATOM     22  N   UNL     1      30.354  30.319  18.916  1.00  0.00    -0.348 N 
ATOM     23  C   UNL     1      30.983  30.176  20.164  1.00  0.00     0.217 C 
ATOM     24  H   UNL     1      29.905  29.495  18.462  1.00  0.00     0.163 HD
ATOM     25  C   UNL     1      31.011  28.855  20.847  1.00  0.00     0.114 C 
ATOM     26  O   UNL     1      31.531  31.165  20.722  1.00  0.00    -0.275 OA
ENDBRANCH  13  22
ENDBRANCH   7   8
BRANCH   7  27
ATOM     27  O   UNL     1      30.834  32.378  14.609  1.00  0.00    -0.388 OA
ATOM     28  H   UNL     1      31.400  33.037  14.179  1.00  0.00     0.211 HD
ENDBRANCH   7  27
ENDBRANCH   6   7
BRANCH   6  29
ATOM     29  O   UNL     1      31.546  34.608  17.175  1.00  0.00    -0.388 OA
ATOM     30  H   UNL     1      30.801  35.139  16.834  1.00  0.00     0.211 HD
ENDBRANCH   6  29
ENDBRANCH   5   6
ENDBRANCH   1   5
BRANCH   2  31
ATOM     31  O   UNL     1      31.042  37.217  13.443  1.00  0.00    -0.443 OA
BRANCH  31  32
ATOM     32  C   UNL     1      29.975  37.614  14.261  1.00  0.00     0.294 C 
BRANCH  32  33
ATOM     33  C   UNL     1      28.846  36.666  14.076  1.00  0.00     0.120 A 
ATOM     34  C   UNL     1      27.861  36.770  13.090  1.00  0.00     0.139 A 
ATOM     35  N   UNL     1      28.515  35.557  14.760  1.00  0.00    -0.132 NA
ATOM     36  N   UNL     1      27.007  35.752  13.222  1.00  0.00    -0.240 N 
ATOM     37  N   UNL     1      27.415  35.031  14.233  1.00  0.00    -0.066 NA
BRANCH  36  38
ATOM     38  C   UNL     1      25.830  35.460  12.416  1.00  0.00     0.169 C 
BRANCH  38  39
ATOM     39  C   UNL     1      26.190  35.135  11.036  1.00  0.00    -0.019 A 
ATOM     40  C   UNL     1      27.193  34.209  10.727  1.00  0.00     0.006 A 
ATOM     41  C   UNL     1      25.518  35.733   9.988  1.00  0.00     0.006 A 
ATOM     42  C   UNL     1      27.499  33.909   9.417  1.00  0.00     0.000 A 
ATOM     43  C   UNL     1      25.843  35.415   8.685  1.00  0.00     0.000 A 
ATOM     44  C   UNL     1      26.830  34.505   8.367  1.00  0.00     0.000 A 
ENDBRANCH  38  39
BRANCH  38  45
ATOM     45  C   UNL     1      24.882  34.556  13.071  1.00  0.00    -0.019 A 
ATOM     46  C   UNL     1      24.926  33.173  12.820  1.00  0.00     0.006 A 
ATOM     47  C   UNL     1      23.941  35.041  13.947  1.00  0.00     0.006 A 
ATOM     48  C   UNL     1      24.046  32.322  13.437  1.00  0.00     0.000 A 
ATOM     49  C   UNL     1      23.047  34.163  14.570  1.00  0.00     0.000 A 
ATOM     50  C   UNL     1      23.104  32.813  14.313  1.00  0.00     0.000 A 
ENDBRANCH  38  45
ENDBRANCH  36  38
ENDBRANCH  32  33
ENDBRANCH  31  32
ENDBRANCH   2  31
TORSDOF 17
BEGIN_RES LYS A 131
REMARK  4 active torsions:
REMARK  status: ('A' for Active; 'I' for Inactive)
REMARK    1  A    between atoms: CA   and  CB  
REMARK    2  A    between atoms: CB   and  CG  
REMARK    3  A    between atoms: CG   and  CD  
REMARK    4  A    between atoms: CD   and  CE  
ROOT
ATOM      1  CA  LYS A 131      29.867  25.555  16.977  1.00 20.52     0.186 C 
ENDROOT
BRANCH   1   2
ATOM      2  CB  LYS A 131      28.345  25.722  17.026  1.00 20.94     0.034 C 
BRANCH   2   3
ATOM      3  CG  LYS A 131      27.601  24.401  16.904  1.00 22.96     0.005 C 
BRANCH   3   4
ATOM      4  CD  LYS A 131      26.152  24.529  17.283  1.00 24.33     0.041 C 
BRANCH   4   5
ATOM      5  CE  LYS A 131      26.043  24.867  18.767  1.00 26.91     0.338 C 
ATOM      6  NZ  LYS A 131      25.507  23.712  19.524  1.00 27.40     0.618 N 
ENDBRANCH   4   5
ENDBRANCH   3   4
ENDBRANCH   2   3
ENDBRANCH   1   2
END_RES LYS A 131
BEGIN_RES LYS A 135
REMARK  4 active torsions:
REMARK  status: ('A' for Active; 'I' for Inactive)
REMARK    5  A    between atoms: CA   and  CB  
REMARK    6  A    between atoms: CB   and  CG  
REMARK    7  A    between atoms: CG   and  CD  
REMARK    8  A    between atoms: CD   and  CE  
ROOT
ATOM      7  CA  LYS A 135      33.193  34.663   9.290  1.00 25.02     0.186 C 
ENDROOT
BRANCH   7   8
ATOM      8  CB  LYS A 135      32.060  35.360  10.034  1.00 26.63     0.034 C 
BRANCH   8   9
ATOM      9  CG  LYS A 135      30.748  35.334   9.294  1.00 29.45     0.005 C 
BRANCH   9  10
ATOM     10  CD  LYS A 135      30.226  36.746   9.077  1.00 32.00     0.041 C 
BRANCH  10  11
ATOM     11  CE  LYS A 135      31.067  37.748   9.844  1.00 34.25     0.338 C 
ATOM     12  NZ  LYS A 135      31.475  38.885   8.972  1.00 35.99     0.618 N 
ENDBRANCH  10  11
ENDBRANCH   9  10
ENDBRANCH   8   9
ENDBRANCH   7   8
END_RES LYS A 135
