REMARK VINA RESULT:    -4.739      6.205     12.770
REMARK INTER + INTRA:         -15.588
REMARK INTER:                 -10.313
REMARK INTRA:                  -5.276
REMARK UNBOUND:                -7.109
REMARK SMILES CC(=O)N[C@@H]1[C@@H](O)C[C@](O)(C(=O)O)O[C@H]1C(O)[C@H](O)CNC(=O)OCc1cn(-c2ncn3c2c(=O)n(C(C)C)c2ccccc23)nn1
REMARK SMILES IDX 21 1 22 2 23 3 20 5 18 6 16 7 15 8 9 9 8 10 14 11 6 12 5 13
REMARK SMILES IDX 10 14 11 16 12 17 13 18 7 20 4 22 2 23 1 25 3 26 17 27 19 29
REMARK SMILES IDX 24 31 25 32 26 33 27 34 47 35 28 36 46 37 29 38 30 39 33 40
REMARK SMILES IDX 31 41 32 42 34 43 45 44 36 45 35 46 44 47 40 48 43 49 41 50
REMARK SMILES IDX 42 51 37 52 38 53 39 54
REMARK H PARENT 21 4 10 15 13 19 7 21 4 24 17 28 19 30
REMARK Flexibility Score: inf
ROOT
ATOM      1  N   UNL     1      30.529  38.673   7.108  1.00  0.00    -0.319 N 
ATOM      2  C   UNL     1      31.404  39.565   7.728  1.00  0.00     0.407 C 
ATOM      3  O   UNL     1      31.795  40.615   7.216  1.00  0.00    -0.225 OA
ATOM      4  H   UNL     1      30.248  37.798   7.703  1.00  0.00     0.167 HD
ENDROOT
BRANCH   1   5
ATOM      5  C   UNL     1      29.982  38.788   5.811  1.00  0.00     0.154 C 
BRANCH   5   6
ATOM      6  C   UNL     1      28.858  37.909   5.485  1.00  0.00     0.165 C 
BRANCH   6   7
ATOM      7  C   UNL     1      27.458  38.241   5.799  1.00  0.00     0.176 C 
BRANCH   7   8
ATOM      8  C   UNL     1      27.456  38.693   7.290  1.00  0.00     0.178 C 
ATOM      9  C   UNL     1      25.755  37.416   8.286  1.00  0.00     0.269 C 
ATOM     10  C   UNL     1      25.043  38.665   8.686  1.00  0.00     0.112 C 
ATOM     11  O   UNL     1      27.069  37.650   8.044  1.00  0.00    -0.332 OA
ATOM     12  C   UNL     1      25.286  39.839   7.771  1.00  0.00     0.145 C 
ATOM     13  C   UNL     1      26.755  39.991   7.445  1.00  0.00     0.142 C 
BRANCH   9  14
ATOM     14  O   UNL     1      25.174  36.887   7.106  1.00  0.00    -0.357 OA
ATOM     15  H   UNL     1      25.782  36.149   6.831  1.00  0.00     0.214 HD
ENDBRANCH   9  14
BRANCH   9  16
ATOM     16  C   UNL     1      25.548  36.436   9.405  1.00  0.00     0.364 C 
ATOM     17  O   UNL     1      24.859  35.426   9.214  1.00  0.00    -0.246 OA
BRANCH  16  18
ATOM     18  O   UNL     1      26.124  36.664  10.632  1.00  0.00    -0.477 OA
ATOM     19  H   UNL     1      27.125  36.501  10.777  1.00  0.00     0.296 HD
ENDBRANCH  16  18
ENDBRANCH   9  16
BRANCH  12  20
ATOM     20  O   UNL     1      24.533  39.767   6.598  1.00  0.00    -0.391 OA
ATOM     21  H   UNL     1      23.690  39.285   6.779  1.00  0.00     0.211 HD
ENDBRANCH  12  20
BRANCH  13  22
ATOM     22  N   UNL     1      27.344  40.805   8.516  1.00  0.00    -0.348 N 
ATOM     23  C   UNL     1      28.346  41.767   8.275  1.00  0.00     0.217 C 
ATOM     24  H   UNL     1      27.025  40.688   9.519  1.00  0.00     0.163 HD
ATOM     25  C   UNL     1      28.939  42.588   9.362  1.00  0.00     0.114 C 
ATOM     26  O   UNL     1      28.772  41.955   7.096  1.00  0.00    -0.275 OA
ENDBRANCH  13  22
ENDBRANCH   7   8
BRANCH   7  27
ATOM     27  O   UNL     1      26.902  39.268   5.034  1.00  0.00    -0.388 OA
ATOM     28  H   UNL     1      27.340  40.147   5.261  1.00  0.00     0.211 HD
ENDBRANCH   7  27
ENDBRANCH   6   7
BRANCH   6  29
ATOM     29  O   UNL     1      29.178  36.634   6.089  1.00  0.00    -0.388 OA
ATOM     30  H   UNL     1      30.141  36.499   6.112  1.00  0.00     0.211 HD
ENDBRANCH   6  29
ENDBRANCH   5   6
ENDBRANCH   1   5
BRANCH   2  31
ATOM     31  O   UNL     1      31.908  39.301   9.022  1.00  0.00    -0.443 OA
BRANCH  31  32
ATOM     32  C   UNL     1      31.830  40.247  10.048  1.00  0.00     0.294 C 
BRANCH  32  33
ATOM     33  C   UNL     1      30.994  39.717  11.155  1.00  0.00     0.121 A 
ATOM     34  C   UNL     1      30.688  38.382  11.407  1.00  0.00     0.146 A 
ATOM     35  N   UNL     1      30.369  40.393  12.135  1.00  0.00    -0.131 NA
ATOM     36  N   UNL     1      29.899  38.287  12.514  1.00  0.00    -0.200 N 
ATOM     37  N   UNL     1      29.743  39.525  12.906  1.00  0.00    -0.060 NA
BRANCH  36  38
ATOM     38  C   UNL     1      29.419  37.051  13.035  1.00  0.00     0.186 A 
ATOM     39  N   UNL     1      28.125  36.614  12.981  1.00  0.00    -0.216 NA
ATOM     40  C   UNL     1      30.111  36.059  13.678  1.00  0.00     0.158 A 
ATOM     41  C   UNL     1      28.053  35.413  13.568  1.00  0.00     0.207 A 
ATOM     42  N   UNL     1      29.265  35.036  14.014  1.00  0.00    -0.291 N 
ATOM     43  C   UNL     1      31.420  35.926  14.020  1.00  0.00     0.279 A 
ATOM     44  C   UNL     1      29.694  33.934  14.656  1.00  0.00     0.071 A 
ATOM     45  N   UNL     1      31.887  34.855  14.655  1.00  0.00    -0.302 N 
ATOM     46  O   UNL     1      32.255  36.825  13.746  1.00  0.00    -0.267 OA
ATOM     47  C   UNL     1      28.812  32.923  14.978  1.00  0.00     0.029 A 
ATOM     48  C   UNL     1      31.034  33.858  14.975  1.00  0.00     0.068 A 
ATOM     49  C   UNL     1      29.225  31.777  15.639  1.00  0.00     0.002 A 
ATOM     50  C   UNL     1      31.422  32.702  15.637  1.00  0.00     0.028 A 
ATOM     51  C   UNL     1      30.550  31.683  15.965  1.00  0.00     0.002 A 
BRANCH  45  52
ATOM     52  C   UNL     1      33.264  34.650  15.044  1.00  0.00     0.085 C 
ATOM     53  C   UNL     1      33.641  35.791  15.965  1.00  0.00     0.031 C 
ATOM     54  C   UNL     1      34.238  34.640  13.910  1.00  0.00     0.031 C 
ENDBRANCH  45  52
ENDBRANCH  36  38
ENDBRANCH  32  33
ENDBRANCH  31  32
ENDBRANCH   2  31
TORSDOF 16
BEGIN_RES LYS A 131
REMARK  4 active torsions:
REMARK  status: ('A' for Active; 'I' for Inactive)
REMARK    1  A    between atoms: CA   and  CB  
REMARK    2  A    between atoms: CB   and  CG  
REMARK    3  A    between atoms: CG   and  CD  
REMARK    4  A    between atoms: CD   and  CE  
ROOT
ATOM      1  CA  LYS A 131      29.867  25.555  16.977  1.00 20.52     0.186 C 
ENDROOT
BRANCH   1   2
ATOM      2  CB  LYS A 131      28.345  25.722  17.026  1.00 20.94     0.034 C 
BRANCH   2   3
ATOM      3  CG  LYS A 131      27.601  24.404  16.875  1.00 22.96     0.005 C 
BRANCH   3   4
ATOM      4  CD  LYS A 131      26.147  24.530  17.237  1.00 24.33     0.041 C 
BRANCH   4   5
ATOM      5  CE  LYS A 131      25.626  23.183  17.729  1.00 26.91     0.338 C 
ATOM      6  NZ  LYS A 131      24.301  22.890  17.134  1.00 27.40     0.618 N 
ENDBRANCH   4   5
ENDBRANCH   3   4
ENDBRANCH   2   3
ENDBRANCH   1   2
END_RES LYS A 131
BEGIN_RES LYS A 135
REMARK  4 active torsions:
REMARK  status: ('A' for Active; 'I' for Inactive)
REMARK    5  A    between atoms: CA   and  CB  
REMARK    6  A    between atoms: CB   and  CG  
REMARK    7  A    between atoms: CG   and  CD  
REMARK    8  A    between atoms: CD   and  CE  
ROOT
ATOM      7  CA  LYS A 135      33.193  34.663   9.290  1.00 25.02     0.186 C 
ENDROOT
BRANCH   7   8
ATOM      8  CB  LYS A 135      32.060  35.360  10.034  1.00 26.63     0.034 C 
BRANCH   8   9
ATOM      9  CG  LYS A 135      30.811  35.529   9.208  1.00 29.45     0.005 C 
BRANCH   9  10
ATOM     10  CD  LYS A 135      30.123  34.190   8.994  1.00 32.00     0.041 C 
BRANCH  10  11
ATOM     11  CE  LYS A 135      28.645  34.389   8.718  1.00 34.25     0.338 C 
ATOM     12  NZ  LYS A 135      27.810  33.627   9.688  1.00 35.99     0.618 N 
ENDBRANCH  10  11
ENDBRANCH   9  10
ENDBRANCH   8   9
ENDBRANCH   7   8
END_RES LYS A 135
