REMARK VINA RESULT:    -4.206      2.993      6.593
REMARK INTER + INTRA:         -14.076
REMARK INTER:                  -9.201
REMARK INTRA:                  -4.876
REMARK UNBOUND:                -6.059
REMARK SMILES CC(=O)N[C@@H]1[C@@H](O)C[C@](O)(C(=O)O)O[C@H]1C(O)[C@H](O)CNC(=O)OCc1cn(CCOC(C)=O)nn1
REMARK SMILES IDX 21 1 22 2 23 3 20 5 18 6 16 7 15 8 9 9 8 10 14 11 6 12 5 13
REMARK SMILES IDX 10 14 11 16 12 17 13 18 7 20 4 22 2 23 1 25 3 26 17 27 19 29
REMARK SMILES IDX 24 31 25 32 26 33 27 34 36 35 28 36 35 37 29 38 30 39 31 40
REMARK SMILES IDX 32 41 34 42 33 43
REMARK H PARENT 21 4 10 15 13 19 7 21 4 24 17 28 19 30
REMARK Flexibility Score: inf
ROOT
ATOM      1  N   UNL     1      29.189  30.464  17.430  1.00  0.00    -0.319 N 
ATOM      2  C   UNL     1      28.437  29.990  16.331  1.00  0.00     0.407 C 
ATOM      3  O   UNL     1      28.838  30.163  15.171  1.00  0.00    -0.225 OA
ATOM      4  H   UNL     1      28.772  30.278  18.384  1.00  0.00     0.167 HD
ENDROOT
BRANCH   1   5
ATOM      5  C   UNL     1      30.453  31.162  17.329  1.00  0.00     0.154 C 
BRANCH   5   6
ATOM      6  C   UNL     1      30.271  32.593  16.993  1.00  0.00     0.165 C 
BRANCH   6   7
ATOM      7  C   UNL     1      30.977  33.083  15.748  1.00  0.00     0.176 C 
BRANCH   7   8
ATOM      8  C   UNL     1      30.082  33.670  14.699  1.00  0.00     0.178 C 
ATOM      9  C   UNL     1      31.742  35.121  13.958  1.00  0.00     0.269 C 
ATOM     10  C   UNL     1      31.353  36.092  15.004  1.00  0.00     0.112 C 
ATOM     11  O   UNL     1      30.808  34.176  13.623  1.00  0.00    -0.332 OA
ATOM     12  C   UNL     1      29.974  35.981  15.545  1.00  0.00     0.145 C 
ATOM     13  C   UNL     1      29.186  34.787  15.130  1.00  0.00     0.142 C 
BRANCH   9  14
ATOM     14  O   UNL     1      32.914  34.408  14.312  1.00  0.00    -0.357 OA
ATOM     15  H   UNL     1      32.785  33.435  14.221  1.00  0.00     0.214 HD
ENDBRANCH   9  14
BRANCH   9  16
ATOM     16  C   UNL     1      32.103  35.828  12.696  1.00  0.00     0.364 C 
ATOM     17  O   UNL     1      31.344  36.733  12.208  1.00  0.00    -0.246 OA
BRANCH  16  18
ATOM     18  O   UNL     1      33.256  35.570  11.971  1.00  0.00    -0.477 OA
ATOM     19  H   UNL     1      33.272  34.714  11.406  1.00  0.00     0.296 HD
ENDBRANCH  16  18
ENDBRANCH   9  16
BRANCH  12  20
ATOM     20  O   UNL     1      30.054  35.983  16.941  1.00  0.00    -0.391 OA
ATOM     21  H   UNL     1      30.932  35.595  17.247  1.00  0.00     0.211 HD
ENDBRANCH  12  20
BRANCH  13  22
ATOM     22  N   UNL     1      28.269  35.031  14.042  1.00  0.00    -0.348 N 
ATOM     23  C   UNL     1      27.002  34.444  13.960  1.00  0.00     0.217 C 
ATOM     24  H   UNL     1      28.589  35.675  13.294  1.00  0.00     0.163 HD
ATOM     25  C   UNL     1      26.039  34.678  12.854  1.00  0.00     0.114 C 
ATOM     26  O   UNL     1      26.671  33.676  14.883  1.00  0.00    -0.275 OA
ENDBRANCH  13  22
ENDBRANCH   7   8
BRANCH   7  27
ATOM     27  O   UNL     1      31.416  31.845  15.139  1.00  0.00    -0.388 OA
ATOM     28  H   UNL     1      30.729  31.192  15.474  1.00  0.00     0.211 HD
ENDBRANCH   7  27
ENDBRANCH   6   7
BRANCH   6  29
ATOM     29  O   UNL     1      30.265  33.500  18.010  1.00  0.00    -0.388 OA
ATOM     30  H   UNL     1      29.396  33.895  18.175  1.00  0.00     0.211 HD
ENDBRANCH   6  29
ENDBRANCH   5   6
ENDBRANCH   1   5
BRANCH   2  31
ATOM     31  O   UNL     1      27.216  29.311  16.544  1.00  0.00    -0.443 OA
BRANCH  31  32
ATOM     32  C   UNL     1      26.095  30.016  17.077  1.00  0.00     0.294 C 
BRANCH  32  33
ATOM     33  C   UNL     1      24.982  29.889  16.116  1.00  0.00     0.120 A 
ATOM     34  C   UNL     1      24.989  30.330  14.803  1.00  0.00     0.138 A 
ATOM     35  N   UNL     1      23.775  29.345  16.320  1.00  0.00    -0.132 NA
ATOM     36  N   UNL     1      23.794  30.036  14.270  1.00  0.00    -0.249 N 
ATOM     37  N   UNL     1      23.083  29.445  15.202  1.00  0.00    -0.067 NA
BRANCH  36  38
ATOM     38  C   UNL     1      23.403  30.333  12.910  1.00  0.00     0.187 C 
BRANCH  38  39
ATOM     39  C   UNL     1      22.519  29.214  12.413  1.00  0.00     0.256 C 
BRANCH  39  40
ATOM     40  O   UNL     1      21.274  29.727  12.035  1.00  0.00    -0.464 OA
BRANCH  40  41
ATOM     41  C   UNL     1      20.107  29.179  12.482  1.00  0.00     0.302 C 
ATOM     42  O   UNL     1      19.571  29.564  13.537  1.00  0.00    -0.253 OA
ATOM     43  C   UNL     1      19.432  28.085  11.701  1.00  0.00     0.139 C 
ENDBRANCH  40  41
ENDBRANCH  39  40
ENDBRANCH  38  39
ENDBRANCH  36  38
ENDBRANCH  32  33
ENDBRANCH  31  32
ENDBRANCH   2  31
TORSDOF 18
BEGIN_RES LYS A 131
REMARK  4 active torsions:
REMARK  status: ('A' for Active; 'I' for Inactive)
REMARK    1  A    between atoms: CA   and  CB  
REMARK    2  A    between atoms: CB   and  CG  
REMARK    3  A    between atoms: CG   and  CD  
REMARK    4  A    between atoms: CD   and  CE  
ROOT
ATOM      1  CA  LYS A 131      29.867  25.555  16.977  1.00 20.52     0.186 C 
ENDROOT
BRANCH   1   2
ATOM      2  CB  LYS A 131      28.345  25.722  17.026  1.00 20.94     0.034 C 
BRANCH   2   3
ATOM      3  CG  LYS A 131      27.602  24.398  16.931  1.00 22.96     0.005 C 
BRANCH   3   4
ATOM      4  CD  LYS A 131      26.149  24.537  17.291  1.00 24.33     0.041 C 
BRANCH   4   5
ATOM      5  CE  LYS A 131      26.012  25.434  18.518  1.00 26.91     0.338 C 
ATOM      6  NZ  LYS A 131      25.142  26.596  18.216  1.00 27.40     0.618 N 
ENDBRANCH   4   5
ENDBRANCH   3   4
ENDBRANCH   2   3
ENDBRANCH   1   2
END_RES LYS A 131
BEGIN_RES LYS A 135
REMARK  4 active torsions:
REMARK  status: ('A' for Active; 'I' for Inactive)
REMARK    5  A    between atoms: CA   and  CB  
REMARK    6  A    between atoms: CB   and  CG  
REMARK    7  A    between atoms: CG   and  CD  
REMARK    8  A    between atoms: CD   and  CE  
ROOT
ATOM      7  CA  LYS A 135      33.193  34.663   9.290  1.00 25.02     0.186 C 
ENDROOT
BRANCH   7   8
ATOM      8  CB  LYS A 135      32.060  35.360  10.034  1.00 26.63     0.034 C 
BRANCH   8   9
ATOM      9  CG  LYS A 135      30.788  35.464   9.233  1.00 29.45     0.005 C 
BRANCH   9  10
ATOM     10  CD  LYS A 135      29.977  34.182   9.345  1.00 32.00     0.041 C 
BRANCH  10  11
ATOM     11  CE  LYS A 135      28.755  34.399  10.217  1.00 34.25     0.338 C 
ATOM     12  NZ  LYS A 135      27.548  33.766   9.617  1.00 35.99     0.618 N 
ENDBRANCH  10  11
ENDBRANCH   9  10
ENDBRANCH   8   9
ENDBRANCH   7   8
END_RES LYS A 135
