REMARK VINA RESULT:    -5.681      2.130      4.132
REMARK INTER + INTRA:         -16.271
REMARK INTER:                 -10.047
REMARK INTRA:                  -6.225
REMARK UNBOUND:                -5.110
REMARK SMILES CC(=O)N[C@@H]1[C@@H](O)C[C@](O)(C(=O)O)O[C@H]1C(O)[C@H](O)CNC(=O)OCc1cn([C@@H](C)C(=O)OCc2ccccc2)nn1
REMARK SMILES IDX 24 1 22 2 21 3 23 5 20 6 18 7 16 8 15 9 9 10 8 11 14 12 6 13
REMARK SMILES IDX 5 14 10 15 11 17 12 18 13 19 7 21 4 23 2 24 1 26 3 27 17 28
REMARK SMILES IDX 19 30 25 32 26 33 27 34 42 35 28 36 41 37 29 38 30 39 31 40
REMARK SMILES IDX 32 41 33 42 34 43 35 44 36 45 40 46 37 47 39 48 38 49
REMARK H PARENT 21 4 10 16 13 20 7 22 4 25 17 29 19 31
REMARK Flexibility Score: inf
ROOT
ATOM      1  O   UNL     1      28.945  40.068   7.450  1.00  0.00    -0.443 OA
ENDROOT
BRANCH   1   2
ATOM      2  C   UNL     1      27.668  39.913   6.861  1.00  0.00     0.407 C 
ATOM      3  N   UNL     1      26.527  40.477   7.471  1.00  0.00    -0.319 N 
ATOM      4  H   UNL     1      26.708  40.995   8.388  1.00  0.00     0.167 HD
ATOM      5  O   UNL     1      27.641  39.263   5.800  1.00  0.00    -0.225 OA
BRANCH   3   6
ATOM      6  C   UNL     1      25.211  40.377   6.926  1.00  0.00     0.154 C 
BRANCH   6   7
ATOM      7  C   UNL     1      24.474  39.187   7.443  1.00  0.00     0.165 C 
BRANCH   7   8
ATOM      8  C   UNL     1      24.268  39.315   8.950  1.00  0.00     0.176 C 
BRANCH   8   9
ATOM      9  C   UNL     1      22.926  38.839   9.412  1.00  0.00     0.178 C 
ATOM     10  C   UNL     1      23.482  36.603   9.832  1.00  0.00     0.269 C 
ATOM     11  C   UNL     1      22.834  36.226   8.538  1.00  0.00     0.112 C 
ATOM     12  O   UNL     1      23.055  37.801  10.350  1.00  0.00    -0.332 OA
ATOM     13  C   UNL     1      21.552  37.018   8.381  1.00  0.00     0.145 C 
ATOM     14  C   UNL     1      21.953  38.485   8.336  1.00  0.00     0.142 C 
BRANCH  10  15
ATOM     15  O   UNL     1      24.852  36.566   9.710  1.00  0.00    -0.357 OA
ATOM     16  H   UNL     1      25.165  35.912   9.026  1.00  0.00     0.214 HD
ENDBRANCH  10  15
BRANCH  10  17
ATOM     17  C   UNL     1      23.104  35.564  10.858  1.00  0.00     0.364 C 
ATOM     18  O   UNL     1      21.983  34.995  10.813  1.00  0.00    -0.246 OA
BRANCH  17  19
ATOM     19  O   UNL     1      23.964  35.195  11.882  1.00  0.00    -0.477 OA
ATOM     20  H   UNL     1      24.961  34.995  11.708  1.00  0.00     0.296 HD
ENDBRANCH  17  19
ENDBRANCH  10  17
BRANCH  13  21
ATOM     21  O   UNL     1      20.872  36.632   7.244  1.00  0.00    -0.391 OA
ATOM     22  H   UNL     1      21.465  36.262   6.542  1.00  0.00     0.211 HD
ENDBRANCH  13  21
BRANCH  14  23
ATOM     23  N   UNL     1      20.743  39.312   8.367  1.00  0.00    -0.348 N 
ATOM     24  C   UNL     1      20.743  40.688   7.993  1.00  0.00     0.217 C 
ATOM     25  H   UNL     1      19.819  38.907   8.673  1.00  0.00     0.163 HD
ATOM     26  C   UNL     1      19.476  41.481   8.047  1.00  0.00     0.114 C 
ATOM     27  O   UNL     1      21.810  41.228   7.620  1.00  0.00    -0.275 OA
ENDBRANCH  14  23
ENDBRANCH   8   9
BRANCH   8  28
ATOM     28  O   UNL     1      24.405  40.662   9.309  1.00  0.00    -0.388 OA
ATOM     29  H   UNL     1      24.427  40.731  10.302  1.00  0.00     0.211 HD
ENDBRANCH   8  28
ENDBRANCH   7   8
BRANCH   7  30
ATOM     30  O   UNL     1      25.199  38.028   7.169  1.00  0.00    -0.388 OA
ATOM     31  H   UNL     1      26.127  38.063   7.545  1.00  0.00     0.211 HD
ENDBRANCH   7  30
ENDBRANCH   6   7
ENDBRANCH   3   6
ENDBRANCH   1   2
BRANCH   1  32
ATOM     32  C   UNL     1      29.597  38.924   7.961  1.00  0.00     0.294 C 
BRANCH  32  33
ATOM     33  C   UNL     1      28.878  38.342   9.110  1.00  0.00     0.120 A 
ATOM     34  C   UNL     1      29.383  37.655  10.189  1.00  0.00     0.139 A 
ATOM     35  N   UNL     1      27.549  38.390   9.304  1.00  0.00    -0.132 NA
ATOM     36  N   UNL     1      28.362  37.303  11.005  1.00  0.00    -0.238 N 
ATOM     37  N   UNL     1      27.273  37.758  10.449  1.00  0.00    -0.066 NA
BRANCH  36  38
ATOM     38  C   UNL     1      28.486  36.573  12.238  1.00  0.00     0.215 C 
ATOM     39  C   UNL     1      28.011  37.421  13.397  1.00  0.00     0.046 C 
BRANCH  38  40
ATOM     40  C   UNL     1      27.759  35.301  12.128  1.00  0.00     0.331 C 
ATOM     41  O   UNL     1      26.778  35.074  12.897  1.00  0.00    -0.250 OA
BRANCH  40  42
ATOM     42  O   UNL     1      28.098  34.326  11.213  1.00  0.00    -0.459 OA
BRANCH  42  43
ATOM     43  C   UNL     1      27.348  33.922  10.111  1.00  0.00     0.268 C 
BRANCH  43  44
ATOM     44  C   UNL     1      27.967  34.469   8.872  1.00  0.00    -0.011 A 
ATOM     45  C   UNL     1      29.330  34.394   8.683  1.00  0.00     0.007 A 
ATOM     46  C   UNL     1      27.182  35.046   7.911  1.00  0.00     0.007 A 
ATOM     47  C   UNL     1      29.904  34.894   7.540  1.00  0.00     0.000 A 
ATOM     48  C   UNL     1      27.727  35.552   6.764  1.00  0.00     0.000 A 
ATOM     49  C   UNL     1      29.087  35.476   6.581  1.00  0.00     0.000 A 
ENDBRANCH  43  44
ENDBRANCH  42  43
ENDBRANCH  40  42
ENDBRANCH  38  40
ENDBRANCH  36  38
ENDBRANCH  32  33
ENDBRANCH   1  32
TORSDOF 19
BEGIN_RES LYS A 131
REMARK  4 active torsions:
REMARK  status: ('A' for Active; 'I' for Inactive)
REMARK    1  A    between atoms: CA   and  CB  
REMARK    2  A    between atoms: CB   and  CG  
REMARK    3  A    between atoms: CG   and  CD  
REMARK    4  A    between atoms: CD   and  CE  
ROOT
ATOM      1  CA  LYS A 131      29.867  25.555  16.977  1.00 20.52     0.186 C 
ENDROOT
BRANCH   1   2
ATOM      2  CB  LYS A 131      28.345  25.722  17.026  1.00 20.94     0.034 C 
BRANCH   2   3
ATOM      3  CG  LYS A 131      27.602  24.400  16.911  1.00 22.96     0.005 C 
BRANCH   3   4
ATOM      4  CD  LYS A 131      26.531  24.259  17.958  1.00 24.33     0.041 C 
BRANCH   4   5
ATOM      5  CE  LYS A 131      25.159  24.354  17.298  1.00 26.91     0.338 C 
ATOM      6  NZ  LYS A 131      24.510  25.643  17.634  1.00 27.40     0.618 N 
ENDBRANCH   4   5
ENDBRANCH   3   4
ENDBRANCH   2   3
ENDBRANCH   1   2
END_RES LYS A 131
BEGIN_RES LYS A 135
REMARK  4 active torsions:
REMARK  status: ('A' for Active; 'I' for Inactive)
REMARK    5  A    between atoms: CA   and  CB  
REMARK    6  A    between atoms: CB   and  CG  
REMARK    7  A    between atoms: CG   and  CD  
REMARK    8  A    between atoms: CD   and  CE  
ROOT
ATOM      7  CA  LYS A 135      33.193  34.663   9.290  1.00 25.02     0.186 C 
ENDROOT
BRANCH   7   8
ATOM      8  CB  LYS A 135      32.060  35.360  10.034  1.00 26.63     0.034 C 
BRANCH   8   9
ATOM      9  CG  LYS A 135      32.514  36.100  11.266  1.00 29.45     0.005 C 
BRANCH   9  10
ATOM     10  CD  LYS A 135      31.930  35.466  12.519  1.00 32.00     0.041 C 
BRANCH  10  11
ATOM     11  CE  LYS A 135      33.013  35.240  13.556  1.00 34.25     0.338 C 
ATOM     12  NZ  LYS A 135      32.489  34.476  14.722  1.00 35.99     0.618 N 
ENDBRANCH  10  11
ENDBRANCH   9  10
ENDBRANCH   8   9
ENDBRANCH   7   8
END_RES LYS A 135
