REMARK VINA RESULT:    -4.900      5.486     10.234
REMARK INTER + INTRA:         -14.874
REMARK INTER:                  -9.623
REMARK INTRA:                  -5.251
REMARK UNBOUND:                -5.964
REMARK SMILES CC(=O)N[C@@H]1[C@@H](O)C[C@](O)(C(=O)O)O[C@H]1C(O)[C@H](O)CNC(=O)OCc1cn(-c2ccc(S(N)(=O)=O)cc2)nn1
REMARK SMILES IDX 21 1 22 2 23 3 20 5 18 6 16 7 15 8 9 9 8 10 14 11 6 12 5 13
REMARK SMILES IDX 10 14 11 16 12 17 13 18 7 20 4 22 2 23 1 25 3 26 17 27 19 29
REMARK SMILES IDX 24 31 25 32 26 33 27 34 40 35 28 36 39 37 29 38 30 39 38 40
REMARK SMILES IDX 31 41 37 42 32 43 33 44 35 45 36 46 34 47
REMARK H PARENT 21 4 10 15 13 19 7 21 4 24 17 28 19 30 34 48 34 49
REMARK Flexibility Score: inf
ROOT
ATOM      1  N   UNL     1      24.013  32.734  14.993  1.00  0.00    -0.319 N 
ATOM      2  C   UNL     1      23.524  31.641  15.722  1.00  0.00     0.407 C 
ATOM      3  O   UNL     1      22.366  31.225  15.547  1.00  0.00    -0.225 OA
ATOM      4  H   UNL     1      25.007  33.037  15.186  1.00  0.00     0.167 HD
ENDROOT
BRANCH   1   5
ATOM      5  C   UNL     1      23.228  33.422  14.030  1.00  0.00     0.154 C 
BRANCH   5   6
ATOM      6  C   UNL     1      23.977  34.562  13.350  1.00  0.00     0.165 C 
BRANCH   6   7
ATOM      7  C   UNL     1      23.380  34.776  11.989  1.00  0.00     0.176 C 
BRANCH   7   8
ATOM      8  C   UNL     1      24.348  35.179  10.943  1.00  0.00     0.178 C 
ATOM      9  C   UNL     1      26.225  36.537  10.698  1.00  0.00     0.269 C 
ATOM     10  C   UNL     1      26.279  35.744   9.416  1.00  0.00     0.112 C 
ATOM     11  O   UNL     1      25.161  36.207  11.490  1.00  0.00    -0.332 OA
ATOM     12  C   UNL     1      24.976  35.723   8.678  1.00  0.00     0.145 C 
ATOM     13  C   UNL     1      23.832  35.718   9.662  1.00  0.00     0.142 C 
BRANCH   9  14
ATOM     14  O   UNL     1      26.280  37.928  10.437  1.00  0.00    -0.357 OA
ATOM     15  H   UNL     1      26.655  38.416  11.213  1.00  0.00     0.214 HD
ENDBRANCH   9  14
BRANCH   9  16
ATOM     16  C   UNL     1      27.470  36.229  11.451  1.00  0.00     0.364 C 
ATOM     17  O   UNL     1      27.692  35.031  11.761  1.00  0.00    -0.246 OA
BRANCH  16  18
ATOM     18  O   UNL     1      28.400  37.177  11.833  1.00  0.00    -0.477 OA
ATOM     19  H   UNL     1      28.131  38.149  11.965  1.00  0.00     0.296 HD
ENDBRANCH  16  18
ENDBRANCH   9  16
BRANCH  12  20
ATOM     20  O   UNL     1      24.944  36.812   7.816  1.00  0.00    -0.391 OA
ATOM     21  H   UNL     1      25.499  37.518   8.236  1.00  0.00     0.211 HD
ENDBRANCH  12  20
BRANCH  13  22
ATOM     22  N   UNL     1      22.632  35.183   9.142  1.00  0.00    -0.348 N 
ATOM     23  C   UNL     1      21.694  35.966   8.431  1.00  0.00     0.217 C 
ATOM     24  H   UNL     1      22.415  34.174   9.255  1.00  0.00     0.163 HD
ATOM     25  C   UNL     1      20.420  35.382   7.885  1.00  0.00     0.114 C 
ATOM     26  O   UNL     1      21.950  37.173   8.267  1.00  0.00    -0.275 OA
ENDBRANCH  13  22
ENDBRANCH   7   8
BRANCH   7  27
ATOM     27  O   UNL     1      22.383  33.909  11.630  1.00  0.00    -0.388 OA
ATOM     28  H   UNL     1      21.705  34.394  11.109  1.00  0.00     0.211 HD
ENDBRANCH   7  27
ENDBRANCH   6   7
BRANCH   6  29
ATOM     29  O   UNL     1      25.319  34.289  13.375  1.00  0.00    -0.388 OA
ATOM     30  H   UNL     1      25.717  34.587  14.239  1.00  0.00     0.211 HD
ENDBRANCH   6  29
ENDBRANCH   5   6
ENDBRANCH   1   5
BRANCH   2  31
ATOM     31  O   UNL     1      24.299  30.964  16.676  1.00  0.00    -0.443 OA
BRANCH  31  32
ATOM     32  C   UNL     1      25.069  29.858  16.324  1.00  0.00     0.294 C 
BRANCH  32  33
ATOM     33  C   UNL     1      26.495  30.207  16.136  1.00  0.00     0.121 A 
ATOM     34  C   UNL     1      27.075  31.396  15.766  1.00  0.00     0.144 A 
ATOM     35  N   UNL     1      27.526  29.342  16.318  1.00  0.00    -0.131 NA
ATOM     36  N   UNL     1      28.412  31.249  15.726  1.00  0.00    -0.220 N 
ATOM     37  N   UNL     1      28.646  29.997  16.065  1.00  0.00    -0.062 NA
BRANCH  36  38
ATOM     38  C   UNL     1      29.405  32.213  15.394  1.00  0.00     0.066 A 
ATOM     39  C   UNL     1      30.731  32.034  15.726  1.00  0.00     0.030 A 
ATOM     40  C   UNL     1      29.078  33.377  14.722  1.00  0.00     0.030 A 
ATOM     41  C   UNL     1      31.703  32.957  15.412  1.00  0.00     0.024 A 
ATOM     42  C   UNL     1      30.048  34.304  14.406  1.00  0.00     0.024 A 
ATOM     43  C   UNL     1      31.377  34.136  14.732  1.00  0.00     0.082 A 
BRANCH  43  44
ATOM     44  S   UNL     1      32.615  35.306  14.337  1.00  0.00     0.238 S 
ATOM     45  O   UNL     1      31.964  36.661  14.341  1.00  0.00    -0.207 OA
ATOM     46  O   UNL     1      33.640  35.315  15.449  1.00  0.00    -0.207 OA
BRANCH  44  47
ATOM     47  N   UNL     1      33.359  35.003  12.825  1.00  0.00    -0.225 NA
ATOM     48  H   UNL     1      34.385  35.019  12.832  1.00  0.00     0.137 HD
ATOM     49  H   UNL     1      32.975  34.150  12.359  1.00  0.00     0.137 HD
ENDBRANCH  44  47
ENDBRANCH  43  44
ENDBRANCH  36  38
ENDBRANCH  32  33
ENDBRANCH  31  32
ENDBRANCH   2  31
TORSDOF 17
BEGIN_RES LYS A 131
REMARK  4 active torsions:
REMARK  status: ('A' for Active; 'I' for Inactive)
REMARK    1  A    between atoms: CA   and  CB  
REMARK    2  A    between atoms: CB   and  CG  
REMARK    3  A    between atoms: CG   and  CD  
REMARK    4  A    between atoms: CD   and  CE  
ROOT
ATOM      1  CA  LYS A 131      29.867  25.555  16.977  1.00 20.52     0.186 C 
ENDROOT
BRANCH   1   2
ATOM      2  CB  LYS A 131      28.345  25.722  17.026  1.00 20.94     0.034 C 
BRANCH   2   3
ATOM      3  CG  LYS A 131      27.601  24.402  16.894  1.00 22.96     0.005 C 
BRANCH   3   4
ATOM      4  CD  LYS A 131      26.150  24.530  17.265  1.00 24.33     0.041 C 
BRANCH   4   5
ATOM      5  CE  LYS A 131      25.953  24.089  18.711  1.00 26.91     0.338 C 
ATOM      6  NZ  LYS A 131      25.704  25.262  19.582  1.00 27.40     0.618 N 
ENDBRANCH   4   5
ENDBRANCH   3   4
ENDBRANCH   2   3
ENDBRANCH   1   2
END_RES LYS A 131
BEGIN_RES LYS A 135
REMARK  4 active torsions:
REMARK  status: ('A' for Active; 'I' for Inactive)
REMARK    5  A    between atoms: CA   and  CB  
REMARK    6  A    between atoms: CB   and  CG  
REMARK    7  A    between atoms: CG   and  CD  
REMARK    8  A    between atoms: CD   and  CE  
ROOT
ATOM      7  CA  LYS A 135      33.193  34.663   9.290  1.00 25.02     0.186 C 
ENDROOT
BRANCH   7   8
ATOM      8  CB  LYS A 135      32.060  35.360  10.034  1.00 26.63     0.034 C 
BRANCH   8   9
ATOM      9  CG  LYS A 135      30.698  34.795   9.724  1.00 29.45     0.005 C 
BRANCH   9  10
ATOM     10  CD  LYS A 135      30.598  34.411   8.255  1.00 32.00     0.041 C 
BRANCH  10  11
ATOM     11  CE  LYS A 135      29.470  35.169   7.582  1.00 34.25     0.338 C 
ATOM     12  NZ  LYS A 135      29.372  36.560   8.104  1.00 35.99     0.618 N 
ENDBRANCH  10  11
ENDBRANCH   9  10
ENDBRANCH   8   9
ENDBRANCH   7   8
END_RES LYS A 135
