REMARK VINA RESULT:    -5.141      2.335      4.831
REMARK INTER + INTRA:         -14.510
REMARK INTER:                  -8.053
REMARK INTRA:                  -6.457
REMARK UNBOUND:                -5.011
REMARK SMILES CC(=O)N[C@@H]1[C@@H](O)C[C@](O)(C(=O)O)O[C@H]1C(O)[C@H](O)CNC(=O)OCc1cn(CS(=O)(=O)c2ccccc2)nn1
REMARK SMILES IDX 21 1 22 2 23 3 20 5 18 6 16 7 15 8 9 9 8 10 14 11 6 12 5 13
REMARK SMILES IDX 10 14 11 16 12 17 13 18 7 20 4 22 2 23 1 25 3 26 17 27 19 29
REMARK SMILES IDX 24 31 25 32 26 33 27 34 40 35 28 36 39 37 29 38 30 39 31 40
REMARK SMILES IDX 32 41 33 42 34 43 38 44 35 45 37 46 36 47
REMARK H PARENT 21 4 10 15 13 19 7 21 4 24 17 28 19 30
REMARK Flexibility Score: inf
ROOT
ATOM      1  N   UNL     1      27.055  29.381  18.165  1.00  0.00    -0.319 N 
ATOM      2  C   UNL     1      27.235  30.012  16.881  1.00  0.00     0.407 C 
ATOM      3  O   UNL     1      27.661  29.334  15.935  1.00  0.00    -0.225 OA
ATOM      4  H   UNL     1      26.690  30.015  18.901  1.00  0.00     0.167 HD
ENDROOT
BRANCH   1   5
ATOM      5  C   UNL     1      27.369  27.975  18.345  1.00  0.00     0.154 C 
BRANCH   5   6
ATOM      6  C   UNL     1      27.572  27.609  19.776  1.00  0.00     0.165 C 
BRANCH   6   7
ATOM      7  C   UNL     1      27.691  28.773  20.700  1.00  0.00     0.176 C 
BRANCH   7   8
ATOM      8  C   UNL     1      28.977  28.928  21.429  1.00  0.00     0.178 C 
ATOM      9  C   UNL     1      28.766  31.239  21.722  1.00  0.00     0.269 C 
ATOM     10  C   UNL     1      29.424  31.445  20.398  1.00  0.00     0.112 C 
ATOM     11  O   UNL     1      28.918  30.008  22.308  1.00  0.00    -0.332 OA
ATOM     12  C   UNL     1      30.344  30.384  19.934  1.00  0.00     0.145 C 
ATOM     13  C   UNL     1      30.235  29.079  20.671  1.00  0.00     0.142 C 
BRANCH   9  14
ATOM     14  O   UNL     1      27.393  31.484  21.652  1.00  0.00    -0.357 OA
ATOM     15  H   UNL     1      26.849  30.684  21.575  1.00  0.00     0.214 HD
ENDBRANCH   9  14
BRANCH   9  16
ATOM     16  C   UNL     1      29.322  32.223  22.688  1.00  0.00     0.364 C 
ATOM     17  O   UNL     1      30.498  32.088  23.088  1.00  0.00    -0.246 OA
BRANCH  16  18
ATOM     18  O   UNL     1      28.595  33.301  23.176  1.00  0.00    -0.477 OA
ATOM     19  H   UNL     1      28.575  33.511  24.184  1.00  0.00     0.296 HD
ENDBRANCH  16  18
ENDBRANCH   9  16
BRANCH  12  20
ATOM     20  O   UNL     1      30.180  30.202  18.563  1.00  0.00    -0.391 OA
ATOM     21  H   UNL     1      30.129  29.263  18.306  1.00  0.00     0.211 HD
ENDBRANCH  12  20
BRANCH  13  22
ATOM     22  N   UNL     1      31.353  28.897  21.603  1.00  0.00    -0.348 N 
ATOM     23  C   UNL     1      31.872  27.620  21.905  1.00  0.00     0.217 C 
ATOM     24  H   UNL     1      31.784  29.724  22.060  1.00  0.00     0.163 HD
ATOM     25  C   UNL     1      33.010  27.418  22.851  1.00  0.00     0.114 C 
ATOM     26  O   UNL     1      31.336  26.634  21.342  1.00  0.00    -0.275 OA
ENDBRANCH  13  22
ENDBRANCH   7   8
BRANCH   7  27
ATOM     27  O   UNL     1      26.777  28.401  21.782  1.00  0.00    -0.388 OA
ATOM     28  H   UNL     1      26.194  27.719  21.406  1.00  0.00     0.211 HD
ENDBRANCH   7  27
ENDBRANCH   6   7
BRANCH   6  29
ATOM     29  O   UNL     1      28.502  26.618  20.018  1.00  0.00    -0.388 OA
ATOM     30  H   UNL     1      29.267  26.939  20.555  1.00  0.00     0.211 HD
ENDBRANCH   6  29
ENDBRANCH   5   6
ENDBRANCH   1   5
BRANCH   2  31
ATOM     31  O   UNL     1      26.943  31.349  16.692  1.00  0.00    -0.443 OA
BRANCH  31  32
ATOM     32  C   UNL     1      27.656  32.166  15.782  1.00  0.00     0.294 C 
BRANCH  32  33
ATOM     33  C   UNL     1      29.001  32.491  16.277  1.00  0.00     0.120 A 
ATOM     34  C   UNL     1      29.413  33.429  17.181  1.00  0.00     0.139 A 
ATOM     35  N   UNL     1      30.126  31.858  15.881  1.00  0.00    -0.132 NA
ATOM     36  N   UNL     1      30.762  33.340  17.305  1.00  0.00    -0.237 N 
ATOM     37  N   UNL     1      31.167  32.373  16.499  1.00  0.00    -0.066 NA
BRANCH  36  38
ATOM     38  C   UNL     1      31.561  34.168  18.168  1.00  0.00     0.287 C 
BRANCH  38  39
ATOM     39  S   UNL     1      31.741  35.804  17.472  1.00  0.00     0.198 S 
ATOM     40  O   UNL     1      32.897  36.477  18.167  1.00  0.00    -0.222 OA
ATOM     41  O   UNL     1      30.487  36.548  17.736  1.00  0.00    -0.222 OA
BRANCH  39  42
ATOM     42  C   UNL     1      32.059  35.647  15.753  1.00  0.00     0.069 A 
ATOM     43  C   UNL     1      31.062  36.042  14.868  1.00  0.00     0.020 A 
ATOM     44  C   UNL     1      33.260  35.146  15.312  1.00  0.00     0.020 A 
ATOM     45  C   UNL     1      31.313  35.918  13.523  1.00  0.00     0.001 A 
ATOM     46  C   UNL     1      33.461  35.042  13.953  1.00  0.00     0.001 A 
ATOM     47  C   UNL     1      32.514  35.416  13.031  1.00  0.00     0.000 A 
ENDBRANCH  39  42
ENDBRANCH  38  39
ENDBRANCH  36  38
ENDBRANCH  32  33
ENDBRANCH  31  32
ENDBRANCH   2  31
TORSDOF 17
BEGIN_RES LYS A 131
REMARK  4 active torsions:
REMARK  status: ('A' for Active; 'I' for Inactive)
REMARK    1  A    between atoms: CA   and  CB  
REMARK    2  A    between atoms: CB   and  CG  
REMARK    3  A    between atoms: CG   and  CD  
REMARK    4  A    between atoms: CD   and  CE  
ROOT
ATOM      1  CA  LYS A 131      29.867  25.555  16.977  1.00 20.52     0.186 C 
ENDROOT
BRANCH   1   2
ATOM      2  CB  LYS A 131      28.345  25.722  17.026  1.00 20.94     0.034 C 
BRANCH   2   3
ATOM      3  CG  LYS A 131      27.600  24.412  16.820  1.00 22.96     0.005 C 
BRANCH   3   4
ATOM      4  CD  LYS A 131      26.861  23.980  18.056  1.00 24.33     0.041 C 
BRANCH   4   5
ATOM      5  CE  LYS A 131      25.517  24.697  18.123  1.00 26.91     0.338 C 
ATOM      6  NZ  LYS A 131      24.707  24.394  16.919  1.00 27.40     0.618 N 
ENDBRANCH   4   5
ENDBRANCH   3   4
ENDBRANCH   2   3
ENDBRANCH   1   2
END_RES LYS A 131
BEGIN_RES LYS A 135
REMARK  4 active torsions:
REMARK  status: ('A' for Active; 'I' for Inactive)
REMARK    5  A    between atoms: CA   and  CB  
REMARK    6  A    between atoms: CB   and  CG  
REMARK    7  A    between atoms: CG   and  CD  
REMARK    8  A    between atoms: CD   and  CE  
ROOT
ATOM      7  CA  LYS A 135      33.193  34.663   9.290  1.00 25.02     0.186 C 
ENDROOT
BRANCH   7   8
ATOM      8  CB  LYS A 135      32.060  35.360  10.034  1.00 26.63     0.034 C 
BRANCH   8   9
ATOM      9  CG  LYS A 135      30.704  34.760   9.765  1.00 29.45     0.005 C 
BRANCH   9  10
ATOM     10  CD  LYS A 135      30.526  34.481   8.281  1.00 32.00     0.041 C 
BRANCH  10  11
ATOM     11  CE  LYS A 135      29.258  35.135   7.764  1.00 34.25     0.338 C 
ATOM     12  NZ  LYS A 135      28.050  34.538   8.398  1.00 35.99     0.618 N 
ENDBRANCH  10  11
ENDBRANCH   9  10
ENDBRANCH   8   9
ENDBRANCH   7   8
END_RES LYS A 135
