REMARK VINA RESULT:    -6.819      2.510      6.257
REMARK INTER + INTRA:         -16.380
REMARK INTER:                  -9.267
REMARK INTRA:                  -7.113
REMARK UNBOUND:                -4.578
REMARK SMILES CC(=O)N[C@@H]1[C@@H](O)C[C@](O)(C(=O)O)O[C@H]1C(O)[C@H](O)CNC(=O)OCc1cn(C2c3ccccc3-c3ccccc32)nn1
REMARK SMILES IDX 20 1 18 2 16 3 15 4 9 5 8 6 14 7 6 8 5 9 10 10 11 12 12 13
REMARK SMILES IDX 13 14 7 16 4 18 2 19 1 21 3 22 17 23 19 25 21 27 22 28 23 30
REMARK SMILES IDX 24 31 25 32 26 33 27 34 43 35 28 36 42 37 29 38 30 39 41 40
REMARK SMILES IDX 31 41 35 42 36 43 40 44 32 45 34 46 37 47 39 48 33 49 38 50
REMARK H PARENT 10 11 13 15 7 17 4 20 17 24 19 26 21 29
REMARK Flexibility Score: inf
ROOT
ATOM      1  C   UNL     1      30.456  31.197  16.345  1.00  0.00     0.154 C 
ENDROOT
BRANCH   1   2
ATOM      2  C   UNL     1      30.853  32.573  15.957  1.00  0.00     0.165 C 
BRANCH   2   3
ATOM      3  C   UNL     1      29.698  33.509  15.801  1.00  0.00     0.176 C 
BRANCH   3   4
ATOM      4  C   UNL     1      29.953  34.940  16.184  1.00  0.00     0.178 C 
ATOM      5  C   UNL     1      27.958  36.066  16.672  1.00  0.00     0.269 C 
ATOM      6  C   UNL     1      28.510  37.449  16.395  1.00  0.00     0.112 C 
ATOM      7  O   UNL     1      28.963  35.266  17.113  1.00  0.00    -0.332 OA
ATOM      8  C   UNL     1      29.716  37.329  15.537  1.00  0.00     0.145 C 
ATOM      9  C   UNL     1      29.961  35.900  15.025  1.00  0.00     0.142 C 
BRANCH   5  10
ATOM     10  O   UNL     1      27.280  35.668  15.551  1.00  0.00    -0.357 OA
ATOM     11  H   UNL     1      26.390  36.080  15.487  1.00  0.00     0.214 HD
ENDBRANCH   5  10
BRANCH   5  12
ATOM     12  C   UNL     1      26.988  36.229  17.798  1.00  0.00     0.364 C 
ATOM     13  O   UNL     1      26.974  37.301  18.445  1.00  0.00    -0.246 OA
BRANCH  12  14
ATOM     14  O   UNL     1      26.094  35.233  18.163  1.00  0.00    -0.477 OA
ATOM     15  H   UNL     1      25.301  35.447  18.784  1.00  0.00     0.296 HD
ENDBRANCH  12  14
ENDBRANCH   5  12
BRANCH   8  16
ATOM     16  O   UNL     1      29.704  38.160  14.428  1.00  0.00    -0.391 OA
ATOM     17  H   UNL     1      29.343  37.732  13.619  1.00  0.00     0.211 HD
ENDBRANCH   8  16
BRANCH   9  18
ATOM     18  N   UNL     1      31.286  35.960  14.449  1.00  0.00    -0.348 N 
ATOM     19  C   UNL     1      31.669  35.342  13.231  1.00  0.00     0.217 C 
ATOM     20  H   UNL     1      32.012  36.500  14.964  1.00  0.00     0.163 HD
ATOM     21  C   UNL     1      33.066  35.451  12.699  1.00  0.00     0.114 C 
ATOM     22  O   UNL     1      30.792  34.694  12.606  1.00  0.00    -0.275 OA
ENDBRANCH   9  18
ENDBRANCH   3   4
BRANCH   3  23
ATOM     23  O   UNL     1      29.054  33.435  14.572  1.00  0.00    -0.388 OA
ATOM     24  H   UNL     1      28.107  33.228  14.614  1.00  0.00     0.211 HD
ENDBRANCH   3  23
ENDBRANCH   2   3
BRANCH   2  25
ATOM     25  O   UNL     1      31.513  32.539  14.731  1.00  0.00    -0.388 OA
ATOM     26  H   UNL     1      31.279  31.761  14.189  1.00  0.00     0.211 HD
ENDBRANCH   2  25
ENDBRANCH   1   2
BRANCH   1  27
ATOM     27  N   UNL     1      29.066  30.961  16.468  1.00  0.00    -0.319 N 
ATOM     28  C   UNL     1      28.433  30.567  17.660  1.00  0.00     0.407 C 
ATOM     29  H   UNL     1      28.436  31.085  15.610  1.00  0.00     0.167 HD
ATOM     30  O   UNL     1      29.048  30.405  18.710  1.00  0.00    -0.225 OA
BRANCH  28  31
ATOM     31  O   UNL     1      27.046  30.338  17.706  1.00  0.00    -0.443 OA
BRANCH  31  32
ATOM     32  C   UNL     1      26.099  31.362  17.716  1.00  0.00     0.294 C 
BRANCH  32  33
ATOM     33  C   UNL     1      25.836  31.946  16.377  1.00  0.00     0.120 A 
ATOM     34  C   UNL     1      24.941  31.552  15.413  1.00  0.00     0.139 A 
ATOM     35  N   UNL     1      26.484  33.012  15.903  1.00  0.00    -0.132 NA
ATOM     36  N   UNL     1      25.078  32.389  14.391  1.00  0.00    -0.240 N 
ATOM     37  N   UNL     1      26.013  33.263  14.703  1.00  0.00    -0.066 NA
BRANCH  36  38
ATOM     38  C   UNL     1      24.344  32.376  13.134  1.00  0.00     0.170 C 
ATOM     39  C   UNL     1      23.316  33.429  13.090  1.00  0.00    -0.011 A 
ATOM     40  C   UNL     1      23.644  31.122  12.904  1.00  0.00    -0.011 A 
ATOM     41  C   UNL     1      23.437  34.821  13.250  1.00  0.00     0.007 A 
ATOM     42  C   UNL     1      22.113  32.828  12.853  1.00  0.00    -0.012 A 
ATOM     43  C   UNL     1      22.310  31.384  12.736  1.00  0.00    -0.012 A 
ATOM     44  C   UNL     1      24.071  29.780  12.830  1.00  0.00     0.007 A 
ATOM     45  C   UNL     1      22.299  35.585  13.161  1.00  0.00     0.000 A 
ATOM     46  C   UNL     1      20.980  33.637  12.771  1.00  0.00     0.009 A 
ATOM     47  C   UNL     1      21.359  30.388  12.494  1.00  0.00     0.009 A 
ATOM     48  C   UNL     1      23.156  28.788  12.595  1.00  0.00     0.000 A 
ATOM     49  C   UNL     1      21.070  35.003  12.922  1.00  0.00     0.001 A 
ATOM     50  C   UNL     1      21.815  29.091  12.430  1.00  0.00     0.001 A 
ENDBRANCH  36  38
ENDBRANCH  32  33
ENDBRANCH  31  32
ENDBRANCH  28  31
ENDBRANCH   1  27
TORSDOF 15
BEGIN_RES LYS A 131
REMARK  4 active torsions:
REMARK  status: ('A' for Active; 'I' for Inactive)
REMARK    1  A    between atoms: CA   and  CB  
REMARK    2  A    between atoms: CB   and  CG  
REMARK    3  A    between atoms: CG   and  CD  
REMARK    4  A    between atoms: CD   and  CE  
ROOT
ATOM      1  CA  LYS A 131      29.867  25.555  16.977  1.00 20.52     0.186 C 
ENDROOT
BRANCH   1   2
ATOM      2  CB  LYS A 131      28.345  25.722  17.026  1.00 20.94     0.034 C 
BRANCH   2   3
ATOM      3  CG  LYS A 131      27.601  24.402  16.890  1.00 22.96     0.005 C 
BRANCH   3   4
ATOM      4  CD  LYS A 131      26.243  24.448  17.535  1.00 24.33     0.041 C 
BRANCH   4   5
ATOM      5  CE  LYS A 131      26.034  25.813  18.183  1.00 26.91     0.338 C 
ATOM      6  NZ  LYS A 131      24.766  26.421  17.715  1.00 27.40     0.618 N 
ENDBRANCH   4   5
ENDBRANCH   3   4
ENDBRANCH   2   3
ENDBRANCH   1   2
END_RES LYS A 131
BEGIN_RES LYS A 135
REMARK  4 active torsions:
REMARK  status: ('A' for Active; 'I' for Inactive)
REMARK    5  A    between atoms: CA   and  CB  
REMARK    6  A    between atoms: CB   and  CG  
REMARK    7  A    between atoms: CG   and  CD  
REMARK    8  A    between atoms: CD   and  CE  
ROOT
ATOM      7  CA  LYS A 135      33.193  34.663   9.290  1.00 25.02     0.186 C 
ENDROOT
BRANCH   7   8
ATOM      8  CB  LYS A 135      32.060  35.360  10.034  1.00 26.63     0.034 C 
BRANCH   8   9
ATOM      9  CG  LYS A 135      30.818  35.547   9.201  1.00 29.45     0.005 C 
BRANCH   9  10
ATOM     10  CD  LYS A 135      30.173  34.206   8.890  1.00 32.00     0.041 C 
BRANCH  10  11
ATOM     11  CE  LYS A 135      28.692  34.378   8.612  1.00 34.25     0.338 C 
ATOM     12  NZ  LYS A 135      27.870  33.638   9.609  1.00 35.99     0.618 N 
ENDBRANCH  10  11
ENDBRANCH   9  10
ENDBRANCH   8   9
ENDBRANCH   7   8
END_RES LYS A 135
