REMARK VINA RESULT:    -4.365      7.951     13.327
REMARK INTER + INTRA:         -13.341
REMARK INTER:                  -7.436
REMARK INTRA:                  -5.905
REMARK UNBOUND:                -5.786
REMARK SMILES CC(=O)N[C@@H]1[C@@H](O)C[C@](O)(C(=O)O)O[C@H]1C(O)[C@H](O)CNC(=O)OCc1cn(C2CCN(C)CC2)nn1
REMARK SMILES IDX 20 1 18 2 16 3 15 4 9 5 8 6 14 7 6 8 5 9 10 10 11 12 12 13
REMARK SMILES IDX 13 14 7 16 4 18 2 19 1 21 3 22 17 23 19 25 21 27 22 28 23 30
REMARK SMILES IDX 24 31 25 32 26 33 27 34 37 35 28 36 36 37 29 38 30 39 35 40
REMARK SMILES IDX 31 41 34 42 32 43 33 44
REMARK H PARENT 10 11 13 15 7 17 4 20 17 24 19 26 21 29
REMARK Flexibility Score: inf
ROOT
ATOM      1  C   UNL     1      24.016  39.461   9.331  1.00  0.00     0.154 C 
ENDROOT
BRANCH   1   2
ATOM      2  C   UNL     1      24.964  39.272   8.194  1.00  0.00     0.165 C 
BRANCH   2   3
ATOM      3  C   UNL     1      25.616  37.906   8.201  1.00  0.00     0.176 C 
BRANCH   3   4
ATOM      4  C   UNL     1      26.896  37.949   7.393  1.00  0.00     0.178 C 
ATOM      5  C   UNL     1      27.833  38.668   5.378  1.00  0.00     0.269 C 
ATOM      6  C   UNL     1      28.527  37.352   5.203  1.00  0.00     0.112 C 
ATOM      7  O   UNL     1      26.787  38.681   6.253  1.00  0.00    -0.332 OA
ATOM      8  C   UNL     1      28.752  36.666   6.524  1.00  0.00     0.145 C 
ATOM      9  C   UNL     1      27.388  36.549   7.198  1.00  0.00     0.142 C 
BRANCH   5  10
ATOM     10  O   UNL     1      27.421  39.106   4.089  1.00  0.00    -0.357 OA
ATOM     11  H   UNL     1      28.200  39.301   3.514  1.00  0.00     0.214 HD
ENDBRANCH   5  10
BRANCH   5  12
ATOM     12  C   UNL     1      28.829  39.656   5.865  1.00  0.00     0.364 C 
ATOM     13  O   UNL     1      28.451  40.638   6.552  1.00  0.00    -0.246 OA
BRANCH  12  14
ATOM     14  O   UNL     1      30.191  39.582   5.616  1.00  0.00    -0.477 OA
ATOM     15  H   UNL     1      30.651  38.719   5.327  1.00  0.00     0.296 HD
ENDBRANCH  12  14
ENDBRANCH   5  12
BRANCH   8  16
ATOM     16  O   UNL     1      29.296  35.390   6.356  1.00  0.00    -0.391 OA
ATOM     17  H   UNL     1      29.865  35.121   7.111  1.00  0.00     0.211 HD
ENDBRANCH   8  16
BRANCH   9  18
ATOM     18  N   UNL     1      27.670  35.934   8.502  1.00  0.00    -0.348 N 
ATOM     19  C   UNL     1      27.037  34.748   8.925  1.00  0.00     0.217 C 
ATOM     20  H   UNL     1      28.359  36.413   9.096  1.00  0.00     0.163 HD
ATOM     21  C   UNL     1      27.339  34.131  10.264  1.00  0.00     0.114 C 
ATOM     22  O   UNL     1      26.203  34.207   8.155  1.00  0.00    -0.275 OA
ENDBRANCH   9  18
ENDBRANCH   3   4
BRANCH   3  23
ATOM     23  O   UNL     1      24.716  36.983   7.722  1.00  0.00    -0.388 OA
ATOM     24  H   UNL     1      24.203  37.354   6.960  1.00  0.00     0.211 HD
ENDBRANCH   3  23
ENDBRANCH   2   3
BRANCH   2  25
ATOM     25  O   UNL     1      25.994  40.234   8.319  1.00  0.00    -0.388 OA
ATOM     26  H   UNL     1      25.715  41.103   7.926  1.00  0.00     0.211 HD
ENDBRANCH   2  25
ENDBRANCH   1   2
BRANCH   1  27
ATOM     27  N   UNL     1      24.442  38.627  10.434  1.00  0.00    -0.319 N 
ATOM     28  C   UNL     1      24.857  39.119  11.700  1.00  0.00     0.407 C 
ATOM     29  H   UNL     1      24.468  37.565  10.354  1.00  0.00     0.167 HD
ATOM     30  O   UNL     1      24.862  40.343  11.902  1.00  0.00    -0.225 OA
BRANCH  28  31
ATOM     31  O   UNL     1      25.259  38.277  12.729  1.00  0.00    -0.443 OA
BRANCH  31  32
ATOM     32  C   UNL     1      26.487  38.490  13.395  1.00  0.00     0.294 C 
BRANCH  32  33
ATOM     33  C   UNL     1      27.628  38.348  12.454  1.00  0.00     0.120 A 
ATOM     34  C   UNL     1      28.859  38.935  12.518  1.00  0.00     0.138 A 
ATOM     35  N   UNL     1      27.641  37.591  11.341  1.00  0.00    -0.132 NA
ATOM     36  N   UNL     1      29.589  38.537  11.463  1.00  0.00    -0.249 N 
ATOM     37  N   UNL     1      28.808  37.710  10.762  1.00  0.00    -0.067 NA
BRANCH  36  38
ATOM     38  C   UNL     1      30.948  38.934  11.168  1.00  0.00     0.111 C 
ATOM     39  C   UNL     1      31.029  40.398  10.799  1.00  0.00     0.043 C 
ATOM     40  C   UNL     1      31.568  38.045  10.131  1.00  0.00     0.043 C 
ATOM     41  C   UNL     1      30.718  40.645   9.342  1.00  0.00     0.086 C 
ATOM     42  C   UNL     1      31.157  38.366   8.728  1.00  0.00     0.086 C 
ATOM     43  N   UNL     1      31.411  39.750   8.464  1.00  0.00    -0.306 NA
ATOM     44  C   UNL     1      32.825  39.985   8.415  1.00  0.00     0.105 C 
ENDBRANCH  36  38
ENDBRANCH  32  33
ENDBRANCH  31  32
ENDBRANCH  28  31
ENDBRANCH   1  27
TORSDOF 15
BEGIN_RES LYS A 131
REMARK  4 active torsions:
REMARK  status: ('A' for Active; 'I' for Inactive)
REMARK    1  A    between atoms: CA   and  CB  
REMARK    2  A    between atoms: CB   and  CG  
REMARK    3  A    between atoms: CG   and  CD  
REMARK    4  A    between atoms: CD   and  CE  
ROOT
ATOM      1  CA  LYS A 131      29.867  25.555  16.977  1.00 20.52     0.186 C 
ENDROOT
BRANCH   1   2
ATOM      2  CB  LYS A 131      28.345  25.722  17.026  1.00 20.94     0.034 C 
BRANCH   2   3
ATOM      3  CG  LYS A 131      27.602  24.400  16.916  1.00 22.96     0.005 C 
BRANCH   3   4
ATOM      4  CD  LYS A 131      26.587  24.227  18.012  1.00 24.33     0.041 C 
BRANCH   4   5
ATOM      5  CE  LYS A 131      25.249  23.816  17.407  1.00 26.91     0.338 C 
ATOM      6  NZ  LYS A 131      25.044  22.355  17.545  1.00 27.40     0.618 N 
ENDBRANCH   4   5
ENDBRANCH   3   4
ENDBRANCH   2   3
ENDBRANCH   1   2
END_RES LYS A 131
BEGIN_RES LYS A 135
REMARK  4 active torsions:
REMARK  status: ('A' for Active; 'I' for Inactive)
REMARK    5  A    between atoms: CA   and  CB  
REMARK    6  A    between atoms: CB   and  CG  
REMARK    7  A    between atoms: CG   and  CD  
REMARK    8  A    between atoms: CD   and  CE  
ROOT
ATOM      7  CA  LYS A 135      33.193  34.663   9.290  1.00 25.02     0.186 C 
ENDROOT
BRANCH   7   8
ATOM      8  CB  LYS A 135      32.060  35.360  10.034  1.00 26.63     0.034 C 
BRANCH   8   9
ATOM      9  CG  LYS A 135      30.887  34.460  10.324  1.00 29.45     0.005 C 
BRANCH   9  10
ATOM     10  CD  LYS A 135      30.406  34.649  11.755  1.00 32.00     0.041 C 
BRANCH  10  11
ATOM     11  CE  LYS A 135      31.496  35.277  12.604  1.00 34.25     0.338 C 
ATOM     12  NZ  LYS A 135      30.915  36.138  13.671  1.00 35.99     0.618 N 
ENDBRANCH  10  11
ENDBRANCH   9  10
ENDBRANCH   8   9
ENDBRANCH   7   8
END_RES LYS A 135
