REMARK VINA RESULT:    -4.229      3.036      6.322
REMARK INTER + INTRA:         -14.609
REMARK INTER:                  -9.524
REMARK INTRA:                  -5.085
REMARK UNBOUND:                -7.042
REMARK SMILES CC(=O)N[C@@H]1[C@@H](O)C[C@](O)(C(=O)O)O[C@H]1C(O)[C@H](O)CNC(=O)OCc1cn(-c2ncccc2C#N)nn1
REMARK SMILES IDX 21 1 22 2 23 3 20 5 18 6 16 7 15 8 9 9 8 10 14 11 6 12 5 13
REMARK SMILES IDX 10 14 11 16 12 17 13 18 7 20 4 22 2 23 1 25 3 26 17 27 19 29
REMARK SMILES IDX 24 31 25 32 26 33 27 34 38 35 28 36 37 37 29 38 30 39 34 40
REMARK SMILES IDX 31 41 33 42 32 43 35 44 36 45
REMARK H PARENT 21 4 10 15 13 19 7 21 4 24 17 28 19 30
REMARK Flexibility Score: inf
ROOT
ATOM      1  N   UNL     1      23.100  37.231  11.017  1.00  0.00    -0.319 N 
ATOM      2  C   UNL     1      23.110  38.627  10.683  1.00  0.00     0.407 C 
ATOM      3  O   UNL     1      24.158  39.281  10.663  1.00  0.00    -0.225 OA
ATOM      4  H   UNL     1      22.118  36.800  10.968  1.00  0.00     0.167 HD
ENDROOT
BRANCH   1   5
ATOM      5  C   UNL     1      24.218  36.476  11.325  1.00  0.00     0.154 C 
BRANCH   5   6
ATOM      6  C   UNL     1      24.702  35.432  10.288  1.00  0.00     0.165 C 
BRANCH   6   7
ATOM      7  C   UNL     1      26.066  35.885   9.933  1.00  0.00     0.176 C 
BRANCH   7   8
ATOM      8  C   UNL     1      26.623  35.571   8.591  1.00  0.00     0.178 C 
ATOM      9  C   UNL     1      28.960  35.507   8.328  1.00  0.00     0.269 C 
ATOM     10  C   UNL     1      28.912  35.721   6.835  1.00  0.00     0.112 C 
ATOM     11  O   UNL     1      27.826  34.841   8.799  1.00  0.00    -0.332 OA
ATOM     12  C   UNL     1      27.461  35.976   6.381  1.00  0.00     0.145 C 
ATOM     13  C   UNL     1      26.818  36.645   7.621  1.00  0.00     0.142 C 
BRANCH   9  14
ATOM     14  O   UNL     1      29.226  36.700   8.982  1.00  0.00    -0.357 OA
ATOM     15  H   UNL     1      28.577  37.402   8.831  1.00  0.00     0.214 HD
ENDBRANCH   9  14
BRANCH   9  16
ATOM     16  C   UNL     1      30.059  34.549   8.563  1.00  0.00     0.364 C 
ATOM     17  O   UNL     1      30.218  33.716   9.370  1.00  0.00    -0.246 OA
BRANCH  16  18
ATOM     18  O   UNL     1      31.141  34.701   7.566  1.00  0.00    -0.477 OA
ATOM     19  H   UNL     1      30.845  35.040   6.648  1.00  0.00     0.296 HD
ENDBRANCH  16  18
ENDBRANCH   9  16
BRANCH  12  20
ATOM     20  O   UNL     1      27.421  36.799   5.285  1.00  0.00    -0.391 OA
ATOM     21  H   UNL     1      28.092  37.502   5.333  1.00  0.00     0.211 HD
ENDBRANCH  12  20
BRANCH  13  22
ATOM     22  N   UNL     1      25.569  37.268   7.160  1.00  0.00    -0.348 N 
ATOM     23  C   UNL     1      25.362  38.630   7.428  1.00  0.00     0.217 C 
ATOM     24  H   UNL     1      24.899  36.724   6.650  1.00  0.00     0.163 HD
ATOM     25  C   UNL     1      24.350  39.577   7.138  1.00  0.00     0.114 C 
ATOM     26  O   UNL     1      26.433  39.106   8.125  1.00  0.00    -0.275 OA
ENDBRANCH  13  22
ENDBRANCH   7   8
BRANCH   7  27
ATOM     27  O   UNL     1      26.342  37.114  10.457  1.00  0.00    -0.388 OA
ATOM     28  H   UNL     1      26.537  37.795   9.759  1.00  0.00     0.211 HD
ENDBRANCH   7  27
ENDBRANCH   6   7
BRANCH   6  29
ATOM     29  O   UNL     1      23.742  35.422   9.316  1.00  0.00    -0.388 OA
ATOM     30  H   UNL     1      24.170  35.479   8.426  1.00  0.00     0.211 HD
ENDBRANCH   6  29
ENDBRANCH   5   6
ENDBRANCH   1   5
BRANCH   2  31
ATOM     31  O   UNL     1      21.899  39.249  10.370  1.00  0.00    -0.443 OA
BRANCH  31  32
ATOM     32  C   UNL     1      21.399  39.261   9.016  1.00  0.00     0.294 C 
BRANCH  32  33
ATOM     33  C   UNL     1      21.049  37.813   8.778  1.00  0.00     0.121 A 
ATOM     34  C   UNL     1      19.959  37.151   9.260  1.00  0.00     0.146 A 
ATOM     35  N   UNL     1      21.724  36.989   7.978  1.00  0.00    -0.131 NA
ATOM     36  N   UNL     1      20.013  35.901   8.705  1.00  0.00    -0.201 N 
ATOM     37  N   UNL     1      21.105  35.845   7.930  1.00  0.00    -0.060 NA
BRANCH  36  38
ATOM     38  C   UNL     1      19.100  34.865   8.875  1.00  0.00     0.173 A 
ATOM     39  N   UNL     1      18.159  34.581   7.881  1.00  0.00    -0.236 NA
ATOM     40  C   UNL     1      18.947  34.103  10.015  1.00  0.00     0.097 A 
ATOM     41  C   UNL     1      17.272  33.698   8.075  1.00  0.00     0.113 A 
ATOM     42  C   UNL     1      18.014  33.186  10.203  1.00  0.00     0.025 A 
ATOM     43  C   UNL     1      17.042  32.877   9.208  1.00  0.00     0.022 A 
BRANCH  40  44
ATOM     44  C   UNL     1      19.876  34.388  11.176  1.00  0.00     0.103 C 
ATOM     45  N   UNL     1      20.488  34.564  11.960  1.00  0.00    -0.192 NA
ENDBRANCH  40  44
ENDBRANCH  36  38
ENDBRANCH  32  33
ENDBRANCH  31  32
ENDBRANCH   2  31
TORSDOF 16
BEGIN_RES LYS A 131
REMARK  4 active torsions:
REMARK  status: ('A' for Active; 'I' for Inactive)
REMARK    1  A    between atoms: CA   and  CB  
REMARK    2  A    between atoms: CB   and  CG  
REMARK    3  A    between atoms: CG   and  CD  
REMARK    4  A    between atoms: CD   and  CE  
ROOT
ATOM      1  CA  LYS A 131      29.867  25.555  16.977  1.00 20.52     0.186 C 
ENDROOT
BRANCH   1   2
ATOM      2  CB  LYS A 131      28.345  25.722  17.026  1.00 20.94     0.034 C 
BRANCH   2   3
ATOM      3  CG  LYS A 131      27.601  24.404  16.876  1.00 22.96     0.005 C 
BRANCH   3   4
ATOM      4  CD  LYS A 131      26.696  24.128  18.044  1.00 24.33     0.041 C 
BRANCH   4   5
ATOM      5  CE  LYS A 131      25.428  23.435  17.554  1.00 26.91     0.338 C 
ATOM      6  NZ  LYS A 131      24.562  24.393  16.826  1.00 27.40     0.618 N 
ENDBRANCH   4   5
ENDBRANCH   3   4
ENDBRANCH   2   3
ENDBRANCH   1   2
END_RES LYS A 131
BEGIN_RES LYS A 135
REMARK  4 active torsions:
REMARK  status: ('A' for Active; 'I' for Inactive)
REMARK    5  A    between atoms: CA   and  CB  
REMARK    6  A    between atoms: CB   and  CG  
REMARK    7  A    between atoms: CG   and  CD  
REMARK    8  A    between atoms: CD   and  CE  
ROOT
ATOM      7  CA  LYS A 135      33.193  34.663   9.290  1.00 25.02     0.186 C 
ENDROOT
BRANCH   7   8
ATOM      8  CB  LYS A 135      32.060  35.360  10.034  1.00 26.63     0.034 C 
BRANCH   8   9
ATOM      9  CG  LYS A 135      32.433  35.796  11.428  1.00 29.45     0.005 C 
BRANCH   9  10
ATOM     10  CD  LYS A 135      31.447  35.241  12.445  1.00 32.00     0.041 C 
BRANCH  10  11
ATOM     11  CE  LYS A 135      30.151  36.028  12.414  1.00 34.25     0.338 C 
ATOM     12  NZ  LYS A 135      28.987  35.136  12.155  1.00 35.99     0.618 N 
ENDBRANCH  10  11
ENDBRANCH   9  10
ENDBRANCH   8   9
ENDBRANCH   7   8
END_RES LYS A 135
