REMARK VINA RESULT:    -5.056      4.313      9.081
REMARK INTER + INTRA:         -13.918
REMARK INTER:                  -9.022
REMARK INTRA:                  -4.896
REMARK UNBOUND:                -4.724
REMARK SMILES CC(=O)N[C@@H]1[C@@H](O)C[C@](O)(C(=O)O)O[C@H]1C(O)[C@H](O)CNC(=O)OCc1cn([C@@H](C)C(=O)O)nn1
REMARK SMILES IDX 21 1 22 2 23 3 20 5 18 6 16 7 15 8 9 9 8 10 14 11 6 12 5 13
REMARK SMILES IDX 10 14 11 16 12 17 13 18 7 20 4 22 2 23 1 25 3 26 17 27 19 29
REMARK SMILES IDX 24 31 25 32 26 33 27 34 35 35 28 36 34 37 29 38 30 39 31 40
REMARK SMILES IDX 32 41 33 42
REMARK H PARENT 21 4 10 15 13 19 7 21 4 24 17 28 19 30 33 43
REMARK Flexibility Score: inf
ROOT
ATOM      1  N   UNL     1      31.709  39.099  10.442  1.00  0.00    -0.319 N 
ATOM      2  C   UNL     1      31.332  38.303  11.548  1.00  0.00     0.407 C 
ATOM      3  O   UNL     1      30.138  38.227  11.932  1.00  0.00    -0.225 OA
ATOM      4  H   UNL     1      32.709  39.128  10.166  1.00  0.00     0.167 HD
ENDROOT
BRANCH   1   5
ATOM      5  C   UNL     1      30.754  39.864   9.695  1.00  0.00     0.154 C 
BRANCH   5   6
ATOM      6  C   UNL     1      30.389  39.215   8.355  1.00  0.00     0.165 C 
BRANCH   6   7
ATOM      7  C   UNL     1      29.085  38.520   8.541  1.00  0.00     0.176 C 
BRANCH   7   8
ATOM      8  C   UNL     1      28.034  38.787   7.518  1.00  0.00     0.178 C 
ATOM      9  C   UNL     1      26.431  37.250   8.241  1.00  0.00     0.269 C 
ATOM     10  C   UNL     1      27.182  36.236   7.475  1.00  0.00     0.112 C 
ATOM     11  O   UNL     1      26.804  38.562   8.119  1.00  0.00    -0.332 OA
ATOM     12  C   UNL     1      27.818  36.671   6.202  1.00  0.00     0.145 C 
ATOM     13  C   UNL     1      28.175  38.130   6.199  1.00  0.00     0.142 C 
BRANCH   9  14
ATOM     14  O   UNL     1      26.627  36.934   9.611  1.00  0.00    -0.357 OA
ATOM     15  H   UNL     1      25.951  37.431  10.119  1.00  0.00     0.214 HD
ENDBRANCH   9  14
BRANCH   9  16
ATOM     16  C   UNL     1      24.974  37.081   7.987  1.00  0.00     0.364 C 
ATOM     17  O   UNL     1      24.276  36.250   8.629  1.00  0.00    -0.246 OA
BRANCH  16  18
ATOM     18  O   UNL     1      24.327  37.841   7.027  1.00  0.00    -0.477 OA
ATOM     19  H   UNL     1      23.373  38.171   7.123  1.00  0.00     0.296 HD
ENDBRANCH  16  18
ENDBRANCH   9  16
BRANCH  12  20
ATOM     20  O   UNL     1      28.952  35.861   6.003  1.00  0.00    -0.391 OA
ATOM     21  H   UNL     1      29.718  36.372   6.361  1.00  0.00     0.211 HD
ENDBRANCH  12  20
BRANCH  13  22
ATOM     22  N   UNL     1      27.250  38.831   5.286  1.00  0.00    -0.348 N 
ATOM     23  C   UNL     1      27.666  39.962   4.550  1.00  0.00     0.217 C 
ATOM     24  H   UNL     1      26.269  38.524   5.154  1.00  0.00     0.163 HD
ATOM     25  C   UNL     1      26.778  40.694   3.627  1.00  0.00     0.114 C 
ATOM     26  O   UNL     1      28.862  40.390   4.669  1.00  0.00    -0.275 OA
ENDBRANCH  13  22
ENDBRANCH   7   8
BRANCH   7  27
ATOM     27  O   UNL     1      28.550  39.061   9.755  1.00  0.00    -0.388 OA
ATOM     28  H   UNL     1      28.712  38.353  10.428  1.00  0.00     0.211 HD
ENDBRANCH   7  27
ENDBRANCH   6   7
BRANCH   6  29
ATOM     29  O   UNL     1      31.419  38.322   8.092  1.00  0.00    -0.388 OA
ATOM     30  H   UNL     1      32.163  38.544   8.708  1.00  0.00     0.211 HD
ENDBRANCH   6  29
ENDBRANCH   5   6
ENDBRANCH   1   5
BRANCH   2  31
ATOM     31  O   UNL     1      32.291  37.560  12.264  1.00  0.00    -0.443 OA
BRANCH  31  32
ATOM     32  C   UNL     1      32.427  36.166  12.056  1.00  0.00     0.294 C 
BRANCH  32  33
ATOM     33  C   UNL     1      32.156  35.408  13.303  1.00  0.00     0.120 A 
ATOM     34  C   UNL     1      30.903  34.996  13.763  1.00  0.00     0.139 A 
ATOM     35  N   UNL     1      33.024  34.962  14.238  1.00  0.00    -0.132 NA
ATOM     36  N   UNL     1      31.060  34.341  14.917  1.00  0.00    -0.238 N 
ATOM     37  N   UNL     1      32.338  34.324  15.197  1.00  0.00    -0.066 NA
BRANCH  36  38
ATOM     38  C   UNL     1      30.003  33.741  15.739  1.00  0.00     0.215 C 
ATOM     39  C   UNL     1      28.672  34.404  15.429  1.00  0.00     0.046 C 
BRANCH  38  40
ATOM     40  C   UNL     1      29.913  32.295  15.543  1.00  0.00     0.328 C 
ATOM     41  O   UNL     1      28.793  31.735  15.520  1.00  0.00    -0.250 OA
BRANCH  40  42
ATOM     42  O   UNL     1      31.020  31.465  15.376  1.00  0.00    -0.480 OA
ATOM     43  H   UNL     1      31.947  31.766  15.657  1.00  0.00     0.296 HD
ENDBRANCH  40  42
ENDBRANCH  38  40
ENDBRANCH  36  38
ENDBRANCH  32  33
ENDBRANCH  31  32
ENDBRANCH   2  31
TORSDOF 17
BEGIN_RES LYS A 131
REMARK  4 active torsions:
REMARK  status: ('A' for Active; 'I' for Inactive)
REMARK    1  A    between atoms: CA   and  CB  
REMARK    2  A    between atoms: CB   and  CG  
REMARK    3  A    between atoms: CG   and  CD  
REMARK    4  A    between atoms: CD   and  CE  
ROOT
ATOM      1  CA  LYS A 131      29.867  25.555  16.977  1.00 20.52     0.186 C 
ENDROOT
BRANCH   1   2
ATOM      2  CB  LYS A 131      28.345  25.722  17.026  1.00 20.94     0.034 C 
BRANCH   2   3
ATOM      3  CG  LYS A 131      27.601  24.402  16.893  1.00 22.96     0.005 C 
BRANCH   3   4
ATOM      4  CD  LYS A 131      26.148  24.531  17.258  1.00 24.33     0.041 C 
BRANCH   4   5
ATOM      5  CE  LYS A 131      26.003  24.528  18.776  1.00 26.91     0.338 C 
ATOM      6  NZ  LYS A 131      25.533  23.205  19.250  1.00 27.40     0.618 N 
ENDBRANCH   4   5
ENDBRANCH   3   4
ENDBRANCH   2   3
ENDBRANCH   1   2
END_RES LYS A 131
BEGIN_RES LYS A 135
REMARK  4 active torsions:
REMARK  status: ('A' for Active; 'I' for Inactive)
REMARK    5  A    between atoms: CA   and  CB  
REMARK    6  A    between atoms: CB   and  CG  
REMARK    7  A    between atoms: CG   and  CD  
REMARK    8  A    between atoms: CD   and  CE  
ROOT
ATOM      7  CA  LYS A 135      33.193  34.663   9.290  1.00 25.02     0.186 C 
ENDROOT
BRANCH   7   8
ATOM      8  CB  LYS A 135      32.060  35.360  10.034  1.00 26.63     0.034 C 
BRANCH   8   9
ATOM      9  CG  LYS A 135      30.761  35.382   9.270  1.00 29.45     0.005 C 
BRANCH   9  10
ATOM     10  CD  LYS A 135      30.230  33.971   9.074  1.00 32.00     0.041 C 
BRANCH  10  11
ATOM     11  CE  LYS A 135      28.782  33.880   9.518  1.00 34.25     0.338 C 
ATOM     12  NZ  LYS A 135      28.595  34.488  10.864  1.00 35.99     0.618 N 
ENDBRANCH  10  11
ENDBRANCH   9  10
ENDBRANCH   8   9
ENDBRANCH   7   8
END_RES LYS A 135
