REMARK VINA RESULT:    -4.278      5.595     10.365
REMARK INTER + INTRA:         -13.897
REMARK INTER:                  -7.607
REMARK INTRA:                  -6.290
REMARK UNBOUND:                -5.994
REMARK SMILES CC(=O)N[C@@H]1[C@@H](O)C[C@](O)(C(=O)O)O[C@H]1C(O)[C@H](O)CNC(=O)OCc1cn(CCN2CCCC2)nn1
REMARK SMILES IDX 21 1 22 2 23 3 20 5 18 6 16 7 15 8 9 9 8 10 14 11 6 12 5 13
REMARK SMILES IDX 10 14 11 16 12 17 13 18 7 20 4 22 2 23 1 25 3 26 17 27 19 29
REMARK SMILES IDX 24 31 25 32 26 33 27 34 37 35 28 36 36 37 29 38 30 39 31 40
REMARK SMILES IDX 32 41 35 42 33 43 34 44
REMARK H PARENT 21 4 10 15 13 19 7 21 4 24 17 28 19 30
REMARK Flexibility Score: inf
ROOT
ATOM      1  N   UNL     1      27.730  27.929  18.238  1.00  0.00    -0.319 N 
ATOM      2  C   UNL     1      27.116  27.796  19.497  1.00  0.00     0.407 C 
ATOM      3  O   UNL     1      25.949  28.171  19.671  1.00  0.00    -0.225 OA
ATOM      4  H   UNL     1      28.748  27.580  18.206  1.00  0.00     0.167 HD
ENDROOT
BRANCH   1   5
ATOM      5  C   UNL     1      27.146  28.464  17.050  1.00  0.00     0.154 C 
BRANCH   5   6
ATOM      6  C   UNL     1      27.698  29.826  16.745  1.00  0.00     0.165 C 
BRANCH   6   7
ATOM      7  C   UNL     1      26.685  30.922  17.063  1.00  0.00     0.176 C 
BRANCH   7   8
ATOM      8  C   UNL     1      26.326  31.583  15.721  1.00  0.00     0.178 C 
ATOM      9  C   UNL     1      26.633  33.907  15.670  1.00  0.00     0.269 C 
ATOM     10  C   UNL     1      25.323  33.981  16.430  1.00  0.00     0.112 C 
ATOM     11  O   UNL     1      27.120  32.651  15.489  1.00  0.00    -0.332 OA
ATOM     12  C   UNL     1      24.305  33.098  15.797  1.00  0.00     0.145 C 
ATOM     13  C   UNL     1      24.859  31.733  15.547  1.00  0.00     0.142 C 
BRANCH   9  14
ATOM     14  O   UNL     1      27.564  34.571  16.507  1.00  0.00    -0.357 OA
ATOM     15  H   UNL     1      28.452  34.578  16.036  1.00  0.00     0.214 HD
ENDBRANCH   9  14
BRANCH   9  16
ATOM     16  C   UNL     1      26.570  34.685  14.410  1.00  0.00     0.364 C 
ATOM     17  O   UNL     1      26.785  35.916  14.433  1.00  0.00    -0.246 OA
BRANCH  16  18
ATOM     18  O   UNL     1      26.278  34.069  13.208  1.00  0.00    -0.477 OA
ATOM     19  H   UNL     1      25.398  33.581  13.112  1.00  0.00     0.296 HD
ENDBRANCH  16  18
ENDBRANCH   9  16
BRANCH  12  20
ATOM     20  O   UNL     1      23.198  33.045  16.637  1.00  0.00    -0.391 OA
ATOM     21  H   UNL     1      22.835  33.960  16.786  1.00  0.00     0.211 HD
ENDBRANCH  12  20
BRANCH  13  22
ATOM     22  N   UNL     1      24.416  31.194  14.262  1.00  0.00    -0.348 N 
ATOM     23  C   UNL     1      23.950  29.883  14.112  1.00  0.00     0.217 C 
ATOM     24  H   UNL     1      24.462  31.837  13.449  1.00  0.00     0.163 HD
ATOM     25  C   UNL     1      23.519  29.419  12.767  1.00  0.00     0.114 C 
ATOM     26  O   UNL     1      23.897  29.098  15.113  1.00  0.00    -0.275 OA
ENDBRANCH  13  22
ENDBRANCH   7   8
BRANCH   7  27
ATOM     27  O   UNL     1      25.563  30.308  17.609  1.00  0.00    -0.388 OA
ATOM     28  H   UNL     1      24.824  30.195  16.987  1.00  0.00     0.211 HD
ENDBRANCH   7  27
ENDBRANCH   6   7
BRANCH   6  29
ATOM     29  O   UNL     1      28.212  29.971  15.476  1.00  0.00    -0.388 OA
ATOM     30  H   UNL     1      29.187  30.111  15.433  1.00  0.00     0.211 HD
ENDBRANCH   6  29
ENDBRANCH   5   6
ENDBRANCH   1   5
BRANCH   2  31
ATOM     31  O   UNL     1      27.776  27.245  20.599  1.00  0.00    -0.443 OA
BRANCH  31  32
ATOM     32  C   UNL     1      28.382  28.080  21.565  1.00  0.00     0.294 C 
BRANCH  32  33
ATOM     33  C   UNL     1      29.435  28.948  20.982  1.00  0.00     0.120 A 
ATOM     34  C   UNL     1      29.279  30.241  20.480  1.00  0.00     0.138 A 
ATOM     35  N   UNL     1      30.743  28.684  20.810  1.00  0.00    -0.132 NA
ATOM     36  N   UNL     1      30.457  30.711  20.033  1.00  0.00    -0.251 N 
ATOM     37  N   UNL     1      31.330  29.717  20.257  1.00  0.00    -0.067 NA
BRANCH  36  38
ATOM     38  C   UNL     1      30.762  31.993  19.433  1.00  0.00     0.161 C 
BRANCH  38  39
ATOM     39  C   UNL     1      29.617  32.564  18.664  1.00  0.00     0.108 C 
BRANCH  39  40
ATOM     40  N   UNL     1      29.947  32.988  17.326  1.00  0.00    -0.301 NA
ATOM     41  C   UNL     1      30.831  34.136  17.425  1.00  0.00     0.084 C 
ATOM     42  C   UNL     1      30.691  31.978  16.599  1.00  0.00     0.084 C 
ATOM     43  C   UNL     1      31.928  33.958  16.426  1.00  0.00     0.017 C 
ATOM     44  C   UNL     1      31.416  32.819  15.568  1.00  0.00     0.017 C 
ENDBRANCH  39  40
ENDBRANCH  38  39
ENDBRANCH  36  38
ENDBRANCH  32  33
ENDBRANCH  31  32
ENDBRANCH   2  31
TORSDOF 17
BEGIN_RES LYS A 131
REMARK  4 active torsions:
REMARK  status: ('A' for Active; 'I' for Inactive)
REMARK    1  A    between atoms: CA   and  CB  
REMARK    2  A    between atoms: CB   and  CG  
REMARK    3  A    between atoms: CG   and  CD  
REMARK    4  A    between atoms: CD   and  CE  
ROOT
ATOM      1  CA  LYS A 131      29.867  25.555  16.977  1.00 20.52     0.186 C 
ENDROOT
BRANCH   1   2
ATOM      2  CB  LYS A 131      28.345  25.722  17.026  1.00 20.94     0.034 C 
BRANCH   2   3
ATOM      3  CG  LYS A 131      27.601  24.401  16.901  1.00 22.96     0.005 C 
BRANCH   3   4
ATOM      4  CD  LYS A 131      26.508  24.267  17.925  1.00 24.33     0.041 C 
BRANCH   4   5
ATOM      5  CE  LYS A 131      25.152  24.432  17.246  1.00 26.91     0.338 C 
ATOM      6  NZ  LYS A 131      24.441  25.614  17.788  1.00 27.40     0.618 N 
ENDBRANCH   4   5
ENDBRANCH   3   4
ENDBRANCH   2   3
ENDBRANCH   1   2
END_RES LYS A 131
BEGIN_RES LYS A 135
REMARK  4 active torsions:
REMARK  status: ('A' for Active; 'I' for Inactive)
REMARK    5  A    between atoms: CA   and  CB  
REMARK    6  A    between atoms: CB   and  CG  
REMARK    7  A    between atoms: CG   and  CD  
REMARK    8  A    between atoms: CD   and  CE  
ROOT
ATOM      7  CA  LYS A 135      33.193  34.663   9.290  1.00 25.02     0.186 C 
ENDROOT
BRANCH   7   8
ATOM      8  CB  LYS A 135      32.060  35.360  10.034  1.00 26.63     0.034 C 
BRANCH   8   9
ATOM      9  CG  LYS A 135      30.716  34.709   9.831  1.00 29.45     0.005 C 
BRANCH   9  10
ATOM     10  CD  LYS A 135      30.213  34.946   8.415  1.00 32.00     0.041 C 
BRANCH  10  11
ATOM     11  CE  LYS A 135      28.761  34.527   8.289  1.00 34.25     0.338 C 
ATOM     12  NZ  LYS A 135      28.296  33.826   9.518  1.00 35.99     0.618 N 
ENDBRANCH  10  11
ENDBRANCH   9  10
ENDBRANCH   8   9
ENDBRANCH   7   8
END_RES LYS A 135
