REMARK VINA RESULT:    -5.056      1.828      2.672
REMARK INTER + INTRA:         -16.054
REMARK INTER:                 -10.802
REMARK INTRA:                  -5.252
REMARK UNBOUND:                -6.121
REMARK SMILES CC(=O)N[C@@H]1[C@@H](O)C[C@](O)(C(=O)O)O[C@H]1C(O)[C@H](O)CNC(=O)OCc1cn(C[C@@H](C)CN2CCN(c3ccc(Cl)cc3)CC2)nn1
REMARK SMILES IDX 24 1 22 2 21 3 23 5 20 6 18 7 16 8 15 9 9 10 8 11 14 12 6 13
REMARK SMILES IDX 5 14 10 15 11 17 12 18 13 19 7 21 4 23 2 24 1 26 3 27 17 28
REMARK SMILES IDX 19 30 25 32 26 33 27 34 47 35 28 36 46 37 29 38 30 39 31 40
REMARK SMILES IDX 32 41 33 42 34 43 45 44 35 45 44 46 36 47 37 48 38 49 43 50
REMARK SMILES IDX 39 51 42 52 40 53 41 54
REMARK H PARENT 21 4 10 16 13 20 7 22 4 25 17 29 19 31
REMARK Flexibility Score: inf
ROOT
ATOM      1  O   UNL     1      20.860  35.715  10.519  1.00  0.00    -0.443 OA
ENDROOT
BRANCH   1   2
ATOM      2  C   UNL     1      21.571  36.516   9.640  1.00  0.00     0.407 C 
ATOM      3  N   UNL     1      22.802  36.139   9.033  1.00  0.00    -0.319 N 
ATOM      4  H   UNL     1      23.177  35.205   9.288  1.00  0.00     0.167 HD
ATOM      5  O   UNL     1      21.061  37.640   9.383  1.00  0.00    -0.225 OA
BRANCH   3   6
ATOM      6  C   UNL     1      23.398  37.077   8.139  1.00  0.00     0.154 C 
BRANCH   6   7
ATOM      7  C   UNL     1      24.859  36.981   7.953  1.00  0.00     0.165 C 
BRANCH   7   8
ATOM      8  C   UNL     1      25.698  37.250   9.190  1.00  0.00     0.176 C 
BRANCH   8   9
ATOM      9  C   UNL     1      27.027  37.766   8.634  1.00  0.00     0.178 C 
ATOM     10  C   UNL     1      28.715  37.027   7.202  1.00  0.00     0.269 C 
ATOM     11  C   UNL     1      29.747  37.636   8.109  1.00  0.00     0.112 C 
ATOM     12  O   UNL     1      27.509  36.791   7.805  1.00  0.00    -0.332 OA
ATOM     13  C   UNL     1      29.223  38.646   9.064  1.00  0.00     0.145 C 
ATOM     14  C   UNL     1      27.984  38.028   9.748  1.00  0.00     0.142 C 
BRANCH  10  15
ATOM     15  O   UNL     1      29.243  35.756   6.856  1.00  0.00    -0.357 OA
ATOM     16  H   UNL     1      29.523  35.262   7.649  1.00  0.00     0.214 HD
ENDBRANCH  10  15
BRANCH  10  17
ATOM     17  C   UNL     1      28.563  37.768   5.915  1.00  0.00     0.364 C 
ATOM     18  O   UNL     1      29.440  38.593   5.553  1.00  0.00    -0.246 OA
BRANCH  17  19
ATOM     19  O   UNL     1      27.479  37.593   5.068  1.00  0.00    -0.477 OA
ATOM     20  H   UNL     1      27.499  37.760   4.069  1.00  0.00     0.296 HD
ENDBRANCH  17  19
ENDBRANCH  10  17
BRANCH  13  21
ATOM     21  O   UNL     1      30.187  38.879  10.045  1.00  0.00    -0.391 OA
ATOM     22  H   UNL     1      30.082  39.787  10.433  1.00  0.00     0.211 HD
ENDBRANCH  13  21
BRANCH  14  23
ATOM     23  N   UNL     1      27.468  38.934  10.740  1.00  0.00    -0.348 N 
ATOM     24  C   UNL     1      27.775  38.776  12.110  1.00  0.00     0.217 C 
ATOM     25  H   UNL     1      26.860  39.715  10.441  1.00  0.00     0.163 HD
ATOM     26  C   UNL     1      27.186  39.772  13.054  1.00  0.00     0.114 C 
ATOM     27  O   UNL     1      28.503  37.862  12.549  1.00  0.00    -0.275 OA
ENDBRANCH  14  23
ENDBRANCH   8   9
BRANCH   8  28
ATOM     28  O   UNL     1      25.061  38.240   9.956  1.00  0.00    -0.388 OA
ATOM     29  H   UNL     1      24.440  38.705   9.339  1.00  0.00     0.211 HD
ENDBRANCH   8  28
ENDBRANCH   7   8
BRANCH   7  30
ATOM     30  O   UNL     1      25.224  38.033   7.068  1.00  0.00    -0.388 OA
ATOM     31  H   UNL     1      26.175  38.229   7.307  1.00  0.00     0.211 HD
ENDBRANCH   7  30
ENDBRANCH   6   7
ENDBRANCH   3   6
ENDBRANCH   1   2
BRANCH   1  32
ATOM     32  C   UNL     1      21.167  35.705  11.904  1.00  0.00     0.294 C 
BRANCH  32  33
ATOM     33  C   UNL     1      22.182  34.669  12.201  1.00  0.00     0.120 A 
ATOM     34  C   UNL     1      21.871  33.368  12.606  1.00  0.00     0.138 A 
ATOM     35  N   UNL     1      23.521  34.687  12.157  1.00  0.00    -0.132 NA
ATOM     36  N   UNL     1      22.992  32.656  12.788  1.00  0.00    -0.252 N 
ATOM     37  N   UNL     1      24.003  33.507  12.503  1.00  0.00    -0.067 NA
BRANCH  36  38
ATOM     38  C   UNL     1      23.156  31.269  13.181  1.00  0.00     0.150 C 
BRANCH  38  39
ATOM     39  C   UNL     1      23.399  31.197  14.694  1.00  0.00     0.022 C 
ATOM     40  C   UNL     1      22.131  31.094  15.456  1.00  0.00     0.011 C 
BRANCH  39  41
ATOM     41  C   UNL     1      24.519  30.304  15.027  1.00  0.00     0.089 C 
BRANCH  41  42
ATOM     42  N   UNL     1      25.790  30.958  15.055  1.00  0.00    -0.299 NA
ATOM     43  C   UNL     1      25.633  32.341  15.581  1.00  0.00     0.106 C 
ATOM     44  C   UNL     1      26.653  30.319  16.044  1.00  0.00     0.106 C 
ATOM     45  C   UNL     1      26.950  33.002  15.779  1.00  0.00     0.132 C 
ATOM     46  C   UNL     1      28.072  30.747  15.639  1.00  0.00     0.132 C 
ATOM     47  N   UNL     1      28.107  32.181  15.605  1.00  0.00    -0.369 N 
BRANCH  47  48
ATOM     48  C   UNL     1      29.370  32.802  15.393  1.00  0.00     0.037 A 
ATOM     49  C   UNL     1      30.479  32.322  16.053  1.00  0.00     0.027 A 
ATOM     50  C   UNL     1      29.496  33.888  14.538  1.00  0.00     0.027 A 
ATOM     51  C   UNL     1      31.695  32.932  15.850  1.00  0.00     0.022 A 
ATOM     52  C   UNL     1      30.713  34.488  14.345  1.00  0.00     0.022 A 
ATOM     53  C   UNL     1      31.824  33.999  15.012  1.00  0.00     0.041 A 
ATOM     54  Cl  UNL     1      33.363  34.779  14.761  1.00  0.00    -0.084 Cl
ENDBRANCH  47  48
ENDBRANCH  41  42
ENDBRANCH  39  41
ENDBRANCH  38  39
ENDBRANCH  36  38
ENDBRANCH  32  33
ENDBRANCH   1  32
TORSDOF 19
BEGIN_RES LYS A 131
REMARK  4 active torsions:
REMARK  status: ('A' for Active; 'I' for Inactive)
REMARK    1  A    between atoms: CA   and  CB  
REMARK    2  A    between atoms: CB   and  CG  
REMARK    3  A    between atoms: CG   and  CD  
REMARK    4  A    between atoms: CD   and  CE  
ROOT
ATOM      1  CA  LYS A 131      29.867  25.555  16.977  1.00 20.52     0.186 C 
ENDROOT
BRANCH   1   2
ATOM      2  CB  LYS A 131      28.345  25.722  17.026  1.00 20.94     0.034 C 
BRANCH   2   3
ATOM      3  CG  LYS A 131      27.599  24.424  16.757  1.00 22.96     0.005 C 
BRANCH   3   4
ATOM      4  CD  LYS A 131      27.109  23.780  18.024  1.00 24.33     0.041 C 
BRANCH   4   5
ATOM      5  CE  LYS A 131      25.607  24.010  18.164  1.00 26.91     0.338 C 
ATOM      6  NZ  LYS A 131      25.032  24.477  16.880  1.00 27.40     0.618 N 
ENDBRANCH   4   5
ENDBRANCH   3   4
ENDBRANCH   2   3
ENDBRANCH   1   2
END_RES LYS A 131
BEGIN_RES LYS A 135
REMARK  4 active torsions:
REMARK  status: ('A' for Active; 'I' for Inactive)
REMARK    5  A    between atoms: CA   and  CB  
REMARK    6  A    between atoms: CB   and  CG  
REMARK    7  A    between atoms: CG   and  CD  
REMARK    8  A    between atoms: CD   and  CE  
ROOT
ATOM      7  CA  LYS A 135      33.193  34.663   9.290  1.00 25.02     0.186 C 
ENDROOT
BRANCH   7   8
ATOM      8  CB  LYS A 135      32.060  35.360  10.034  1.00 26.63     0.034 C 
BRANCH   8   9
ATOM      9  CG  LYS A 135      30.708  34.739   9.792  1.00 29.45     0.005 C 
BRANCH   9  10
ATOM     10  CD  LYS A 135      29.782  34.992  10.971  1.00 32.00     0.041 C 
BRANCH  10  11
ATOM     11  CE  LYS A 135      28.349  34.660  10.604  1.00 34.25     0.338 C 
ATOM     12  NZ  LYS A 135      28.295  33.720   9.451  1.00 35.99     0.618 N 
ENDBRANCH  10  11
ENDBRANCH   9  10
ENDBRANCH   8   9
ENDBRANCH   7   8
END_RES LYS A 135
