REMARK VINA RESULT:    -5.190      7.229     11.938
REMARK INTER + INTRA:         -13.995
REMARK INTER:                  -9.751
REMARK INTRA:                  -4.243
REMARK UNBOUND:                -5.012
REMARK SMILES CC(=O)N[C@@H]1[C@@H](O)C[C@](O)(C(=O)O)O[C@H]1C(O)[C@H](O)CNC(=O)OCc1cn(-c2ccc(C)cc2)nn1
REMARK SMILES IDX 20 1 18 2 16 3 15 4 9 5 8 6 14 7 6 8 5 9 10 10 11 12 12 13
REMARK SMILES IDX 13 14 7 16 4 18 2 19 1 21 3 22 17 23 19 25 21 27 22 28 23 30
REMARK SMILES IDX 24 31 25 32 26 33 27 34 37 35 28 36 36 37 29 38 30 39 35 40
REMARK SMILES IDX 31 41 34 42 32 43 33 44
REMARK H PARENT 10 11 13 15 7 17 4 20 17 24 19 26 21 29
REMARK Flexibility Score: inf
ROOT
ATOM      1  C   UNL     1      16.943  35.697   8.215  1.00  0.00     0.154 C 
ENDROOT
BRANCH   1   2
ATOM      2  C   UNL     1      16.442  34.329   8.430  1.00  0.00     0.165 C 
BRANCH   2   3
ATOM      3  C   UNL     1      16.703  33.278   7.399  1.00  0.00     0.176 C 
BRANCH   3   4
ATOM      4  C   UNL     1      17.168  31.946   7.895  1.00  0.00     0.178 C 
ATOM      5  C   UNL     1      16.259  30.502   6.289  1.00  0.00     0.269 C 
ATOM      6  C   UNL     1      15.477  29.705   7.318  1.00  0.00     0.112 C 
ATOM      7  O   UNL     1      17.368  31.111   6.785  1.00  0.00    -0.332 OA
ATOM      8  C   UNL     1      15.224  30.583   8.533  1.00  0.00     0.145 C 
ATOM      9  C   UNL     1      16.465  31.271   9.000  1.00  0.00     0.142 C 
BRANCH   5  10
ATOM     10  O   UNL     1      15.362  31.332   5.662  1.00  0.00    -0.357 OA
ATOM     11  H   UNL     1      14.509  30.898   5.402  1.00  0.00     0.214 HD
ENDBRANCH   5  10
BRANCH   5  12
ATOM     12  C   UNL     1      16.731  29.492   5.290  1.00  0.00     0.364 C 
ATOM     13  O   UNL     1      16.571  29.656   4.044  1.00  0.00    -0.246 OA
BRANCH  12  14
ATOM     14  O   UNL     1      17.358  28.339   5.717  1.00  0.00    -0.477 OA
ATOM     15  H   UNL     1      16.873  27.443   5.622  1.00  0.00     0.296 HD
ENDBRANCH  12  14
ENDBRANCH   5  12
BRANCH   8  16
ATOM     16  O   UNL     1      14.344  31.563   8.071  1.00  0.00    -0.391 OA
ATOM     17  H   UNL     1      14.753  32.116   7.356  1.00  0.00     0.211 HD
ENDBRANCH   8  16
BRANCH   9  18
ATOM     18  N   UNL     1      17.426  30.381   9.625  1.00  0.00    -0.348 N 
ATOM     19  C   UNL     1      17.907  30.555  10.933  1.00  0.00     0.217 C 
ATOM     20  H   UNL     1      17.747  29.586   9.034  1.00  0.00     0.163 HD
ATOM     21  C   UNL     1      18.882  29.668  11.595  1.00  0.00     0.114 C 
ATOM     22  O   UNL     1      17.459  31.537  11.554  1.00  0.00    -0.275 OA
ENDBRANCH   9  18
ENDBRANCH   3   4
BRANCH   3  23
ATOM     23  O   UNL     1      17.933  33.744   6.740  1.00  0.00    -0.388 OA
ATOM     24  H   UNL     1      18.590  33.913   7.467  1.00  0.00     0.211 HD
ENDBRANCH   3  23
ENDBRANCH   2   3
BRANCH   2  25
ATOM     25  O   UNL     1      15.150  34.312   8.933  1.00  0.00    -0.388 OA
ATOM     26  H   UNL     1      15.105  34.721   9.851  1.00  0.00     0.211 HD
ENDBRANCH   2  25
ENDBRANCH   1   2
BRANCH   1  27
ATOM     27  N   UNL     1      17.981  36.129   9.154  1.00  0.00    -0.319 N 
ATOM     28  C   UNL     1      19.337  36.227   8.771  1.00  0.00     0.407 C 
ATOM     29  H   UNL     1      17.763  36.377  10.154  1.00  0.00     0.167 HD
ATOM     30  O   UNL     1      19.673  35.942   7.617  1.00  0.00    -0.225 OA
BRANCH  28  31
ATOM     31  O   UNL     1      20.342  36.638   9.649  1.00  0.00    -0.443 OA
BRANCH  31  32
ATOM     32  C   UNL     1      20.831  35.732  10.611  1.00  0.00     0.294 C 
BRANCH  32  33
ATOM     33  C   UNL     1      22.287  35.568  10.561  1.00  0.00     0.121 A 
ATOM     34  C   UNL     1      23.041  35.763   9.423  1.00  0.00     0.144 A 
ATOM     35  N   UNL     1      23.178  35.220  11.511  1.00  0.00    -0.131 NA
ATOM     36  N   UNL     1      24.344  35.536   9.692  1.00  0.00    -0.220 N 
ATOM     37  N   UNL     1      24.389  35.209  10.966  1.00  0.00    -0.062 NA
BRANCH  36  38
ATOM     38  C   UNL     1      25.471  35.616   8.822  1.00  0.00     0.066 A 
ATOM     39  C   UNL     1      26.399  34.596   8.764  1.00  0.00     0.029 A 
ATOM     40  C   UNL     1      25.690  36.706   8.005  1.00  0.00     0.029 A 
ATOM     41  C   UNL     1      27.496  34.661   7.927  1.00  0.00     0.005 A 
ATOM     42  C   UNL     1      26.783  36.777   7.167  1.00  0.00     0.005 A 
ATOM     43  C   UNL     1      27.705  35.754   7.113  1.00  0.00    -0.051 A 
ATOM     44  C   UNL     1      28.870  35.870   6.197  1.00  0.00     0.044 C 
ENDBRANCH  36  38
ENDBRANCH  32  33
ENDBRANCH  31  32
ENDBRANCH  28  31
ENDBRANCH   1  27
TORSDOF 15
BEGIN_RES LYS A 131
REMARK  4 active torsions:
REMARK  status: ('A' for Active; 'I' for Inactive)
REMARK    1  A    between atoms: CA   and  CB  
REMARK    2  A    between atoms: CB   and  CG  
REMARK    3  A    between atoms: CG   and  CD  
REMARK    4  A    between atoms: CD   and  CE  
ROOT
ATOM      1  CA  LYS A 131      29.867  25.555  16.977  1.00 20.52     0.186 C 
ENDROOT
BRANCH   1   2
ATOM      2  CB  LYS A 131      28.345  25.722  17.026  1.00 20.94     0.034 C 
BRANCH   2   3
ATOM      3  CG  LYS A 131      27.600  24.407  16.856  1.00 22.96     0.005 C 
BRANCH   3   4
ATOM      4  CD  LYS A 131      26.155  24.519  17.253  1.00 24.33     0.041 C 
BRANCH   4   5
ATOM      5  CE  LYS A 131      26.056  25.127  18.649  1.00 26.91     0.338 C 
ATOM      6  NZ  LYS A 131      25.572  24.119  19.621  1.00 27.40     0.618 N 
ENDBRANCH   4   5
ENDBRANCH   3   4
ENDBRANCH   2   3
ENDBRANCH   1   2
END_RES LYS A 131
BEGIN_RES LYS A 135
REMARK  4 active torsions:
REMARK  status: ('A' for Active; 'I' for Inactive)
REMARK    5  A    between atoms: CA   and  CB  
REMARK    6  A    between atoms: CB   and  CG  
REMARK    7  A    between atoms: CG   and  CD  
REMARK    8  A    between atoms: CD   and  CE  
ROOT
ATOM      7  CA  LYS A 135      33.193  34.663   9.290  1.00 25.02     0.186 C 
ENDROOT
BRANCH   7   8
ATOM      8  CB  LYS A 135      32.060  35.360  10.034  1.00 26.63     0.034 C 
BRANCH   8   9
ATOM      9  CG  LYS A 135      30.688  34.939   9.574  1.00 29.45     0.005 C 
BRANCH   9  10
ATOM     10  CD  LYS A 135      29.743  34.806  10.758  1.00 32.00     0.041 C 
BRANCH  10  11
ATOM     11  CE  LYS A 135      30.420  35.264  12.035  1.00 34.25     0.338 C 
ATOM     12  NZ  LYS A 135      30.123  34.338  13.162  1.00 35.99     0.618 N 
ENDBRANCH  10  11
ENDBRANCH   9  10
ENDBRANCH   8   9
ENDBRANCH   7   8
END_RES LYS A 135
