REMARK VINA RESULT:    -4.939      0.000      0.000
REMARK INTER + INTRA:         -14.335
REMARK INTER:                  -8.842
REMARK INTRA:                  -5.492
REMARK UNBOUND:                -5.786
REMARK SMILES CC(=O)N[C@@H]1[C@@H](O)C[C@](O)(C(=O)O)O[C@H]1C(O)[C@H](O)CNC(=O)OCc1cn(C2CCN(C)CC2)nn1
REMARK SMILES IDX 20 1 18 2 16 3 15 4 9 5 8 6 14 7 6 8 5 9 10 10 11 12 12 13
REMARK SMILES IDX 13 14 7 16 4 18 2 19 1 21 3 22 17 23 19 25 21 27 22 28 23 30
REMARK SMILES IDX 24 31 25 32 26 33 27 34 37 35 28 36 36 37 29 38 30 39 35 40
REMARK SMILES IDX 31 41 34 42 32 43 33 44
REMARK H PARENT 10 11 13 15 7 17 4 20 17 24 19 26 21 29
REMARK Flexibility Score: inf
ROOT
ATOM      1  C   UNL     1      26.015  28.585  19.775  1.00  0.00     0.154 C 
ENDROOT
BRANCH   1   2
ATOM      2  C   UNL     1      27.026  28.655  20.871  1.00  0.00     0.165 C 
BRANCH   2   3
ATOM      3  C   UNL     1      27.853  27.392  20.982  1.00  0.00     0.176 C 
BRANCH   3   4
ATOM      4  C   UNL     1      29.267  27.744  21.394  1.00  0.00     0.178 C 
ATOM      5  C   UNL     1      31.493  27.750  20.690  1.00  0.00     0.269 C 
ATOM      6  C   UNL     1      31.937  27.190  22.006  1.00  0.00     0.112 C 
ATOM      7  O   UNL     1      30.171  27.600  20.390  1.00  0.00    -0.332 OA
ATOM      8  C   UNL     1      30.962  27.521  23.104  1.00  0.00     0.145 C 
ATOM      9  C   UNL     1      29.598  27.005  22.652  1.00  0.00     0.142 C 
BRANCH   5  10
ATOM     10  O   UNL     1      32.311  27.166  19.682  1.00  0.00    -0.357 OA
ATOM     11  H   UNL     1      32.201  26.184  19.660  1.00  0.00     0.214 HD
ENDBRANCH   5  10
BRANCH   5  12
ATOM     12  C   UNL     1      31.785  29.207  20.683  1.00  0.00     0.364 C 
ATOM     13  O   UNL     1      32.734  29.657  21.373  1.00  0.00    -0.246 OA
BRANCH  12  14
ATOM     14  O   UNL     1      31.071  30.145  19.953  1.00  0.00    -0.477 OA
ATOM     15  H   UNL     1      30.347  30.730  20.369  1.00  0.00     0.296 HD
ENDBRANCH  12  14
ENDBRANCH   5  12
BRANCH   8  16
ATOM     16  O   UNL     1      31.313  26.905  24.308  1.00  0.00    -0.391 OA
ATOM     17  H   UNL     1      31.234  27.512  25.078  1.00  0.00     0.211 HD
ENDBRANCH   8  16
BRANCH   9  18
ATOM     18  N   UNL     1      28.677  27.405  23.723  1.00  0.00    -0.348 N 
ATOM     19  C   UNL     1      27.922  26.467  24.455  1.00  0.00     0.217 C 
ATOM     20  H   UNL     1      28.609  28.413  23.918  1.00  0.00     0.163 HD
ATOM     21  C   UNL     1      26.983  26.895  25.550  1.00  0.00     0.114 C 
ATOM     22  O   UNL     1      28.048  25.247  24.173  1.00  0.00    -0.275 OA
ENDBRANCH   9  18
ENDBRANCH   3   4
BRANCH   3  23
ATOM     23  O   UNL     1      27.801  26.722  19.781  1.00  0.00    -0.388 OA
ATOM     24  H   UNL     1      27.638  27.351  19.034  1.00  0.00     0.211 HD
ENDBRANCH   3  23
ENDBRANCH   2   3
BRANCH   2  25
ATOM     25  O   UNL     1      26.334  28.818  22.094  1.00  0.00    -0.388 OA
ATOM     26  H   UNL     1      26.834  28.394  22.841  1.00  0.00     0.211 HD
ENDBRANCH   2  25
ENDBRANCH   1   2
BRANCH   1  27
ATOM     27  N   UNL     1      26.388  29.525  18.740  1.00  0.00    -0.319 N 
ATOM     28  C   UNL     1      26.964  29.161  17.494  1.00  0.00     0.407 C 
ATOM     29  H   UNL     1      26.245  30.573  18.860  1.00  0.00     0.167 HD
ATOM     30  O   UNL     1      27.172  27.963  17.249  1.00  0.00    -0.225 OA
BRANCH  28  31
ATOM     31  O   UNL     1      27.307  30.101  16.531  1.00  0.00    -0.443 OA
BRANCH  31  32
ATOM     32  C   UNL     1      28.509  29.975  15.797  1.00  0.00     0.294 C 
BRANCH  32  33
ATOM     33  C   UNL     1      29.496  31.000  16.225  1.00  0.00     0.120 A 
ATOM     34  C   UNL     1      30.210  31.866  15.447  1.00  0.00     0.138 A 
ATOM     35  N   UNL     1      29.867  31.256  17.493  1.00  0.00    -0.132 NA
ATOM     36  N   UNL     1      30.991  32.622  16.237  1.00  0.00    -0.249 N 
ATOM     37  N   UNL     1      30.752  32.219  17.488  1.00  0.00    -0.067 NA
BRANCH  36  38
ATOM     38  C   UNL     1      31.898  33.659  15.798  1.00  0.00     0.111 C 
ATOM     39  C   UNL     1      32.139  34.680  16.887  1.00  0.00     0.043 C 
ATOM     40  C   UNL     1      31.439  34.285  14.516  1.00  0.00     0.043 C 
ATOM     41  C   UNL     1      31.065  35.741  16.933  1.00  0.00     0.086 C 
ATOM     42  C   UNL     1      30.348  35.295  14.686  1.00  0.00     0.086 C 
ATOM     43  N   UNL     1      30.757  36.279  15.641  1.00  0.00    -0.306 NA
ATOM     44  C   UNL     1      31.814  37.080  15.095  1.00  0.00     0.105 C 
ENDBRANCH  36  38
ENDBRANCH  32  33
ENDBRANCH  31  32
ENDBRANCH  28  31
ENDBRANCH   1  27
TORSDOF 15
BEGIN_RES LYS A 131
REMARK  4 active torsions:
REMARK  status: ('A' for Active; 'I' for Inactive)
REMARK    1  A    between atoms: CA   and  CB  
REMARK    2  A    between atoms: CB   and  CG  
REMARK    3  A    between atoms: CG   and  CD  
REMARK    4  A    between atoms: CD   and  CE  
ROOT
ATOM      1  CA  LYS A 131      29.867  25.555  16.977  1.00 20.52     0.186 C 
ENDROOT
BRANCH   1   2
ATOM      2  CB  LYS A 131      28.345  25.722  17.026  1.00 20.94     0.034 C 
BRANCH   2   3
ATOM      3  CG  LYS A 131      27.602  24.399  16.921  1.00 22.96     0.005 C 
BRANCH   3   4
ATOM      4  CD  LYS A 131      26.166  24.520  17.352  1.00 24.33     0.041 C 
BRANCH   4   5
ATOM      5  CE  LYS A 131      25.881  23.510  18.458  1.00 26.91     0.338 C 
ATOM      6  NZ  LYS A 131      25.448  24.203  19.695  1.00 27.40     0.618 N 
ENDBRANCH   4   5
ENDBRANCH   3   4
ENDBRANCH   2   3
ENDBRANCH   1   2
END_RES LYS A 131
BEGIN_RES LYS A 135
REMARK  4 active torsions:
REMARK  status: ('A' for Active; 'I' for Inactive)
REMARK    5  A    between atoms: CA   and  CB  
REMARK    6  A    between atoms: CB   and  CG  
REMARK    7  A    between atoms: CG   and  CD  
REMARK    8  A    between atoms: CD   and  CE  
ROOT
ATOM      7  CA  LYS A 135      33.193  34.663   9.290  1.00 25.02     0.186 C 
ENDROOT
BRANCH   7   8
ATOM      8  CB  LYS A 135      32.060  35.360  10.034  1.00 26.63     0.034 C 
BRANCH   8   9
ATOM      9  CG  LYS A 135      30.722  34.690   9.858  1.00 29.45     0.005 C 
BRANCH   9  10
ATOM     10  CD  LYS A 135      30.309  34.691   8.395  1.00 32.00     0.041 C 
BRANCH  10  11
ATOM     11  CE  LYS A 135      28.809  34.506   8.264  1.00 34.25     0.338 C 
ATOM     12  NZ  LYS A 135      28.223  33.975   9.526  1.00 35.99     0.618 N 
ENDBRANCH  10  11
ENDBRANCH   9  10
ENDBRANCH   8   9
ENDBRANCH   7   8
END_RES LYS A 135
