REMARK VINA RESULT:    -4.631      4.888      8.730
REMARK INTER + INTRA:         -14.385
REMARK INTER:                  -8.421
REMARK INTRA:                  -5.964
REMARK UNBOUND:                -5.964
REMARK SMILES CC(=O)N[C@@H]1[C@@H](O)C[C@](O)(C(=O)O)O[C@H]1C(O)[C@H](O)CNC(=O)OCc1cn(-c2ccc(S(N)(=O)=O)cc2)nn1
REMARK SMILES IDX 21 1 22 2 23 3 20 5 18 6 16 7 15 8 9 9 8 10 14 11 6 12 5 13
REMARK SMILES IDX 10 14 11 16 12 17 13 18 7 20 4 22 2 23 1 25 3 26 17 27 19 29
REMARK SMILES IDX 24 31 25 32 26 33 27 34 40 35 28 36 39 37 29 38 30 39 38 40
REMARK SMILES IDX 31 41 37 42 32 43 33 44 35 45 36 46 34 47
REMARK H PARENT 21 4 10 15 13 19 7 21 4 24 17 28 19 30 34 48 34 49
REMARK Flexibility Score: inf
ROOT
ATOM      1  N   UNL     1      29.002  30.677  15.728  1.00  0.00    -0.319 N 
ATOM      2  C   UNL     1      30.175  31.270  16.216  1.00  0.00     0.407 C 
ATOM      3  O   UNL     1      30.388  31.351  17.437  1.00  0.00    -0.225 OA
ATOM      4  H   UNL     1      28.882  30.637  14.679  1.00  0.00     0.167 HD
ENDROOT
BRANCH   1   5
ATOM      5  C   UNL     1      28.001  30.146  16.585  1.00  0.00     0.154 C 
BRANCH   5   6
ATOM      6  C   UNL     1      26.666  29.926  15.885  1.00  0.00     0.165 C 
BRANCH   6   7
ATOM      7  C   UNL     1      26.122  31.263  15.472  1.00  0.00     0.176 C 
BRANCH   7   8
ATOM      8  C   UNL     1      24.752  31.229  14.910  1.00  0.00     0.178 C 
ATOM      9  C   UNL     1      23.283  29.716  13.919  1.00  0.00     0.269 C 
ATOM     10  C   UNL     1      22.353  30.870  14.207  1.00  0.00     0.112 C 
ATOM     11  O   UNL     1      24.572  29.956  14.306  1.00  0.00    -0.332 OA
ATOM     12  C   UNL     1      22.879  32.187  13.729  1.00  0.00     0.145 C 
ATOM     13  C   UNL     1      24.381  32.219  13.871  1.00  0.00     0.142 C 
BRANCH   9  14
ATOM     14  O   UNL     1      23.202  29.327  12.561  1.00  0.00    -0.357 OA
ATOM     15  H   UNL     1      22.466  28.678  12.426  1.00  0.00     0.214 HD
ENDBRANCH   9  14
BRANCH   9  16
ATOM     16  C   UNL     1      22.781  28.551  14.695  1.00  0.00     0.364 C 
ATOM     17  O   UNL     1      21.797  27.916  14.238  1.00  0.00    -0.246 OA
BRANCH  16  18
ATOM     18  O   UNL     1      23.329  28.120  15.888  1.00  0.00    -0.477 OA
ATOM     19  H   UNL     1      24.249  27.687  15.915  1.00  0.00     0.296 HD
ENDBRANCH  16  18
ENDBRANCH   9  16
BRANCH  12  20
ATOM     20  O   UNL     1      22.455  32.379  12.421  1.00  0.00    -0.391 OA
ATOM     21  H   UNL     1      22.318  33.355  12.311  1.00  0.00     0.211 HD
ENDBRANCH  12  20
BRANCH  13  22
ATOM     22  N   UNL     1      24.920  33.523  13.960  1.00  0.00    -0.348 N 
ATOM     23  C   UNL     1      24.521  34.446  14.953  1.00  0.00     0.217 C 
ATOM     24  H   UNL     1      25.655  33.833  13.295  1.00  0.00     0.163 HD
ATOM     25  C   UNL     1      25.104  35.830  15.033  1.00  0.00     0.114 C 
ATOM     26  O   UNL     1      23.659  34.081  15.773  1.00  0.00    -0.275 OA
ENDBRANCH  13  22
ENDBRANCH   7   8
BRANCH   7  27
ATOM     27  O   UNL     1      26.451  32.319  16.279  1.00  0.00    -0.388 OA
ATOM     28  H   UNL     1      27.036  32.935  15.784  1.00  0.00     0.211 HD
ENDBRANCH   7  27
ENDBRANCH   6   7
BRANCH   6  29
ATOM     29  O   UNL     1      25.856  29.180  16.698  1.00  0.00    -0.388 OA
ATOM     30  H   UNL     1      26.337  28.934  17.536  1.00  0.00     0.211 HD
ENDBRANCH   6  29
ENDBRANCH   5   6
ENDBRANCH   1   5
BRANCH   2  31
ATOM     31  O   UNL     1      31.161  31.797  15.368  1.00  0.00    -0.443 OA
BRANCH  31  32
ATOM     32  C   UNL     1      31.273  33.170  15.162  1.00  0.00     0.294 C 
BRANCH  32  33
ATOM     33  C   UNL     1      30.056  33.745  14.547  1.00  0.00     0.121 A 
ATOM     34  C   UNL     1      29.898  34.422  13.361  1.00  0.00     0.144 A 
ATOM     35  N   UNL     1      28.817  33.684  15.098  1.00  0.00    -0.131 NA
ATOM     36  N   UNL     1      28.604  34.756  13.207  1.00  0.00    -0.220 N 
ATOM     37  N   UNL     1      27.983  34.295  14.274  1.00  0.00    -0.062 NA
BRANCH  36  38
ATOM     38  C   UNL     1      27.988  35.461  12.134  1.00  0.00     0.066 A 
ATOM     39  C   UNL     1      28.472  36.672  11.688  1.00  0.00     0.030 A 
ATOM     40  C   UNL     1      26.871  34.957  11.493  1.00  0.00     0.030 A 
ATOM     41  C   UNL     1      27.888  37.366  10.652  1.00  0.00     0.024 A 
ATOM     42  C   UNL     1      26.283  35.649  10.456  1.00  0.00     0.024 A 
ATOM     43  C   UNL     1      26.758  36.861  10.001  1.00  0.00     0.082 A 
BRANCH  43  44
ATOM     44  S   UNL     1      26.018  37.746   8.687  1.00  0.00     0.238 S 
ATOM     45  O   UNL     1      25.757  36.764   7.580  1.00  0.00    -0.207 OA
ATOM     46  O   UNL     1      24.668  38.249   9.146  1.00  0.00    -0.207 OA
BRANCH  44  47
ATOM     47  N   UNL     1      26.991  39.038   8.124  1.00  0.00    -0.225 NA
ATOM     48  H   UNL     1      27.431  38.887   7.209  1.00  0.00     0.137 HD
ATOM     49  H   UNL     1      26.503  39.959   8.186  1.00  0.00     0.137 HD
ENDBRANCH  44  47
ENDBRANCH  43  44
ENDBRANCH  36  38
ENDBRANCH  32  33
ENDBRANCH  31  32
ENDBRANCH   2  31
TORSDOF 17
BEGIN_RES LYS A 131
REMARK  4 active torsions:
REMARK  status: ('A' for Active; 'I' for Inactive)
REMARK    1  A    between atoms: CA   and  CB  
REMARK    2  A    between atoms: CB   and  CG  
REMARK    3  A    between atoms: CG   and  CD  
REMARK    4  A    between atoms: CD   and  CE  
ROOT
ATOM      1  CA  LYS A 131      29.867  25.555  16.977  1.00 20.52     0.186 C 
ENDROOT
BRANCH   1   2
ATOM      2  CB  LYS A 131      28.345  25.722  17.026  1.00 20.94     0.034 C 
BRANCH   2   3
ATOM      3  CG  LYS A 131      27.600  24.413  16.814  1.00 22.96     0.005 C 
BRANCH   3   4
ATOM      4  CD  LYS A 131      26.744  24.051  17.996  1.00 24.33     0.041 C 
BRANCH   4   5
ATOM      5  CE  LYS A 131      25.445  23.418  17.509  1.00 26.91     0.338 C 
ATOM      6  NZ  LYS A 131      24.586  24.434  16.855  1.00 27.40     0.618 N 
ENDBRANCH   4   5
ENDBRANCH   3   4
ENDBRANCH   2   3
ENDBRANCH   1   2
END_RES LYS A 131
BEGIN_RES LYS A 135
REMARK  4 active torsions:
REMARK  status: ('A' for Active; 'I' for Inactive)
REMARK    5  A    between atoms: CA   and  CB  
REMARK    6  A    between atoms: CB   and  CG  
REMARK    7  A    between atoms: CG   and  CD  
REMARK    8  A    between atoms: CD   and  CE  
ROOT
ATOM      7  CA  LYS A 135      33.193  34.663   9.290  1.00 25.02     0.186 C 
ENDROOT
BRANCH   7   8
ATOM      8  CB  LYS A 135      32.060  35.360  10.034  1.00 26.63     0.034 C 
BRANCH   8   9
ATOM      9  CG  LYS A 135      30.824  35.564   9.196  1.00 29.45     0.005 C 
BRANCH   9  10
ATOM     10  CD  LYS A 135      30.091  34.247   8.992  1.00 32.00     0.041 C 
BRANCH  10  11
ATOM     11  CE  LYS A 135      28.794  34.471   8.239  1.00 34.25     0.338 C 
ATOM     12  NZ  LYS A 135      28.986  35.422   7.110  1.00 35.99     0.618 N 
ENDBRANCH  10  11
ENDBRANCH   9  10
ENDBRANCH   8   9
ENDBRANCH   7   8
END_RES LYS A 135
