REMARK VINA RESULT:    -3.959      2.922      6.383
REMARK INTER + INTRA:         -13.884
REMARK INTER:                  -9.364
REMARK INTRA:                  -4.520
REMARK UNBOUND:                -5.875
REMARK SMILES CC[N+](C)(CC)CCCn1cc(COC(=O)NC[C@@H](O)C(O)[C@@H]2O[C@@](O)(C(=O)O)C[C@H](O)[C@H]2NC(C)=O)nn1
REMARK SMILES IDX 14 1 15 2 17 3 16 5 18 6 19 7 21 8 23 9 25 10 30 11 24 12
REMARK SMILES IDX 31 13 33 14 26 15 27 17 28 18 29 19 32 21 34 23 35 24 36 26
REMARK SMILES IDX 37 27 22 28 20 30 13 32 12 33 11 34 38 35 10 36 39 37 9 38
REMARK SMILES IDX 8 39 7 40 3 41 4 42 2 43 1 44 5 45 6 46
REMARK H PARENT 17 4 26 16 29 20 32 22 34 25 22 29 20 31
REMARK Flexibility Score: inf
ROOT
ATOM      1  O   UNL     1      32.515  34.608  14.760  1.00  0.00    -0.443 OA
ENDROOT
BRANCH   1   2
ATOM      2  C   UNL     1      31.907  33.648  15.544  1.00  0.00     0.407 C 
ATOM      3  N   UNL     1      31.437  32.408  15.003  1.00  0.00    -0.319 N 
ATOM      4  H   UNL     1      31.587  32.270  13.998  1.00  0.00     0.167 HD
ATOM      5  O   UNL     1      31.763  33.873  16.768  1.00  0.00    -0.225 OA
BRANCH   3   6
ATOM      6  C   UNL     1      30.823  31.473  15.872  1.00  0.00     0.154 C 
BRANCH   6   7
ATOM      7  C   UNL     1      29.331  31.461  15.902  1.00  0.00     0.165 C 
BRANCH   7   8
ATOM      8  C   UNL     1      28.706  31.788  17.223  1.00  0.00     0.176 C 
BRANCH   8   9
ATOM      9  C   UNL     1      29.060  30.854  18.341  1.00  0.00     0.178 C 
ATOM     10  C   UNL     1      28.223  29.114  19.588  1.00  0.00     0.269 C 
ATOM     11  C   UNL     1      29.688  29.063  19.979  1.00  0.00     0.112 C 
ATOM     12  O   UNL     1      27.984  30.042  18.604  1.00  0.00    -0.332 OA
ATOM     13  C   UNL     1      30.149  30.397  20.479  1.00  0.00     0.145 C 
ATOM     14  C   UNL     1      29.555  31.494  19.591  1.00  0.00     0.142 C 
BRANCH  10  15
ATOM     15  O   UNL     1      27.504  29.492  20.737  1.00  0.00    -0.357 OA
ATOM     16  H   UNL     1      27.077  28.661  21.072  1.00  0.00     0.214 HD
ENDBRANCH  10  15
BRANCH  10  17
ATOM     17  C   UNL     1      27.772  27.777  19.172  1.00  0.00     0.364 C 
ATOM     18  O   UNL     1      26.988  27.644  18.191  1.00  0.00    -0.246 OA
BRANCH  17  19
ATOM     19  O   UNL     1      28.185  26.636  19.830  1.00  0.00    -0.477 OA
ATOM     20  H   UNL     1      27.583  25.839  19.918  1.00  0.00     0.296 HD
ENDBRANCH  17  19
ENDBRANCH  10  17
BRANCH  13  21
ATOM     21  O   UNL     1      29.716  30.555  21.803  1.00  0.00    -0.391 OA
ATOM     22  H   UNL     1      28.897  30.031  21.943  1.00  0.00     0.211 HD
ENDBRANCH  13  21
BRANCH  14  23
ATOM     23  N   UNL     1      30.683  32.395  19.332  1.00  0.00    -0.348 N 
ATOM     24  C   UNL     1      31.075  33.350  20.300  1.00  0.00     0.217 C 
ATOM     25  H   UNL     1      31.191  32.322  18.421  1.00  0.00     0.163 HD
ATOM     26  C   UNL     1      32.226  34.266  20.019  1.00  0.00     0.114 C 
ATOM     27  O   UNL     1      30.496  33.480  21.422  1.00  0.00    -0.275 OA
ENDBRANCH  14  23
ENDBRANCH   8   9
BRANCH   8  28
ATOM     28  O   UNL     1      29.035  33.108  17.565  1.00  0.00    -0.388 OA
ATOM     29  H   UNL     1      30.016  33.130  17.738  1.00  0.00     0.211 HD
ENDBRANCH   8  28
ENDBRANCH   7   8
BRANCH   7  30
ATOM     30  O   UNL     1      28.930  30.173  15.486  1.00  0.00    -0.388 OA
ATOM     31  H   UNL     1      29.319  29.464  16.036  1.00  0.00     0.211 HD
ENDBRANCH   7  30
ENDBRANCH   6   7
ENDBRANCH   3   6
ENDBRANCH   1   2
BRANCH   1  32
ATOM     32  C   UNL     1      32.005  34.855  13.457  1.00  0.00     0.294 C 
BRANCH  32  33
ATOM     33  C   UNL     1      30.919  35.859  13.522  1.00  0.00     0.120 A 
ATOM     34  C   UNL     1      29.755  35.951  12.792  1.00  0.00     0.138 A 
ATOM     35  N   UNL     1      30.882  36.922  14.355  1.00  0.00    -0.132 NA
ATOM     36  N   UNL     1      29.051  37.033  13.179  1.00  0.00    -0.252 N 
ATOM     37  N   UNL     1      29.771  37.593  14.129  1.00  0.00    -0.067 NA
BRANCH  36  38
ATOM     38  C   UNL     1      27.799  37.516  12.697  1.00  0.00     0.152 C 
BRANCH  38  39
ATOM     39  C   UNL     1      27.556  37.252  11.261  1.00  0.00     0.085 C 
BRANCH  39  40
ATOM     40  C   UNL     1      26.173  37.043  10.803  1.00  0.00     0.265 C 
BRANCH  40  41
ATOM     41  N   UNL     1      25.760  35.802  10.289  1.00  0.00    -0.326 N 
ATOM     42  C   UNL     1      24.344  35.586  10.160  1.00  0.00     0.334 C 
BRANCH  41  43
ATOM     43  C   UNL     1      26.268  35.751   8.903  1.00  0.00     0.260 C 
ATOM     44  C   UNL     1      27.017  34.519   8.571  1.00  0.00     0.071 C 
ENDBRANCH  41  43
BRANCH  41  45
ATOM     45  C   UNL     1      26.330  34.670  10.963  1.00  0.00     0.260 C 
ATOM     46  C   UNL     1      25.608  34.232  12.185  1.00  0.00     0.071 C 
ENDBRANCH  41  45
ENDBRANCH  40  41
ENDBRANCH  39  40
ENDBRANCH  38  39
ENDBRANCH  36  38
ENDBRANCH  32  33
ENDBRANCH   1  32
TORSDOF 20
BEGIN_RES LYS A 131
REMARK  4 active torsions:
REMARK  status: ('A' for Active; 'I' for Inactive)
REMARK    1  A    between atoms: CA   and  CB  
REMARK    2  A    between atoms: CB   and  CG  
REMARK    3  A    between atoms: CG   and  CD  
REMARK    4  A    between atoms: CD   and  CE  
ROOT
ATOM      1  CA  LYS A 131      29.867  25.555  16.977  1.00 20.52     0.186 C 
ENDROOT
BRANCH   1   2
ATOM      2  CB  LYS A 131      28.345  25.722  17.026  1.00 20.94     0.034 C 
BRANCH   2   3
ATOM      3  CG  LYS A 131      27.599  24.419  16.779  1.00 22.96     0.005 C 
BRANCH   3   4
ATOM      4  CD  LYS A 131      26.594  24.129  17.859  1.00 24.33     0.041 C 
BRANCH   4   5
ATOM      5  CE  LYS A 131      25.214  24.598  17.409  1.00 26.91     0.338 C 
ATOM      6  NZ  LYS A 131      24.154  23.887  18.162  1.00 27.40     0.618 N 
ENDBRANCH   4   5
ENDBRANCH   3   4
ENDBRANCH   2   3
ENDBRANCH   1   2
END_RES LYS A 131
BEGIN_RES LYS A 135
REMARK  4 active torsions:
REMARK  status: ('A' for Active; 'I' for Inactive)
REMARK    5  A    between atoms: CA   and  CB  
REMARK    6  A    between atoms: CB   and  CG  
REMARK    7  A    between atoms: CG   and  CD  
REMARK    8  A    between atoms: CD   and  CE  
ROOT
ATOM      7  CA  LYS A 135      33.193  34.663   9.290  1.00 25.02     0.186 C 
ENDROOT
BRANCH   7   8
ATOM      8  CB  LYS A 135      32.060  35.360  10.034  1.00 26.63     0.034 C 
BRANCH   8   9
ATOM      9  CG  LYS A 135      30.736  35.289   9.318  1.00 29.45     0.005 C 
BRANCH   9  10
ATOM     10  CD  LYS A 135      30.299  36.671   8.858  1.00 32.00     0.041 C 
BRANCH  10  11
ATOM     11  CE  LYS A 135      31.040  37.747   9.628  1.00 34.25     0.338 C 
ATOM     12  NZ  LYS A 135      31.492  38.840   8.723  1.00 35.99     0.618 N 
ENDBRANCH  10  11
ENDBRANCH   9  10
ENDBRANCH   8   9
ENDBRANCH   7   8
END_RES LYS A 135
