REMARK VINA RESULT:    -3.472      2.825      7.081
REMARK INTER + INTRA:         -13.979
REMARK INTER:                  -7.670
REMARK INTRA:                  -6.309
REMARK UNBOUND:                -7.158
REMARK SMILES CCN(CC)CCn1cc(COC(=O)NC[C@@H](O)C(O)[C@@H]2O[C@@](O)(C(=O)O)C[C@H](O)[C@H]2NC(C)=O)nn1
REMARK SMILES IDX 15 1 13 2 14 3 16 5 17 6 19 7 21 8 23 9 28 10 22 11 29 12
REMARK SMILES IDX 31 13 24 14 25 16 26 17 27 18 30 20 32 22 33 23 34 25 35 26
REMARK SMILES IDX 20 27 18 29 12 31 11 32 10 33 9 34 36 35 8 36 37 37 7 38
REMARK SMILES IDX 6 39 3 40 2 41 1 42 4 43 5 44
REMARK H PARENT 15 4 24 15 27 19 30 21 32 24 20 28 18 30
REMARK Flexibility Score: inf
ROOT
ATOM      1  N   UNL     1      26.036  32.329  15.009  1.00  0.00    -0.319 N 
ATOM      2  C   UNL     1      25.032  31.314  15.051  1.00  0.00     0.407 C 
ATOM      3  O   UNL     1      23.842  31.604  14.835  1.00  0.00    -0.225 OA
ATOM      4  H   UNL     1      27.004  32.015  15.200  1.00  0.00     0.167 HD
ENDROOT
BRANCH   1   5
ATOM      5  C   UNL     1      25.766  33.704  14.726  1.00  0.00     0.154 C 
BRANCH   5   6
ATOM      6  C   UNL     1      26.853  34.392  13.949  1.00  0.00     0.165 C 
BRANCH   6   7
ATOM      7  C   UNL     1      28.055  34.642  14.833  1.00  0.00     0.176 C 
BRANCH   7   8
ATOM      8  C   UNL     1      29.230  33.803  14.418  1.00  0.00     0.178 C 
ATOM      9  C   UNL     1      29.350  32.506  16.377  1.00  0.00     0.269 C 
ATOM     10  C   UNL     1      30.490  33.394  16.857  1.00  0.00     0.112 C 
ATOM     11  O   UNL     1      29.145  32.579  15.030  1.00  0.00    -0.332 OA
ATOM     12  C   UNL     1      31.360  33.677  15.628  1.00  0.00     0.145 C 
ATOM     13  C   UNL     1      30.535  34.470  14.679  1.00  0.00     0.142 C 
BRANCH   9  14
ATOM     14  O   UNL     1      28.240  32.798  17.166  1.00  0.00    -0.357 OA
ATOM     15  H   UNL     1      27.975  32.007  17.715  1.00  0.00     0.214 HD
ENDBRANCH   9  14
BRANCH   9  16
ATOM     16  C   UNL     1      29.741  31.091  16.671  1.00  0.00     0.364 C 
ATOM     17  O   UNL     1      30.714  30.804  17.401  1.00  0.00    -0.246 OA
BRANCH  16  18
ATOM     18  O   UNL     1      29.000  30.069  16.117  1.00  0.00    -0.477 OA
ATOM     19  H   UNL     1      28.931  29.904  15.117  1.00  0.00     0.296 HD
ENDBRANCH  16  18
ENDBRANCH   9  16
BRANCH  12  20
ATOM     20  O   UNL     1      32.500  34.351  16.066  1.00  0.00    -0.391 OA
ATOM     21  H   UNL     1      32.861  34.835  15.257  1.00  0.00     0.211 HD
ENDBRANCH  12  20
BRANCH  13  22
ATOM     22  N   UNL     1      31.244  34.824  13.464  1.00  0.00    -0.348 N 
ATOM     23  C   UNL     1      31.965  36.041  13.308  1.00  0.00     0.217 C 
ATOM     24  H   UNL     1      31.254  34.177  12.625  1.00  0.00     0.163 HD
ATOM     25  C   UNL     1      32.679  36.355  12.030  1.00  0.00     0.114 C 
ATOM     26  O   UNL     1      32.011  36.866  14.241  1.00  0.00    -0.275 OA
ENDBRANCH  13  22
ENDBRANCH   7   8
BRANCH   7  27
ATOM     27  O   UNL     1      28.318  36.017  14.693  1.00  0.00    -0.388 OA
ATOM     28  H   UNL     1      29.132  36.186  15.238  1.00  0.00     0.211 HD
ENDBRANCH   7  27
ENDBRANCH   6   7
BRANCH   6  29
ATOM     29  O   UNL     1      26.366  35.498  13.313  1.00  0.00    -0.388 OA
ATOM     30  H   UNL     1      26.460  35.393  12.334  1.00  0.00     0.211 HD
ENDBRANCH   6  29
ENDBRANCH   5   6
ENDBRANCH   1   5
BRANCH   2  31
ATOM     31  O   UNL     1      25.326  29.989  15.326  1.00  0.00    -0.443 OA
BRANCH  31  32
ATOM     32  C   UNL     1      24.796  29.316  16.460  1.00  0.00     0.294 C 
BRANCH  32  33
ATOM     33  C   UNL     1      25.869  29.230  17.483  1.00  0.00     0.120 A 
ATOM     34  C   UNL     1      26.330  28.028  18.018  1.00  0.00     0.138 A 
ATOM     35  N   UNL     1      26.588  30.187  18.085  1.00  0.00    -0.132 NA
ATOM     36  N   UNL     1      27.286  28.312  18.898  1.00  0.00    -0.251 N 
ATOM     37  N   UNL     1      27.433  29.619  18.929  1.00  0.00    -0.067 NA
BRANCH  36  38
ATOM     38  C   UNL     1      28.031  27.364  19.682  1.00  0.00     0.161 C 
BRANCH  38  39
ATOM     39  C   UNL     1      28.546  28.061  20.928  1.00  0.00     0.108 C 
BRANCH  39  40
ATOM     40  N   UNL     1      29.960  28.257  20.931  1.00  0.00    -0.302 NA
BRANCH  40  41
ATOM     41  C   UNL     1      30.733  27.081  21.148  1.00  0.00     0.081 C 
ATOM     42  C   UNL     1      30.550  26.690  22.622  1.00  0.00     0.021 C 
ENDBRANCH  40  41
BRANCH  40  43
ATOM     43  C   UNL     1      30.375  29.432  21.621  1.00  0.00     0.081 C 
ATOM     44  C   UNL     1      31.111  30.418  20.769  1.00  0.00     0.021 C 
ENDBRANCH  40  43
ENDBRANCH  39  40
ENDBRANCH  38  39
ENDBRANCH  36  38
ENDBRANCH  32  33
ENDBRANCH  31  32
ENDBRANCH   2  31
TORSDOF 19
BEGIN_RES LYS A 131
REMARK  4 active torsions:
REMARK  status: ('A' for Active; 'I' for Inactive)
REMARK    1  A    between atoms: CA   and  CB  
REMARK    2  A    between atoms: CB   and  CG  
REMARK    3  A    between atoms: CG   and  CD  
REMARK    4  A    between atoms: CD   and  CE  
ROOT
ATOM      1  CA  LYS A 131      29.867  25.555  16.977  1.00 20.52     0.186 C 
ENDROOT
BRANCH   1   2
ATOM      2  CB  LYS A 131      28.345  25.722  17.026  1.00 20.94     0.034 C 
BRANCH   2   3
ATOM      3  CG  LYS A 131      27.601  24.405  16.868  1.00 22.96     0.005 C 
BRANCH   3   4
ATOM      4  CD  LYS A 131      26.542  24.224  17.920  1.00 24.33     0.041 C 
BRANCH   4   5
ATOM      5  CE  LYS A 131      25.192  23.990  17.248  1.00 26.91     0.338 C 
ATOM      6  NZ  LYS A 131      24.744  22.593  17.455  1.00 27.40     0.618 N 
ENDBRANCH   4   5
ENDBRANCH   3   4
ENDBRANCH   2   3
ENDBRANCH   1   2
END_RES LYS A 131
BEGIN_RES LYS A 135
REMARK  4 active torsions:
REMARK  status: ('A' for Active; 'I' for Inactive)
REMARK    5  A    between atoms: CA   and  CB  
REMARK    6  A    between atoms: CB   and  CG  
REMARK    7  A    between atoms: CG   and  CD  
REMARK    8  A    between atoms: CD   and  CE  
ROOT
ATOM      7  CA  LYS A 135      33.193  34.663   9.290  1.00 25.02     0.186 C 
ENDROOT
BRANCH   7   8
ATOM      8  CB  LYS A 135      32.060  35.360  10.034  1.00 26.63     0.034 C 
BRANCH   8   9
ATOM      9  CG  LYS A 135      30.703  34.765   9.759  1.00 29.45     0.005 C 
BRANCH   9  10
ATOM     10  CD  LYS A 135      30.540  34.463   8.277  1.00 32.00     0.041 C 
BRANCH  10  11
ATOM     11  CE  LYS A 135      29.391  35.263   7.694  1.00 34.25     0.338 C 
ATOM     12  NZ  LYS A 135      28.678  36.028   8.753  1.00 35.99     0.618 N 
ENDBRANCH  10  11
ENDBRANCH   9  10
ENDBRANCH   8   9
ENDBRANCH   7   8
END_RES LYS A 135
