REMARK VINA RESULT:    -4.193      3.704      5.524
REMARK INTER + INTRA:         -13.987
REMARK INTER:                  -9.597
REMARK INTRA:                  -4.390
REMARK UNBOUND:                -6.362
REMARK SMILES CC(=O)N[C@@H]1[C@@H](O)C[C@](O)(C(=O)O)O[C@H]1C(O)[C@H](O)CNC(=O)OCc1cn(CC(=O)O)nn1
REMARK SMILES IDX 21 1 22 2 23 3 20 5 18 6 16 7 15 8 9 9 8 10 14 11 6 12 5 13
REMARK SMILES IDX 10 14 11 16 12 17 13 18 7 20 4 22 2 23 1 25 3 26 17 27 19 29
REMARK SMILES IDX 24 31 25 32 26 33 27 34 34 35 28 36 33 37 29 38 30 39 31 40
REMARK SMILES IDX 32 41
REMARK H PARENT 21 4 10 15 13 19 7 21 4 24 17 28 19 30 32 42
REMARK Flexibility Score: inf
ROOT
ATOM      1  N   UNL     1      28.535  29.685  18.554  1.00  0.00    -0.319 N 
ATOM      2  C   UNL     1      28.227  30.485  17.437  1.00  0.00     0.407 C 
ATOM      3  O   UNL     1      27.147  31.064  17.322  1.00  0.00    -0.225 OA
ATOM      4  H   UNL     1      29.506  29.246  18.536  1.00  0.00     0.167 HD
ENDROOT
BRANCH   1   5
ATOM      5  C   UNL     1      27.682  29.414  19.682  1.00  0.00     0.154 C 
BRANCH   5   6
ATOM      6  C   UNL     1      27.432  27.969  19.977  1.00  0.00     0.165 C 
BRANCH   6   7
ATOM      7  C   UNL     1      27.831  27.554  21.343  1.00  0.00     0.176 C 
BRANCH   7   8
ATOM      8  C   UNL     1      29.255  27.859  21.721  1.00  0.00     0.178 C 
ATOM      9  C   UNL     1      31.427  27.793  20.818  1.00  0.00     0.269 C 
ATOM     10  C   UNL     1      32.026  27.430  22.136  1.00  0.00     0.112 C 
ATOM     11  O   UNL     1      30.105  27.580  20.640  1.00  0.00    -0.332 OA
ATOM     12  C   UNL     1      31.100  27.775  23.260  1.00  0.00     0.145 C 
ATOM     13  C   UNL     1      29.765  27.090  22.910  1.00  0.00     0.142 C 
BRANCH   9  14
ATOM     14  O   UNL     1      32.184  27.092  19.833  1.00  0.00    -0.357 OA
ATOM     15  H   UNL     1      31.524  26.508  19.369  1.00  0.00     0.214 HD
ENDBRANCH   9  14
BRANCH   9  16
ATOM     16  C   UNL     1      31.738  29.230  20.550  1.00  0.00     0.364 C 
ATOM     17  O   UNL     1      31.025  29.992  19.866  1.00  0.00    -0.246 OA
BRANCH  16  18
ATOM     18  O   UNL     1      32.889  29.763  21.090  1.00  0.00    -0.477 OA
ATOM     19  H   UNL     1      33.307  30.630  20.759  1.00  0.00     0.296 HD
ENDBRANCH  16  18
ENDBRANCH   9  16
BRANCH  12  20
ATOM     20  O   UNL     1      31.562  27.327  24.494  1.00  0.00    -0.391 OA
ATOM     21  H   UNL     1      31.580  28.114  25.099  1.00  0.00     0.211 HD
ENDBRANCH  12  20
BRANCH  13  22
ATOM     22  N   UNL     1      28.940  27.072  24.074  1.00  0.00    -0.348 N 
ATOM     23  C   UNL     1      28.610  25.865  24.761  1.00  0.00     0.217 C 
ATOM     24  H   UNL     1      28.565  27.958  24.458  1.00  0.00     0.163 HD
ATOM     25  C   UNL     1      27.756  25.807  25.969  1.00  0.00     0.114 C 
ATOM     26  O   UNL     1      29.075  24.792  24.311  1.00  0.00    -0.275 OA
ENDBRANCH  13  22
ENDBRANCH   7   8
BRANCH   7  27
ATOM     27  O   UNL     1      26.907  27.959  22.292  1.00  0.00    -0.388 OA
ATOM     28  H   UNL     1      26.151  28.458  21.890  1.00  0.00     0.211 HD
ENDBRANCH   7  27
ENDBRANCH   6   7
BRANCH   6  29
ATOM     29  O   UNL     1      28.079  27.201  18.995  1.00  0.00    -0.388 OA
ATOM     30  H   UNL     1      29.021  27.032  19.224  1.00  0.00     0.211 HD
ENDBRANCH   6  29
ENDBRANCH   5   6
ENDBRANCH   1   5
BRANCH   2  31
ATOM     31  O   UNL     1      29.147  30.655  16.406  1.00  0.00    -0.443 OA
BRANCH  31  32
ATOM     32  C   UNL     1      30.446  31.133  16.561  1.00  0.00     0.294 C 
BRANCH  32  33
ATOM     33  C   UNL     1      30.769  32.322  15.735  1.00  0.00     0.120 A 
ATOM     34  C   UNL     1      31.795  33.209  15.844  1.00  0.00     0.139 A 
ATOM     35  N   UNL     1      30.045  32.747  14.659  1.00  0.00    -0.132 NA
ATOM     36  N   UNL     1      31.678  34.125  14.867  1.00  0.00    -0.241 N 
ATOM     37  N   UNL     1      30.619  33.834  14.160  1.00  0.00    -0.066 NA
BRANCH  36  38
ATOM     38  C   UNL     1      32.580  35.237  14.650  1.00  0.00     0.268 C 
BRANCH  38  39
ATOM     39  C   UNL     1      33.292  35.060  13.368  1.00  0.00     0.325 C 
ATOM     40  O   UNL     1      32.989  35.797  12.388  1.00  0.00    -0.250 OA
BRANCH  39  41
ATOM     41  O   UNL     1      34.276  34.103  13.238  1.00  0.00    -0.480 OA
ATOM     42  H   UNL     1      35.090  34.193  13.855  1.00  0.00     0.296 HD
ENDBRANCH  39  41
ENDBRANCH  38  39
ENDBRANCH  36  38
ENDBRANCH  32  33
ENDBRANCH  31  32
ENDBRANCH   2  31
TORSDOF 17
BEGIN_RES LYS A 131
REMARK  4 active torsions:
REMARK  status: ('A' for Active; 'I' for Inactive)
REMARK    1  A    between atoms: CA   and  CB  
REMARK    2  A    between atoms: CB   and  CG  
REMARK    3  A    between atoms: CG   and  CD  
REMARK    4  A    between atoms: CD   and  CE  
ROOT
ATOM      1  CA  LYS A 131      29.867  25.555  16.977  1.00 20.52     0.186 C 
ENDROOT
BRANCH   1   2
ATOM      2  CB  LYS A 131      28.345  25.722  17.026  1.00 20.94     0.034 C 
BRANCH   2   3
ATOM      3  CG  LYS A 131      27.602  24.398  16.929  1.00 22.96     0.005 C 
BRANCH   3   4
ATOM      4  CD  LYS A 131      26.155  24.532  17.316  1.00 24.33     0.041 C 
BRANCH   4   5
ATOM      5  CE  LYS A 131      25.983  24.154  18.784  1.00 26.91     0.338 C 
ATOM      6  NZ  LYS A 131      25.197  22.904  18.909  1.00 27.40     0.618 N 
ENDBRANCH   4   5
ENDBRANCH   3   4
ENDBRANCH   2   3
ENDBRANCH   1   2
END_RES LYS A 131
BEGIN_RES LYS A 135
REMARK  4 active torsions:
REMARK  status: ('A' for Active; 'I' for Inactive)
REMARK    5  A    between atoms: CA   and  CB  
REMARK    6  A    between atoms: CB   and  CG  
REMARK    7  A    between atoms: CG   and  CD  
REMARK    8  A    between atoms: CD   and  CE  
ROOT
ATOM      7  CA  LYS A 135      33.193  34.663   9.290  1.00 25.02     0.186 C 
ENDROOT
BRANCH   7   8
ATOM      8  CB  LYS A 135      32.060  35.360  10.034  1.00 26.63     0.034 C 
BRANCH   8   9
ATOM      9  CG  LYS A 135      30.710  34.732   9.801  1.00 29.45     0.005 C 
BRANCH   9  10
ATOM     10  CD  LYS A 135      29.887  35.571   8.836  1.00 32.00     0.041 C 
BRANCH  10  11
ATOM     11  CE  LYS A 135      28.874  34.706   8.110  1.00 34.25     0.338 C 
ATOM     12  NZ  LYS A 135      27.939  34.055   9.068  1.00 35.99     0.618 N 
ENDBRANCH  10  11
ENDBRANCH   9  10
ENDBRANCH   8   9
ENDBRANCH   7   8
END_RES LYS A 135
