REMARK VINA RESULT:    -4.907      7.866     13.845
REMARK INTER + INTRA:         -16.554
REMARK INTER:                  -8.218
REMARK INTRA:                  -8.337
REMARK UNBOUND:                -6.771
REMARK SMILES CC(=O)N[C@@H]1[C@@H](O)C[C@](O)(C(=O)O)O[C@H]1C(O)[C@H](O)CNC(=O)OCc1cn(CC(O)CCc2ccccc2)nn1
REMARK SMILES IDX 24 1 22 2 21 3 23 5 20 6 18 7 16 8 15 9 9 10 8 11 14 12 6 13
REMARK SMILES IDX 5 14 10 15 11 17 12 18 13 19 7 21 4 23 2 24 1 26 3 27 17 28
REMARK SMILES IDX 19 30 25 32 26 33 27 34 41 35 28 36 40 37 29 38 30 39 31 40
REMARK SMILES IDX 32 42 33 43 34 44 35 45 39 46 36 47 38 48 37 49
REMARK H PARENT 21 4 10 16 13 20 7 22 4 25 17 29 19 31 31 41
REMARK Flexibility Score: inf
ROOT
ATOM      1  O   UNL     1      25.088  30.445  21.666  1.00  0.00    -0.443 OA
ENDROOT
BRANCH   1   2
ATOM      2  C   UNL     1      25.635  29.176  21.608  1.00  0.00     0.407 C 
ATOM      3  N   UNL     1      25.863  28.545  20.368  1.00  0.00    -0.319 N 
ATOM      4  H   UNL     1      25.616  29.043  19.493  1.00  0.00     0.167 HD
ATOM      5  O   UNL     1      25.933  28.574  22.665  1.00  0.00    -0.225 OA
BRANCH   3   6
ATOM      6  C   UNL     1      26.439  27.212  20.263  1.00  0.00     0.154 C 
BRANCH   6   7
ATOM      7  C   UNL     1      27.857  27.276  19.726  1.00  0.00     0.165 C 
BRANCH   7   8
ATOM      8  C   UNL     1      28.813  27.132  20.899  1.00  0.00     0.176 C 
BRANCH   8   9
ATOM      9  C   UNL     1      29.283  28.511  21.370  1.00  0.00     0.178 C 
ATOM     10  C   UNL     1      31.565  28.782  20.961  1.00  0.00     0.269 C 
ATOM     11  C   UNL     1      31.794  27.979  22.194  1.00  0.00     0.112 C 
ATOM     12  O   UNL     1      30.282  29.032  20.628  1.00  0.00    -0.332 OA
ATOM     13  C   UNL     1      30.879  28.316  23.315  1.00  0.00     0.145 C 
ATOM     14  C   UNL     1      29.457  28.498  22.857  1.00  0.00     0.142 C 
BRANCH  10  15
ATOM     15  O   UNL     1      32.165  28.074  19.891  1.00  0.00    -0.357 OA
ATOM     16  H   UNL     1      32.285  28.686  19.121  1.00  0.00     0.214 HD
ENDBRANCH  10  15
BRANCH  10  17
ATOM     17  C   UNL     1      32.359  30.056  21.095  1.00  0.00     0.364 C 
ATOM     18  O   UNL     1      33.549  30.078  21.485  1.00  0.00    -0.246 OA
BRANCH  17  19
ATOM     19  O   UNL     1      31.791  31.295  20.781  1.00  0.00    -0.477 OA
ATOM     20  H   UNL     1      31.123  31.736  21.429  1.00  0.00     0.296 HD
ENDBRANCH  17  19
ENDBRANCH  10  17
BRANCH  13  21
ATOM     21  O   UNL     1      30.985  27.304  24.298  1.00  0.00    -0.391 OA
ATOM     22  H   UNL     1      30.230  27.376  24.955  1.00  0.00     0.211 HD
ENDBRANCH  13  21
BRANCH  14  23
ATOM     23  N   UNL     1      28.852  29.691  23.454  1.00  0.00    -0.348 N 
ATOM     24  C   UNL     1      28.358  29.691  24.766  1.00  0.00     0.217 C 
ATOM     25  H   UNL     1      28.810  30.554  22.835  1.00  0.00     0.163 HD
ATOM     26  C   UNL     1      27.757  30.916  25.323  1.00  0.00     0.114 C 
ATOM     27  O   UNL     1      28.422  28.663  25.468  1.00  0.00    -0.275 OA
ENDBRANCH  14  23
ENDBRANCH   8   9
BRANCH   8  28
ATOM     28  O   UNL     1      28.029  26.640  21.957  1.00  0.00    -0.388 OA
ATOM     29  H   UNL     1      28.218  25.670  22.136  1.00  0.00     0.211 HD
ENDBRANCH   8  28
ENDBRANCH   7   8
BRANCH   7  30
ATOM     30  O   UNL     1      28.069  28.489  19.083  1.00  0.00    -0.388 OA
ATOM     31  H   UNL     1      28.974  28.458  18.690  1.00  0.00     0.211 HD
ENDBRANCH   7  30
ENDBRANCH   6   7
ENDBRANCH   3   6
ENDBRANCH   1   2
BRANCH   1  32
ATOM     32  C   UNL     1      25.957  31.486  22.143  1.00  0.00     0.294 C 
BRANCH  32  33
ATOM     33  C   UNL     1      26.980  31.801  21.122  1.00  0.00     0.120 A 
ATOM     34  C   UNL     1      26.843  31.932  19.761  1.00  0.00     0.138 A 
ATOM     35  N   UNL     1      28.279  32.021  21.393  1.00  0.00    -0.132 NA
ATOM     36  N   UNL     1      28.046  32.225  19.245  1.00  0.00    -0.250 N 
ATOM     37  N   UNL     1      28.888  32.275  20.228  1.00  0.00    -0.067 NA
BRANCH  36  38
ATOM     38  C   UNL     1      28.389  32.455  17.823  1.00  0.00     0.177 C 
BRANCH  38  39
ATOM     39  C   UNL     1      29.606  31.646  17.499  1.00  0.00     0.136 C 
BRANCH  39  40
ATOM     40  O   UNL     1      29.780  30.581  18.394  1.00  0.00    -0.391 OA
ATOM     41  H   UNL     1      30.698  30.669  18.780  1.00  0.00     0.211 HD
ENDBRANCH  39  40
BRANCH  39  42
ATOM     42  C   UNL     1      30.786  32.354  17.058  1.00  0.00     0.038 C 
BRANCH  42  43
ATOM     43  C   UNL     1      31.241  32.214  15.669  1.00  0.00     0.038 C 
BRANCH  43  44
ATOM     44  C   UNL     1      31.375  33.457  14.926  1.00  0.00    -0.048 A 
ATOM     45  C   UNL     1      32.559  34.189  15.074  1.00  0.00     0.004 A 
ATOM     46  C   UNL     1      30.418  34.020  14.141  1.00  0.00     0.004 A 
ATOM     47  C   UNL     1      32.726  35.405  14.455  1.00  0.00     0.000 A 
ATOM     48  C   UNL     1      30.566  35.242  13.509  1.00  0.00     0.000 A 
ATOM     49  C   UNL     1      31.739  35.950  13.666  1.00  0.00     0.000 A 
ENDBRANCH  43  44
ENDBRANCH  42  43
ENDBRANCH  39  42
ENDBRANCH  38  39
ENDBRANCH  36  38
ENDBRANCH  32  33
ENDBRANCH   1  32
TORSDOF 20
BEGIN_RES LYS A 131
REMARK  4 active torsions:
REMARK  status: ('A' for Active; 'I' for Inactive)
REMARK    1  A    between atoms: CA   and  CB  
REMARK    2  A    between atoms: CB   and  CG  
REMARK    3  A    between atoms: CG   and  CD  
REMARK    4  A    between atoms: CD   and  CE  
ROOT
ATOM      1  CA  LYS A 131      29.867  25.555  16.977  1.00 20.52     0.186 C 
ENDROOT
BRANCH   1   2
ATOM      2  CB  LYS A 131      28.345  25.722  17.026  1.00 20.94     0.034 C 
BRANCH   2   3
ATOM      3  CG  LYS A 131      27.599  24.428  16.739  1.00 22.96     0.005 C 
BRANCH   3   4
ATOM      4  CD  LYS A 131      26.997  23.834  17.982  1.00 24.33     0.041 C 
BRANCH   4   5
ATOM      5  CE  LYS A 131      25.574  24.353  18.156  1.00 26.91     0.338 C 
ATOM      6  NZ  LYS A 131      24.851  24.331  16.863  1.00 27.40     0.618 N 
ENDBRANCH   4   5
ENDBRANCH   3   4
ENDBRANCH   2   3
ENDBRANCH   1   2
END_RES LYS A 131
BEGIN_RES LYS A 135
REMARK  4 active torsions:
REMARK  status: ('A' for Active; 'I' for Inactive)
REMARK    5  A    between atoms: CA   and  CB  
REMARK    6  A    between atoms: CB   and  CG  
REMARK    7  A    between atoms: CG   and  CD  
REMARK    8  A    between atoms: CD   and  CE  
ROOT
ATOM      7  CA  LYS A 135      33.193  34.663   9.290  1.00 25.02     0.186 C 
ENDROOT
BRANCH   7   8
ATOM      8  CB  LYS A 135      32.060  35.360  10.034  1.00 26.63     0.034 C 
BRANCH   8   9
ATOM      9  CG  LYS A 135      30.713  34.722   9.814  1.00 29.45     0.005 C 
BRANCH   9  10
ATOM     10  CD  LYS A 135      30.460  34.501   8.331  1.00 32.00     0.041 C 
BRANCH  10  11
ATOM     11  CE  LYS A 135      29.019  34.821   7.982  1.00 34.25     0.338 C 
ATOM     12  NZ  LYS A 135      28.930  35.554   6.689  1.00 35.99     0.618 N 
ENDBRANCH  10  11
ENDBRANCH   9  10
ENDBRANCH   8   9
ENDBRANCH   7   8
END_RES LYS A 135
