REMARK VINA RESULT:    -5.374      2.745      5.054
REMARK INTER + INTRA:         -13.798
REMARK INTER:                  -8.191
REMARK INTRA:                  -5.606
REMARK UNBOUND:                -4.497
REMARK SMILES CC(=O)N[C@@H]1[C@@H](O)C[C@](O)(C(=O)O)O[C@H]1C(O)[C@H](O)CNC(=O)OCc1cn(-c2cccc(Cl)c2)nn1
REMARK SMILES IDX 20 1 18 2 16 3 15 4 9 5 8 6 14 7 6 8 5 9 10 10 11 12 12 13
REMARK SMILES IDX 13 14 7 16 4 18 2 19 1 21 3 22 17 23 19 25 21 27 22 28 23 30
REMARK SMILES IDX 24 31 25 32 26 33 27 34 37 35 28 36 36 37 29 38 30 39 35 40
REMARK SMILES IDX 31 41 33 42 32 43 34 44
REMARK H PARENT 10 11 13 15 7 17 4 20 17 24 19 26 21 29
REMARK Flexibility Score: inf
ROOT
ATOM      1  C   UNL     1      29.089  32.392  20.248  1.00  0.00     0.154 C 
ENDROOT
BRANCH   1   2
ATOM      2  C   UNL     1      28.838  30.911  20.255  1.00  0.00     0.165 C 
BRANCH   2   3
ATOM      3  C   UNL     1      30.100  30.098  20.246  1.00  0.00     0.176 C 
BRANCH   3   4
ATOM      4  C   UNL     1      30.173  29.193  21.478  1.00  0.00     0.178 C 
ATOM      5  C   UNL     1      32.386  28.734  22.124  1.00  0.00     0.269 C 
ATOM      6  C   UNL     1      32.017  27.261  22.244  1.00  0.00     0.112 C 
ATOM      7  O   UNL     1      31.276  29.504  22.167  1.00  0.00    -0.332 OA
ATOM      8  C   UNL     1      31.246  26.973  20.957  1.00  0.00     0.145 C 
ATOM      9  C   UNL     1      29.984  27.788  21.026  1.00  0.00     0.142 C 
BRANCH   5  10
ATOM     10  O   UNL     1      33.123  28.846  20.952  1.00  0.00    -0.357 OA
ATOM     11  H   UNL     1      32.518  29.145  20.229  1.00  0.00     0.214 HD
ENDBRANCH   5  10
BRANCH   5  12
ATOM     12  C   UNL     1      33.259  29.111  23.261  1.00  0.00     0.364 C 
ATOM     13  O   UNL     1      34.493  29.212  23.073  1.00  0.00    -0.246 OA
BRANCH  12  14
ATOM     14  O   UNL     1      32.768  29.362  24.533  1.00  0.00    -0.477 OA
ATOM     15  H   UNL     1      33.432  29.378  25.315  1.00  0.00     0.296 HD
ENDBRANCH  12  14
ENDBRANCH   5  12
BRANCH   8  16
ATOM     16  O   UNL     1      31.959  27.379  19.834  1.00  0.00    -0.391 OA
ATOM     17  H   UNL     1      32.260  28.329  19.900  1.00  0.00     0.211 HD
ENDBRANCH   8  16
BRANCH   9  18
ATOM     18  N   UNL     1      29.074  27.080  21.901  1.00  0.00    -0.348 N 
ATOM     19  C   UNL     1      27.674  27.249  21.743  1.00  0.00     0.217 C 
ATOM     20  H   UNL     1      29.431  26.434  22.663  1.00  0.00     0.163 HD
ATOM     21  C   UNL     1      26.746  26.520  22.645  1.00  0.00     0.114 C 
ATOM     22  O   UNL     1      27.233  28.012  20.845  1.00  0.00    -0.275 OA
ENDBRANCH   9  18
ENDBRANCH   3   4
BRANCH   3  23
ATOM     23  O   UNL     1      31.165  31.023  20.281  1.00  0.00    -0.388 OA
ATOM     24  H   UNL     1      31.995  30.611  20.002  1.00  0.00     0.211 HD
ENDBRANCH   3  23
ENDBRANCH   2   3
BRANCH   2  25
ATOM     25  O   UNL     1      28.078  30.577  19.120  1.00  0.00    -0.388 OA
ATOM     26  H   UNL     1      27.725  31.396  18.728  1.00  0.00     0.211 HD
ENDBRANCH   2  25
ENDBRANCH   1   2
BRANCH   1  27
ATOM     27  N   UNL     1      28.826  32.932  18.918  1.00  0.00    -0.319 N 
ATOM     28  C   UNL     1      29.880  33.445  18.123  1.00  0.00     0.407 C 
ATOM     29  H   UNL     1      27.844  32.929  18.577  1.00  0.00     0.167 HD
ATOM     30  O   UNL     1      31.052  33.429  18.577  1.00  0.00    -0.225 OA
BRANCH  28  31
ATOM     31  O   UNL     1      29.674  33.968  16.857  1.00  0.00    -0.443 OA
BRANCH  31  32
ATOM     32  C   UNL     1      29.876  33.124  15.745  1.00  0.00     0.294 C 
BRANCH  32  33
ATOM     33  C   UNL     1      28.965  31.954  15.844  1.00  0.00     0.121 A 
ATOM     34  C   UNL     1      27.613  31.933  15.551  1.00  0.00     0.144 A 
ATOM     35  N   UNL     1      29.254  30.698  16.232  1.00  0.00    -0.131 NA
ATOM     36  N   UNL     1      27.125  30.687  15.763  1.00  0.00    -0.220 N 
ATOM     37  N   UNL     1      28.153  29.965  16.177  1.00  0.00    -0.062 NA
BRANCH  36  38
ATOM     38  C   UNL     1      25.783  30.253  15.578  1.00  0.00     0.068 A 
ATOM     39  C   UNL     1      25.148  29.581  16.601  1.00  0.00     0.028 A 
ATOM     40  C   UNL     1      25.070  30.469  14.418  1.00  0.00     0.049 A 
ATOM     41  C   UNL     1      23.842  29.138  16.468  1.00  0.00     0.004 A 
ATOM     42  C   UNL     1      23.770  30.042  14.252  1.00  0.00     0.043 A 
ATOM     43  C   UNL     1      23.162  29.372  15.295  1.00  0.00     0.020 A 
ATOM     44  Cl  UNL     1      22.891  30.340  12.745  1.00  0.00    -0.084 Cl
ENDBRANCH  36  38
ENDBRANCH  32  33
ENDBRANCH  31  32
ENDBRANCH  28  31
ENDBRANCH   1  27
TORSDOF 15
BEGIN_RES LYS A 131
REMARK  4 active torsions:
REMARK  status: ('A' for Active; 'I' for Inactive)
REMARK    1  A    between atoms: CA   and  CB  
REMARK    2  A    between atoms: CB   and  CG  
REMARK    3  A    between atoms: CG   and  CD  
REMARK    4  A    between atoms: CD   and  CE  
ROOT
ATOM      1  CA  LYS A 131      29.867  25.555  16.977  1.00 20.52     0.186 C 
ENDROOT
BRANCH   1   2
ATOM      2  CB  LYS A 131      28.345  25.722  17.026  1.00 20.94     0.034 C 
BRANCH   2   3
ATOM      3  CG  LYS A 131      27.601  24.402  16.894  1.00 22.96     0.005 C 
BRANCH   3   4
ATOM      4  CD  LYS A 131      26.225  24.465  17.495  1.00 24.33     0.041 C 
BRANCH   4   5
ATOM      5  CE  LYS A 131      26.246  25.371  18.722  1.00 26.91     0.338 C 
ATOM      6  NZ  LYS A 131      25.140  26.355  18.660  1.00 27.40     0.618 N 
ENDBRANCH   4   5
ENDBRANCH   3   4
ENDBRANCH   2   3
ENDBRANCH   1   2
END_RES LYS A 131
BEGIN_RES LYS A 135
REMARK  4 active torsions:
REMARK  status: ('A' for Active; 'I' for Inactive)
REMARK    5  A    between atoms: CA   and  CB  
REMARK    6  A    between atoms: CB   and  CG  
REMARK    7  A    between atoms: CG   and  CD  
REMARK    8  A    between atoms: CD   and  CE  
ROOT
ATOM      7  CA  LYS A 135      33.193  34.663   9.290  1.00 25.02     0.186 C 
ENDROOT
BRANCH   7   8
ATOM      8  CB  LYS A 135      32.060  35.360  10.034  1.00 26.63     0.034 C 
BRANCH   8   9
ATOM      9  CG  LYS A 135      30.786  35.460   9.235  1.00 29.45     0.005 C 
BRANCH   9  10
ATOM     10  CD  LYS A 135      30.200  34.079   8.985  1.00 32.00     0.041 C 
BRANCH  10  11
ATOM     11  CE  LYS A 135      28.688  34.113   9.097  1.00 34.25     0.338 C 
ATOM     12  NZ  LYS A 135      28.083  34.865   7.962  1.00 35.99     0.618 N 
ENDBRANCH  10  11
ENDBRANCH   9  10
ENDBRANCH   8   9
ENDBRANCH   7   8
END_RES LYS A 135
