REMARK VINA RESULT:    -4.743      1.918      2.576
REMARK INTER + INTRA:         -16.906
REMARK INTER:                 -10.188
REMARK INTRA:                  -6.718
REMARK UNBOUND:                -7.171
REMARK SMILES CCOCCc1c(-c2ccccc2)nc(N)nc1-n1cc(COC(=O)NC[C@@H](O)C(O)[C@@H]2O[C@@](O)(C(=O)O)C[C@H](O)[C@H]2NC(C)=O)nn1
REMARK SMILES IDX 23 1 24 2 26 3 25 5 27 6 28 7 30 8 32 9 34 10 39 11 33 12
REMARK SMILES IDX 40 13 42 14 35 15 36 17 37 18 38 19 41 21 43 23 44 24 45 26
REMARK SMILES IDX 46 27 31 28 29 30 22 32 21 33 20 34 47 35 19 36 48 37 18 38
REMARK SMILES IDX 17 39 6 40 15 41 7 42 14 43 5 44 4 45 3 46 2 47 1 48 16 49
REMARK SMILES IDX 8 52 9 53 13 54 10 55 12 56 11 57
REMARK H PARENT 26 4 35 16 38 20 41 22 43 25 31 29 29 31 16 50 16 51
REMARK Flexibility Score: inf
ROOT
ATOM      1  O   UNL     1      28.438  40.302  10.567  1.00  0.00    -0.443 OA
ENDROOT
BRANCH   1   2
ATOM      2  C   UNL     1      27.853  40.033   9.349  1.00  0.00     0.407 C 
ATOM      3  N   UNL     1      27.241  38.756   9.068  1.00  0.00    -0.319 N 
ATOM      4  H   UNL     1      27.286  38.075   9.852  1.00  0.00     0.167 HD
ATOM      5  O   UNL     1      27.864  40.935   8.474  1.00  0.00    -0.225 OA
BRANCH   3   6
ATOM      6  C   UNL     1      26.642  38.528   7.774  1.00  0.00     0.154 C 
BRANCH   6   7
ATOM      7  C   UNL     1      25.131  38.511   7.959  1.00  0.00     0.165 C 
BRANCH   7   8
ATOM      8  C   UNL     1      24.701  37.068   7.846  1.00  0.00     0.176 C 
BRANCH   8   9
ATOM      9  C   UNL     1      24.101  36.488   9.089  1.00  0.00     0.178 C 
ATOM     10  C   UNL     1      21.918  36.359   8.247  1.00  0.00     0.269 C 
ATOM     11  C   UNL     1      21.647  37.668   8.970  1.00  0.00     0.112 C 
ATOM     12  O   UNL     1      23.026  35.715   8.717  1.00  0.00    -0.332 OA
ATOM     13  C   UNL     1      22.286  37.592  10.341  1.00  0.00     0.145 C 
ATOM     14  C   UNL     1      23.813  37.438  10.194  1.00  0.00     0.142 C 
BRANCH  10  15
ATOM     15  O   UNL     1      22.010  36.689   6.889  1.00  0.00    -0.357 OA
ATOM     16  H   UNL     1      22.635  36.105   6.406  1.00  0.00     0.214 HD
ENDBRANCH  10  15
BRANCH  10  17
ATOM     17  C   UNL     1      20.772  35.438   8.398  1.00  0.00     0.364 C 
ATOM     18  O   UNL     1      20.283  35.248   9.527  1.00  0.00    -0.246 OA
BRANCH  17  19
ATOM     19  O   UNL     1      20.250  34.797   7.305  1.00  0.00    -0.477 OA
ATOM     20  H   UNL     1      19.296  34.468   7.229  1.00  0.00     0.296 HD
ENDBRANCH  17  19
ENDBRANCH  10  17
BRANCH  13  21
ATOM     21  O   UNL     1      21.966  38.693  11.101  1.00  0.00    -0.391 OA
ATOM     22  H   UNL     1      22.532  39.463  10.878  1.00  0.00     0.211 HD
ENDBRANCH  13  21
BRANCH  14  23
ATOM     23  N   UNL     1      24.255  36.931  11.500  1.00  0.00    -0.348 N 
ATOM     24  C   UNL     1      25.239  37.641  12.228  1.00  0.00     0.217 C 
ATOM     25  H   UNL     1      23.857  36.056  11.903  1.00  0.00     0.163 HD
ATOM     26  C   UNL     1      25.736  37.183  13.562  1.00  0.00     0.114 C 
ATOM     27  O   UNL     1      25.699  38.696  11.710  1.00  0.00    -0.275 OA
ENDBRANCH  14  23
ENDBRANCH   8   9
BRANCH   8  28
ATOM     28  O   UNL     1      25.950  36.378   7.703  1.00  0.00    -0.388 OA
ATOM     29  H   UNL     1      26.591  36.713   8.360  1.00  0.00     0.211 HD
ENDBRANCH   8  28
ENDBRANCH   7   8
BRANCH   7  30
ATOM     30  O   UNL     1      24.611  39.338   6.977  1.00  0.00    -0.388 OA
ATOM     31  H   UNL     1      25.309  39.854   6.520  1.00  0.00     0.211 HD
ENDBRANCH   7  30
ENDBRANCH   6   7
ENDBRANCH   3   6
ENDBRANCH   1   2
BRANCH   1  32
ATOM     32  C   UNL     1      29.789  40.072  10.899  1.00  0.00     0.294 C 
BRANCH  32  33
ATOM     33  C   UNL     1      29.930  38.718  11.524  1.00  0.00     0.121 A 
ATOM     34  C   UNL     1      30.998  38.216  12.224  1.00  0.00     0.146 A 
ATOM     35  N   UNL     1      29.014  37.725  11.507  1.00  0.00    -0.131 NA
ATOM     36  N   UNL     1      30.727  36.936  12.624  1.00  0.00    -0.202 N 
ATOM     37  N   UNL     1      29.508  36.691  12.161  1.00  0.00    -0.060 NA
BRANCH  36  38
ATOM     38  C   UNL     1      31.586  36.077  13.353  1.00  0.00     0.164 A 
ATOM     39  N   UNL     1      32.683  35.550  12.793  1.00  0.00    -0.193 NA
ATOM     40  C   UNL     1      31.294  35.733  14.679  1.00  0.00     0.026 A 
ATOM     41  C   UNL     1      33.494  34.706  13.479  1.00  0.00     0.222 A 
ATOM     42  C   UNL     1      32.107  34.881  15.371  1.00  0.00     0.081 A 
ATOM     43  N   UNL     1      33.226  34.366  14.744  1.00  0.00    -0.213 NA
BRANCH  40  44
ATOM     44  C   UNL     1      30.070  36.285  15.293  1.00  0.00     0.070 C 
BRANCH  44  45
ATOM     45  C   UNL     1      28.854  35.407  15.188  1.00  0.00     0.165 C 
BRANCH  45  46
ATOM     46  O   UNL     1      28.288  35.138  16.404  1.00  0.00    -0.381 OA
BRANCH  46  47
ATOM     47  C   UNL     1      28.531  36.092  17.364  1.00  0.00     0.156 C 
ATOM     48  C   UNL     1      28.246  35.572  18.758  1.00  0.00     0.035 C 
ENDBRANCH  46  47
ENDBRANCH  45  46
ENDBRANCH  44  45
ENDBRANCH  40  44
BRANCH  41  49
ATOM     49  N   UNL     1      34.641  34.173  12.848  1.00  0.00    -0.368 N 
ATOM     50  H   UNL     1      34.593  33.259  12.364  1.00  0.00     0.159 HD
ATOM     51  H   UNL     1      35.550  34.673  12.850  1.00  0.00     0.159 HD
ENDBRANCH  41  49
BRANCH  42  52
ATOM     52  C   UNL     1      31.798  34.398  16.703  1.00  0.00     0.001 A 
ATOM     53  C   UNL     1      31.130  33.284  17.060  1.00  0.00     0.010 A 
ATOM     54  C   UNL     1      32.287  35.200  17.758  1.00  0.00     0.010 A 
ATOM     55  C   UNL     1      30.941  32.954  18.415  1.00  0.00     0.001 A 
ATOM     56  C   UNL     1      32.110  34.890  19.077  1.00  0.00     0.001 A 
ATOM     57  C   UNL     1      31.422  33.742  19.432  1.00  0.00     0.000 A 
ENDBRANCH  42  52
ENDBRANCH  36  38
ENDBRANCH  32  33
ENDBRANCH   1  32
TORSDOF 21
BEGIN_RES LYS A 131
REMARK  4 active torsions:
REMARK  status: ('A' for Active; 'I' for Inactive)
REMARK    1  A    between atoms: CA   and  CB  
REMARK    2  A    between atoms: CB   and  CG  
REMARK    3  A    between atoms: CG   and  CD  
REMARK    4  A    between atoms: CD   and  CE  
ROOT
ATOM      1  CA  LYS A 131      29.867  25.555  16.977  1.00 20.52     0.186 C 
ENDROOT
BRANCH   1   2
ATOM      2  CB  LYS A 131      28.345  25.722  17.026  1.00 20.94     0.034 C 
BRANCH   2   3
ATOM      3  CG  LYS A 131      27.600  24.414  16.809  1.00 22.96     0.005 C 
BRANCH   3   4
ATOM      4  CD  LYS A 131      26.850  23.978  18.037  1.00 24.33     0.041 C 
BRANCH   4   5
ATOM      5  CE  LYS A 131      25.504  24.693  18.093  1.00 26.91     0.338 C 
ATOM      6  NZ  LYS A 131      24.688  24.355  16.903  1.00 27.40     0.618 N 
ENDBRANCH   4   5
ENDBRANCH   3   4
ENDBRANCH   2   3
ENDBRANCH   1   2
END_RES LYS A 131
BEGIN_RES LYS A 135
REMARK  4 active torsions:
REMARK  status: ('A' for Active; 'I' for Inactive)
REMARK    5  A    between atoms: CA   and  CB  
REMARK    6  A    between atoms: CB   and  CG  
REMARK    7  A    between atoms: CG   and  CD  
REMARK    8  A    between atoms: CD   and  CE  
ROOT
ATOM      7  CA  LYS A 135      33.193  34.663   9.290  1.00 25.02     0.186 C 
ENDROOT
BRANCH   7   8
ATOM      8  CB  LYS A 135      32.060  35.360  10.034  1.00 26.63     0.034 C 
BRANCH   8   9
ATOM      9  CG  LYS A 135      30.803  35.509   9.216  1.00 29.45     0.005 C 
BRANCH   9  10
ATOM     10  CD  LYS A 135      30.131  34.159   9.015  1.00 32.00     0.041 C 
BRANCH  10  11
ATOM     11  CE  LYS A 135      28.676  34.342   8.626  1.00 34.25     0.338 C 
ATOM     12  NZ  LYS A 135      27.769  33.771   9.659  1.00 35.99     0.618 N 
ENDBRANCH  10  11
ENDBRANCH   9  10
ENDBRANCH   8   9
ENDBRANCH   7   8
END_RES LYS A 135
