REMARK VINA RESULT:    -4.356      6.222     11.152
REMARK INTER + INTRA:         -14.066
REMARK INTER:                  -7.124
REMARK INTRA:                  -6.941
REMARK UNBOUND:                -6.145
REMARK SMILES CC(=O)N[C@@H]1[C@@H](O)C[C@](O)(C(=O)O)O[C@H]1C(O)[C@H](O)CNC(=O)OCc1cn(C(C)(C)CO)nn1
REMARK SMILES IDX 21 1 22 2 23 3 20 5 18 6 16 7 15 8 9 9 8 10 14 11 6 12 5 13
REMARK SMILES IDX 10 14 11 16 12 17 13 18 7 20 4 22 2 23 1 25 3 26 17 27 19 29
REMARK SMILES IDX 24 31 25 32 26 33 27 34 35 35 28 36 34 37 29 38 30 39 31 40
REMARK SMILES IDX 32 41 33 42
REMARK H PARENT 21 4 10 15 13 19 7 21 4 24 17 28 19 30 33 43
REMARK Flexibility Score: inf
ROOT
ATOM      1  N   UNL     1      27.945  30.819  18.638  1.00  0.00    -0.319 N 
ATOM      2  C   UNL     1      29.266  31.206  19.033  1.00  0.00     0.407 C 
ATOM      3  O   UNL     1      30.177  30.336  19.247  1.00  0.00    -0.225 OA
ATOM      4  H   UNL     1      27.247  31.566  18.465  1.00  0.00     0.167 HD
ENDROOT
BRANCH   1   5
ATOM      5  C   UNL     1      27.632  29.415  18.475  1.00  0.00     0.154 C 
BRANCH   5   6
ATOM      6  C   UNL     1      26.651  29.159  17.400  1.00  0.00     0.165 C 
BRANCH   6   7
ATOM      7  C   UNL     1      25.728  30.252  17.015  1.00  0.00     0.176 C 
BRANCH   7   8
ATOM      8  C   UNL     1      26.062  30.808  15.652  1.00  0.00     0.178 C 
ATOM      9  C   UNL     1      26.942  32.947  16.143  1.00  0.00     0.269 C 
ATOM     10  C   UNL     1      25.698  33.588  15.499  1.00  0.00     0.112 C 
ATOM     11  O   UNL     1      27.138  31.666  15.741  1.00  0.00    -0.332 OA
ATOM     12  C   UNL     1      25.376  32.730  14.321  1.00  0.00     0.145 C 
ATOM     13  C   UNL     1      24.894  31.368  14.898  1.00  0.00     0.142 C 
BRANCH   9  14
ATOM     14  O   UNL     1      26.892  33.161  17.505  1.00  0.00    -0.357 OA
ATOM     15  H   UNL     1      26.645  34.098  17.690  1.00  0.00     0.214 HD
ENDBRANCH   9  14
BRANCH   9  16
ATOM     16  C   UNL     1      28.136  33.723  15.624  1.00  0.00     0.364 C 
ATOM     17  O   UNL     1      28.336  34.909  15.979  1.00  0.00    -0.246 OA
BRANCH  16  18
ATOM     18  O   UNL     1      28.993  33.085  14.753  1.00  0.00    -0.477 OA
ATOM     19  H   UNL     1      28.891  33.175  13.747  1.00  0.00     0.296 HD
ENDBRANCH  16  18
ENDBRANCH   9  16
BRANCH  12  20
ATOM     20  O   UNL     1      24.406  33.259  13.493  1.00  0.00    -0.391 OA
ATOM     21  H   UNL     1      23.530  33.082  13.927  1.00  0.00     0.211 HD
ENDBRANCH  12  20
BRANCH  13  22
ATOM     22  N   UNL     1      24.588  30.615  13.671  1.00  0.00    -0.348 N 
ATOM     23  C   UNL     1      23.762  29.487  13.646  1.00  0.00     0.217 C 
ATOM     24  H   UNL     1      25.020  30.963  12.790  1.00  0.00     0.163 HD
ATOM     25  C   UNL     1      23.444  28.709  12.421  1.00  0.00     0.114 C 
ATOM     26  O   UNL     1      23.249  29.092  14.730  1.00  0.00    -0.275 OA
ENDBRANCH  13  22
ENDBRANCH   7   8
BRANCH   7  27
ATOM     27  O   UNL     1      24.412  30.135  17.320  1.00  0.00    -0.388 OA
ATOM     28  H   UNL     1      24.087  29.203  17.423  1.00  0.00     0.211 HD
ENDBRANCH   7  27
ENDBRANCH   6   7
BRANCH   6  29
ATOM     29  O   UNL     1      25.876  28.025  17.735  1.00  0.00    -0.388 OA
ATOM     30  H   UNL     1      26.435  27.437  18.289  1.00  0.00     0.211 HD
ENDBRANCH   6  29
ENDBRANCH   5   6
ENDBRANCH   1   5
BRANCH   2  31
ATOM     31  O   UNL     1      29.535  32.542  19.179  1.00  0.00    -0.443 OA
BRANCH  31  32
ATOM     32  C   UNL     1      30.826  33.076  19.154  1.00  0.00     0.294 C 
BRANCH  32  33
ATOM     33  C   UNL     1      31.270  33.354  17.764  1.00  0.00     0.120 A 
ATOM     34  C   UNL     1      31.796  34.548  17.339  1.00  0.00     0.139 A 
ATOM     35  N   UNL     1      31.250  32.549  16.701  1.00  0.00    -0.132 NA
ATOM     36  N   UNL     1      32.084  34.445  16.038  1.00  0.00    -0.244 N 
ATOM     37  N   UNL     1      31.739  33.208  15.674  1.00  0.00    -0.066 NA
BRANCH  36  38
ATOM     38  C   UNL     1      32.654  35.484  15.220  1.00  0.00     0.082 C 
ATOM     39  C   UNL     1      33.584  34.900  14.178  1.00  0.00     0.039 C 
ATOM     40  C   UNL     1      33.412  36.450  16.121  1.00  0.00     0.039 C 
BRANCH  38  41
ATOM     41  C   UNL     1      31.551  36.275  14.564  1.00  0.00     0.186 C 
BRANCH  41  42
ATOM     42  O   UNL     1      30.628  35.408  13.972  1.00  0.00    -0.394 OA
ATOM     43  H   UNL     1      29.850  35.317  14.579  1.00  0.00     0.210 HD
ENDBRANCH  41  42
ENDBRANCH  38  41
ENDBRANCH  36  38
ENDBRANCH  32  33
ENDBRANCH  31  32
ENDBRANCH   2  31
TORSDOF 17
BEGIN_RES LYS A 131
REMARK  4 active torsions:
REMARK  status: ('A' for Active; 'I' for Inactive)
REMARK    1  A    between atoms: CA   and  CB  
REMARK    2  A    between atoms: CB   and  CG  
REMARK    3  A    between atoms: CG   and  CD  
REMARK    4  A    between atoms: CD   and  CE  
ROOT
ATOM      1  CA  LYS A 131      29.867  25.555  16.977  1.00 20.52     0.186 C 
ENDROOT
BRANCH   1   2
ATOM      2  CB  LYS A 131      28.345  25.722  17.026  1.00 20.94     0.034 C 
BRANCH   2   3
ATOM      3  CG  LYS A 131      27.600  24.408  16.847  1.00 22.96     0.005 C 
BRANCH   3   4
ATOM      4  CD  LYS A 131      26.513  24.229  17.870  1.00 24.33     0.041 C 
BRANCH   4   5
ATOM      5  CE  LYS A 131      25.171  24.068  17.164  1.00 26.91     0.338 C 
ATOM      6  NZ  LYS A 131      24.058  24.155  18.139  1.00 27.40     0.618 N 
ENDBRANCH   4   5
ENDBRANCH   3   4
ENDBRANCH   2   3
ENDBRANCH   1   2
END_RES LYS A 131
BEGIN_RES LYS A 135
REMARK  4 active torsions:
REMARK  status: ('A' for Active; 'I' for Inactive)
REMARK    5  A    between atoms: CA   and  CB  
REMARK    6  A    between atoms: CB   and  CG  
REMARK    7  A    between atoms: CG   and  CD  
REMARK    8  A    between atoms: CD   and  CE  
ROOT
ATOM      7  CA  LYS A 135      33.193  34.663   9.290  1.00 25.02     0.186 C 
ENDROOT
BRANCH   7   8
ATOM      8  CB  LYS A 135      32.060  35.360  10.034  1.00 26.63     0.034 C 
BRANCH   8   9
ATOM      9  CG  LYS A 135      30.858  35.646   9.171  1.00 29.45     0.005 C 
BRANCH   9  10
ATOM     10  CD  LYS A 135      30.207  34.351   8.711  1.00 32.00     0.041 C 
BRANCH  10  11
ATOM     11  CE  LYS A 135      28.700  34.506   8.647  1.00 34.25     0.338 C 
ATOM     12  NZ  LYS A 135      28.026  33.616   9.633  1.00 35.99     0.618 N 
ENDBRANCH  10  11
ENDBRANCH   9  10
ENDBRANCH   8   9
ENDBRANCH   7   8
END_RES LYS A 135
