REMARK VINA RESULT:    -4.491      1.739      2.810
REMARK INTER + INTRA:         -15.135
REMARK INTER:                  -8.817
REMARK INTRA:                  -6.318
REMARK UNBOUND:                -5.918
REMARK SMILES CC(=O)N[C@@H]1[C@@H](O)C[C@](O)(C(=O)O)O[C@H]1C(O)[C@H](O)CNC(=O)OCc1cn(CCCCCC(=O)O)nn1
REMARK SMILES IDX 25 1 24 2 22 3 21 4 23 6 20 7 18 8 16 9 15 10 9 11 8 12
REMARK SMILES IDX 14 13 6 14 5 15 10 16 11 18 12 19 13 20 7 22 4 24 2 25 1 27
REMARK SMILES IDX 3 28 17 29 19 31 26 33 27 34 38 35 28 36 37 37 29 38 30 39
REMARK SMILES IDX 31 40 32 41 33 42 34 43 35 44 36 45
REMARK H PARENT 21 5 10 17 13 21 7 23 4 26 17 30 19 32 36 46
REMARK Flexibility Score: inf
ROOT
ATOM      1  C   UNL     1      25.706  41.785   8.188  1.00  0.00     0.294 C 
ENDROOT
BRANCH   1   2
ATOM      2  O   UNL     1      24.310  41.564   8.023  1.00  0.00    -0.443 OA
BRANCH   2   3
ATOM      3  C   UNL     1      23.719  40.552   8.789  1.00  0.00     0.407 C 
ATOM      4  N   UNL     1      23.344  39.346   8.133  1.00  0.00    -0.319 N 
ATOM      5  H   UNL     1      23.535  39.273   7.098  1.00  0.00     0.167 HD
ATOM      6  O   UNL     1      23.547  40.760  10.016  1.00  0.00    -0.225 OA
BRANCH   4   7
ATOM      7  C   UNL     1      22.733  38.301   8.892  1.00  0.00     0.154 C 
BRANCH   7   8
ATOM      8  C   UNL     1      21.259  38.109   8.629  1.00  0.00     0.165 C 
BRANCH   8   9
ATOM      9  C   UNL     1      21.096  36.926   7.694  1.00  0.00     0.176 C 
BRANCH   9  10
ATOM     10  C   UNL     1      20.984  35.604   8.376  1.00  0.00     0.178 C 
ATOM     11  C   UNL     1      18.672  35.460   8.027  1.00  0.00     0.269 C 
ATOM     12  C   UNL     1      18.511  35.927   9.483  1.00  0.00     0.112 C 
ATOM     13  O   UNL     1      19.912  34.921   7.838  1.00  0.00    -0.332 OA
ATOM     14  C   UNL     1      19.508  35.112  10.270  1.00  0.00     0.145 C 
ATOM     15  C   UNL     1      20.906  35.613   9.860  1.00  0.00     0.142 C 
BRANCH  11  16
ATOM     16  O   UNL     1      18.333  36.493   7.157  1.00  0.00    -0.357 OA
ATOM     17  H   UNL     1      18.858  36.436   6.297  1.00  0.00     0.214 HD
ENDBRANCH  11  16
BRANCH  11  18
ATOM     18  C   UNL     1      17.679  34.372   7.839  1.00  0.00     0.364 C 
ATOM     19  O   UNL     1      18.034  33.162   7.974  1.00  0.00    -0.246 OA
BRANCH  18  20
ATOM     20  O   UNL     1      16.375  34.704   7.519  1.00  0.00    -0.477 OA
ATOM     21  H   UNL     1      15.707  33.921   7.486  1.00  0.00     0.296 HD
ENDBRANCH  18  20
ENDBRANCH  11  18
BRANCH  14  22
ATOM     22  O   UNL     1      19.330  35.251  11.646  1.00  0.00    -0.391 OA
ATOM     23  H   UNL     1      19.847  36.054  11.919  1.00  0.00     0.211 HD
ENDBRANCH  14  22
BRANCH  15  24
ATOM     24  N   UNL     1      21.914  34.758  10.471  1.00  0.00    -0.348 N 
ATOM     25  C   UNL     1      22.599  35.103  11.653  1.00  0.00     0.217 C 
ATOM     26  H   UNL     1      22.136  33.834  10.003  1.00  0.00     0.163 HD
ATOM     27  C   UNL     1      23.640  34.197  12.260  1.00  0.00     0.114 C 
ATOM     28  O   UNL     1      22.323  36.210  12.210  1.00  0.00    -0.275 OA
ENDBRANCH  15  24
ENDBRANCH   9  10
BRANCH   9  29
ATOM     29  O   UNL     1      22.335  36.880   6.992  1.00  0.00    -0.388 OA
ATOM     30  H   UNL     1      22.689  37.799   7.024  1.00  0.00     0.211 HD
ENDBRANCH   9  29
ENDBRANCH   8   9
BRANCH   8  31
ATOM     31  O   UNL     1      20.756  39.285   8.119  1.00  0.00    -0.388 OA
ATOM     32  H   UNL     1      19.773  39.246   8.020  1.00  0.00     0.211 HD
ENDBRANCH   8  31
ENDBRANCH   7   8
ENDBRANCH   4   7
ENDBRANCH   2   3
ENDBRANCH   1   2
BRANCH   1  33
ATOM     33  C   UNL     1      26.383  40.864   7.246  1.00  0.00     0.120 A 
ATOM     34  C   UNL     1      27.638  40.333   7.462  1.00  0.00     0.138 A 
ATOM     35  N   UNL     1      25.942  40.393   6.080  1.00  0.00    -0.132 NA
ATOM     36  N   UNL     1      27.891  39.555   6.387  1.00  0.00    -0.252 N 
ATOM     37  N   UNL     1      26.867  39.596   5.563  1.00  0.00    -0.067 NA
BRANCH  36  38
ATOM     38  C   UNL     1      29.149  38.817   6.251  1.00  0.00     0.146 C 
BRANCH  38  39
ATOM     39  C   UNL     1      28.882  37.611   5.389  1.00  0.00     0.024 C 
BRANCH  39  40
ATOM     40  C   UNL     1      28.888  36.315   6.171  1.00  0.00     0.002 C 
BRANCH  40  41
ATOM     41  C   UNL     1      27.530  35.721   6.312  1.00  0.00     0.012 C 
BRANCH  41  42
ATOM     42  C   UNL     1      26.970  35.797   7.706  1.00  0.00     0.122 C 
BRANCH  42  43
ATOM     43  C   UNL     1      26.082  36.948   7.930  1.00  0.00     0.303 C 
ATOM     44  O   UNL     1      26.009  37.498   9.041  1.00  0.00    -0.252 OA
BRANCH  43  45
ATOM     45  O   UNL     1      25.292  37.457   6.886  1.00  0.00    -0.481 OA
ATOM     46  H   UNL     1      25.715  37.669   5.976  1.00  0.00     0.296 HD
ENDBRANCH  43  45
ENDBRANCH  42  43
ENDBRANCH  41  42
ENDBRANCH  40  41
ENDBRANCH  39  40
ENDBRANCH  38  39
ENDBRANCH  36  38
ENDBRANCH   1  33
TORSDOF 21
BEGIN_RES LYS A 131
REMARK  4 active torsions:
REMARK  status: ('A' for Active; 'I' for Inactive)
REMARK    1  A    between atoms: CA   and  CB  
REMARK    2  A    between atoms: CB   and  CG  
REMARK    3  A    between atoms: CG   and  CD  
REMARK    4  A    between atoms: CD   and  CE  
ROOT
ATOM      1  CA  LYS A 131      29.867  25.555  16.977  1.00 20.52     0.186 C 
ENDROOT
BRANCH   1   2
ATOM      2  CB  LYS A 131      28.345  25.722  17.026  1.00 20.94     0.034 C 
BRANCH   2   3
ATOM      3  CG  LYS A 131      27.601  24.402  16.890  1.00 22.96     0.005 C 
BRANCH   3   4
ATOM      4  CD  LYS A 131      26.658  24.163  18.036  1.00 24.33     0.041 C 
BRANCH   4   5
ATOM      5  CE  LYS A 131      25.534  23.236  17.586  1.00 26.91     0.338 C 
ATOM      6  NZ  LYS A 131      24.477  24.005  16.886  1.00 27.40     0.618 N 
ENDBRANCH   4   5
ENDBRANCH   3   4
ENDBRANCH   2   3
ENDBRANCH   1   2
END_RES LYS A 131
BEGIN_RES LYS A 135
REMARK  4 active torsions:
REMARK  status: ('A' for Active; 'I' for Inactive)
REMARK    5  A    between atoms: CA   and  CB  
REMARK    6  A    between atoms: CB   and  CG  
REMARK    7  A    between atoms: CG   and  CD  
REMARK    8  A    between atoms: CD   and  CE  
ROOT
ATOM      7  CA  LYS A 135      33.193  34.663   9.290  1.00 25.02     0.186 C 
ENDROOT
BRANCH   7   8
ATOM      8  CB  LYS A 135      32.060  35.360  10.034  1.00 26.63     0.034 C 
BRANCH   8   9
ATOM      9  CG  LYS A 135      30.791  35.475   9.229  1.00 29.45     0.005 C 
BRANCH   9  10
ATOM     10  CD  LYS A 135      30.134  34.113   9.066  1.00 32.00     0.041 C 
BRANCH  10  11
ATOM     11  CE  LYS A 135      28.876  34.025   9.909  1.00 34.25     0.338 C 
ATOM     12  NZ  LYS A 135      28.707  35.242  10.749  1.00 35.99     0.618 N 
ENDBRANCH  10  11
ENDBRANCH   9  10
ENDBRANCH   8   9
ENDBRANCH   7   8
END_RES LYS A 135
