REMARK VINA RESULT:    -4.190      7.842     12.889
REMARK INTER + INTRA:         -14.923
REMARK INTER:                  -9.529
REMARK INTRA:                  -5.394
REMARK UNBOUND:                -7.426
REMARK SMILES CC(=O)N[C@@H]1[C@@H](O)C[C@](O)(C(=O)O)O[C@H]1C(O)[C@H](O)CNC(=O)OCc1cn(Cc2ccccc2Br)nn1
REMARK SMILES IDX 21 1 22 2 23 3 20 5 18 6 16 7 15 8 9 9 8 10 14 11 6 12 5 13
REMARK SMILES IDX 10 14 11 16 12 17 13 18 7 20 4 22 2 23 1 25 3 26 17 27 19 29
REMARK SMILES IDX 24 31 25 32 26 33 27 34 38 35 28 36 37 37 29 38 30 39 31 40
REMARK SMILES IDX 35 41 32 42 34 43 36 44 33 45
REMARK H PARENT 21 4 10 15 13 19 7 21 4 24 17 28 19 30
REMARK Flexibility Score: inf
ROOT
ATOM      1  N   UNL     1      26.266  41.389   7.167  1.00  0.00    -0.319 N 
ATOM      2  C   UNL     1      27.495  41.563   7.810  1.00  0.00     0.407 C 
ATOM      3  O   UNL     1      27.552  41.462   9.067  1.00  0.00    -0.225 OA
ATOM      4  H   UNL     1      26.261  41.480   6.113  1.00  0.00     0.167 HD
ENDROOT
BRANCH   1   5
ATOM      5  C   UNL     1      25.015  41.098   7.833  1.00  0.00     0.154 C 
BRANCH   5   6
ATOM      6  C   UNL     1      24.528  39.728   7.413  1.00  0.00     0.165 C 
BRANCH   6   7
ATOM      7  C   UNL     1      24.914  38.671   8.426  1.00  0.00     0.176 C 
BRANCH   7   8
ATOM      8  C   UNL     1      23.701  38.000   9.040  1.00  0.00     0.178 C 
ATOM      9  C   UNL     1      21.383  37.946   8.792  1.00  0.00     0.269 C 
ATOM     10  C   UNL     1      21.158  38.258  10.223  1.00  0.00     0.112 C 
ATOM     11  O   UNL     1      22.603  38.457   8.377  1.00  0.00    -0.332 OA
ATOM     12  C   UNL     1      22.327  38.679  11.026  1.00  0.00     0.145 C 
ATOM     13  C   UNL     1      23.661  38.201  10.528  1.00  0.00     0.142 C 
BRANCH   9  14
ATOM     14  O   UNL     1      20.416  38.642   8.021  1.00  0.00    -0.357 OA
ATOM     15  H   UNL     1      20.749  38.811   7.101  1.00  0.00     0.214 HD
ENDBRANCH   9  14
BRANCH   9  16
ATOM     16  C   UNL     1      21.222  36.517   8.513  1.00  0.00     0.364 C 
ATOM     17  O   UNL     1      21.174  35.637   9.416  1.00  0.00    -0.246 OA
BRANCH  16  18
ATOM     18  O   UNL     1      21.116  36.090   7.198  1.00  0.00    -0.477 OA
ATOM     19  H   UNL     1      20.541  36.561   6.509  1.00  0.00     0.296 HD
ENDBRANCH  16  18
ENDBRANCH   9  16
BRANCH  12  20
ATOM     20  O   UNL     1      22.328  40.077  11.190  1.00  0.00    -0.391 OA
ATOM     21  H   UNL     1      21.858  40.425  10.367  1.00  0.00     0.211 HD
ENDBRANCH  12  20
BRANCH  13  22
ATOM     22  N   UNL     1      24.110  37.034  11.255  1.00  0.00    -0.348 N 
ATOM     23  C   UNL     1      25.300  37.023  12.026  1.00  0.00     0.217 C 
ATOM     24  H   UNL     1      23.547  36.162  11.220  1.00  0.00     0.163 HD
ATOM     25  C   UNL     1      25.777  35.830  12.781  1.00  0.00     0.114 C 
ATOM     26  O   UNL     1      25.974  38.108  12.053  1.00  0.00    -0.275 OA
ENDBRANCH  13  22
ENDBRANCH   7   8
BRANCH   7  27
ATOM     27  O   UNL     1      25.751  39.225   9.389  1.00  0.00    -0.388 OA
ATOM     28  H   UNL     1      25.184  39.718  10.059  1.00  0.00     0.211 HD
ENDBRANCH   7  27
ENDBRANCH   6   7
BRANCH   6  29
ATOM     29  O   UNL     1      25.163  39.471   6.174  1.00  0.00    -0.388 OA
ATOM     30  H   UNL     1      24.905  38.613   5.802  1.00  0.00     0.211 HD
ENDBRANCH   6  29
ENDBRANCH   5   6
ENDBRANCH   1   5
BRANCH   2  31
ATOM     31  O   UNL     1      28.689  41.843   7.162  1.00  0.00    -0.443 OA
BRANCH  31  32
ATOM     32  C   UNL     1      29.594  40.797   6.851  1.00  0.00     0.294 C 
BRANCH  32  33
ATOM     33  C   UNL     1      28.886  39.592   6.374  1.00  0.00     0.120 A 
ATOM     34  C   UNL     1      28.812  38.348   7.019  1.00  0.00     0.138 A 
ATOM     35  N   UNL     1      28.177  39.411   5.254  1.00  0.00    -0.132 NA
ATOM     36  N   UNL     1      28.099  37.489   6.310  1.00  0.00    -0.248 N 
ATOM     37  N   UNL     1      27.714  38.181   5.211  1.00  0.00    -0.067 NA
BRANCH  36  38
ATOM     38  C   UNL     1      27.719  36.107   6.482  1.00  0.00     0.182 C 
BRANCH  38  39
ATOM     39  C   UNL     1      28.497  35.350   7.454  1.00  0.00    -0.012 A 
ATOM     40  C   UNL     1      29.874  35.173   7.292  1.00  0.00     0.007 A 
ATOM     41  C   UNL     1      27.935  34.810   8.574  1.00  0.00     0.023 A 
ATOM     42  C   UNL     1      30.593  34.487   8.231  1.00  0.00     0.000 A 
ATOM     43  C   UNL     1      28.667  34.117   9.521  1.00  0.00     0.016 A 
ATOM     44  Br  UNL     1      26.037  34.938   8.897  1.00  0.00    -0.050 Br
ATOM     45  C   UNL     1      30.019  33.948   9.355  1.00  0.00     0.001 A 
ENDBRANCH  38  39
ENDBRANCH  36  38
ENDBRANCH  32  33
ENDBRANCH  31  32
ENDBRANCH   2  31
TORSDOF 16
BEGIN_RES LYS A 131
REMARK  4 active torsions:
REMARK  status: ('A' for Active; 'I' for Inactive)
REMARK    1  A    between atoms: CA   and  CB  
REMARK    2  A    between atoms: CB   and  CG  
REMARK    3  A    between atoms: CG   and  CD  
REMARK    4  A    between atoms: CD   and  CE  
ROOT
ATOM      1  CA  LYS A 131      29.867  25.555  16.977  1.00 20.52     0.186 C 
ENDROOT
BRANCH   1   2
ATOM      2  CB  LYS A 131      28.345  25.722  17.026  1.00 20.94     0.034 C 
BRANCH   2   3
ATOM      3  CG  LYS A 131      27.601  24.406  16.863  1.00 22.96     0.005 C 
BRANCH   3   4
ATOM      4  CD  LYS A 131      26.164  24.510  17.293  1.00 24.33     0.041 C 
BRANCH   4   5
ATOM      5  CE  LYS A 131      25.586  23.112  17.482  1.00 26.91     0.338 C 
ATOM      6  NZ  LYS A 131      24.180  23.063  17.015  1.00 27.40     0.618 N 
ENDBRANCH   4   5
ENDBRANCH   3   4
ENDBRANCH   2   3
ENDBRANCH   1   2
END_RES LYS A 131
BEGIN_RES LYS A 135
REMARK  4 active torsions:
REMARK  status: ('A' for Active; 'I' for Inactive)
REMARK    5  A    between atoms: CA   and  CB  
REMARK    6  A    between atoms: CB   and  CG  
REMARK    7  A    between atoms: CG   and  CD  
REMARK    8  A    between atoms: CD   and  CE  
ROOT
ATOM      7  CA  LYS A 135      33.193  34.663   9.290  1.00 25.02     0.186 C 
ENDROOT
BRANCH   7   8
ATOM      8  CB  LYS A 135      32.060  35.360  10.034  1.00 26.63     0.034 C 
BRANCH   8   9
ATOM      9  CG  LYS A 135      32.509  36.076  11.281  1.00 29.45     0.005 C 
BRANCH   9  10
ATOM     10  CD  LYS A 135      31.864  37.450  11.373  1.00 32.00     0.041 C 
BRANCH  10  11
ATOM     11  CE  LYS A 135      30.484  37.434  10.743  1.00 34.25     0.338 C 
ATOM     12  NZ  LYS A 135      29.446  37.042  11.735  1.00 35.99     0.618 N 
ENDBRANCH  10  11
ENDBRANCH   9  10
ENDBRANCH   8   9
ENDBRANCH   7   8
END_RES LYS A 135
