REMARK VINA RESULT:    -5.987      6.219     11.290
REMARK INTER + INTRA:         -16.445
REMARK INTER:                 -10.583
REMARK INTRA:                  -5.862
REMARK UNBOUND:                -6.084
REMARK SMILES CC(=O)N[C@@H]1[C@@H](O)C[C@](O)(C(=O)O)O[C@H]1C(O)[C@H](O)CNC(=O)OCc1cn(-c2c3ccccc3nc3ccccc23)nn1
REMARK SMILES IDX 20 1 18 2 16 3 15 4 9 5 8 6 14 7 6 8 5 9 10 10 11 12 12 13
REMARK SMILES IDX 13 14 7 16 4 18 2 19 1 21 3 22 17 23 19 25 21 27 22 28 23 30
REMARK SMILES IDX 24 31 25 32 26 33 27 34 44 35 28 36 43 37 29 38 30 39 42 40
REMARK SMILES IDX 31 41 35 42 37 43 41 44 32 45 34 46 36 47 38 48 40 49 33 50
REMARK SMILES IDX 39 51
REMARK H PARENT 10 11 13 15 7 17 4 20 17 24 19 26 21 29
REMARK Flexibility Score: inf
ROOT
ATOM      1  C   UNL     1      26.279  27.401  19.057  1.00  0.00     0.154 C 
ENDROOT
BRANCH   1   2
ATOM      2  C   UNL     1      26.601  27.911  20.436  1.00  0.00     0.165 C 
BRANCH   2   3
ATOM      3  C   UNL     1      27.903  27.291  20.838  1.00  0.00     0.176 C 
BRANCH   3   4
ATOM      4  C   UNL     1      29.006  28.299  21.122  1.00  0.00     0.178 C 
ATOM      5  C   UNL     1      30.193  29.894  20.035  1.00  0.00     0.269 C 
ATOM      6  C   UNL     1      31.555  29.390  20.434  1.00  0.00     0.112 C 
ATOM      7  O   UNL     1      29.273  28.903  19.925  1.00  0.00    -0.332 OA
ATOM      8  C   UNL     1      31.516  28.011  21.024  1.00  0.00     0.145 C 
ATOM      9  C   UNL     1      30.223  27.664  21.685  1.00  0.00     0.142 C 
BRANCH   5  10
ATOM     10  O   UNL     1      30.301  30.446  18.716  1.00  0.00    -0.357 OA
ATOM     11  H   UNL     1      31.074  30.040  18.254  1.00  0.00     0.214 HD
ENDBRANCH   5  10
BRANCH   5  12
ATOM     12  C   UNL     1      29.805  31.053  20.877  1.00  0.00     0.364 C 
ATOM     13  O   UNL     1      28.825  31.789  20.587  1.00  0.00    -0.246 OA
BRANCH  12  14
ATOM     14  O   UNL     1      30.502  31.405  22.044  1.00  0.00    -0.477 OA
ATOM     15  H   UNL     1      30.296  32.283  22.494  1.00  0.00     0.296 HD
ENDBRANCH  12  14
ENDBRANCH   5  12
BRANCH   8  16
ATOM     16  O   UNL     1      31.833  27.088  20.022  1.00  0.00    -0.391 OA
ATOM     17  H   UNL     1      31.036  26.852  19.485  1.00  0.00     0.211 HD
ENDBRANCH   8  16
BRANCH   9  18
ATOM     18  N   UNL     1      30.372  27.848  23.133  1.00  0.00    -0.348 N 
ATOM     19  C   UNL     1      30.237  26.778  24.059  1.00  0.00     0.217 C 
ATOM     20  H   UNL     1      30.586  28.782  23.547  1.00  0.00     0.163 HD
ATOM     21  C   UNL     1      30.396  26.984  25.531  1.00  0.00     0.114 C 
ATOM     22  O   UNL     1      29.978  25.618  23.646  1.00  0.00    -0.275 OA
ENDBRANCH   9  18
ENDBRANCH   3   4
BRANCH   3  23
ATOM     23  O   UNL     1      28.340  26.452  19.825  1.00  0.00    -0.388 OA
ATOM     24  H   UNL     1      27.629  26.412  19.139  1.00  0.00     0.211 HD
ENDBRANCH   3  23
ENDBRANCH   2   3
BRANCH   2  25
ATOM     25  O   UNL     1      25.571  27.634  21.302  1.00  0.00    -0.388 OA
ATOM     26  H   UNL     1      24.884  27.103  20.798  1.00  0.00     0.211 HD
ENDBRANCH   2  25
ENDBRANCH   1   2
BRANCH   1  27
ATOM     27  N   UNL     1      26.809  28.144  17.967  1.00  0.00    -0.319 N 
ATOM     28  C   UNL     1      26.067  29.025  17.154  1.00  0.00     0.407 C 
ATOM     29  H   UNL     1      27.853  28.069  17.692  1.00  0.00     0.167 HD
ATOM     30  O   UNL     1      24.846  29.213  17.334  1.00  0.00    -0.225 OA
BRANCH  28  31
ATOM     31  O   UNL     1      26.658  29.740  16.100  1.00  0.00    -0.443 OA
BRANCH  31  32
ATOM     32  C   UNL     1      26.744  31.164  16.151  1.00  0.00     0.294 C 
BRANCH  32  33
ATOM     33  C   UNL     1      28.180  31.528  16.094  1.00  0.00     0.121 A 
ATOM     34  C   UNL     1      28.708  32.801  16.152  1.00  0.00     0.144 A 
ATOM     35  N   UNL     1      29.262  30.721  15.977  1.00  0.00    -0.131 NA
ATOM     36  N   UNL     1      30.048  32.743  16.072  1.00  0.00    -0.219 N 
ATOM     37  N   UNL     1      30.365  31.471  15.966  1.00  0.00    -0.062 NA
BRANCH  36  38
ATOM     38  C   UNL     1      30.960  33.821  16.097  1.00  0.00     0.085 A 
ATOM     39  C   UNL     1      31.580  34.193  17.293  1.00  0.00     0.027 A 
ATOM     40  C   UNL     1      31.278  34.539  14.957  1.00  0.00     0.027 A 
ATOM     41  C   UNL     1      31.305  33.516  18.463  1.00  0.00     0.012 A 
ATOM     42  C   UNL     1      32.466  35.222  17.348  1.00  0.00     0.073 A 
ATOM     43  C   UNL     1      32.179  35.579  15.034  1.00  0.00     0.073 A 
ATOM     44  C   UNL     1      30.667  34.175  13.784  1.00  0.00     0.012 A 
ATOM     45  C   UNL     1      31.889  33.844  19.668  1.00  0.00     0.001 A 
ATOM     46  C   UNL     1      33.064  35.564  18.556  1.00  0.00     0.029 A 
ATOM     47  N   UNL     1      32.749  35.897  16.216  1.00  0.00    -0.248 NA
ATOM     48  C   UNL     1      32.463  36.265  13.878  1.00  0.00     0.029 A 
ATOM     49  C   UNL     1      30.977  34.892  12.626  1.00  0.00     0.001 A 
ATOM     50  C   UNL     1      32.803  34.902  19.734  1.00  0.00     0.002 A 
ATOM     51  C   UNL     1      31.872  35.939  12.658  1.00  0.00     0.002 A 
ENDBRANCH  36  38
ENDBRANCH  32  33
ENDBRANCH  31  32
ENDBRANCH  28  31
ENDBRANCH   1  27
TORSDOF 15
BEGIN_RES LYS A 131
REMARK  4 active torsions:
REMARK  status: ('A' for Active; 'I' for Inactive)
REMARK    1  A    between atoms: CA   and  CB  
REMARK    2  A    between atoms: CB   and  CG  
REMARK    3  A    between atoms: CG   and  CD  
REMARK    4  A    between atoms: CD   and  CE  
ROOT
ATOM      1  CA  LYS A 131      29.867  25.555  16.977  1.00 20.52     0.186 C 
ENDROOT
BRANCH   1   2
ATOM      2  CB  LYS A 131      28.345  25.722  17.026  1.00 20.94     0.034 C 
BRANCH   2   3
ATOM      3  CG  LYS A 131      27.599  24.435  16.709  1.00 22.96     0.005 C 
BRANCH   3   4
ATOM      4  CD  LYS A 131      26.669  24.032  17.820  1.00 24.33     0.041 C 
BRANCH   4   5
ATOM      5  CE  LYS A 131      25.225  24.255  17.381  1.00 26.91     0.338 C 
ATOM      6  NZ  LYS A 131      24.314  24.201  18.548  1.00 27.40     0.618 N 
ENDBRANCH   4   5
ENDBRANCH   3   4
ENDBRANCH   2   3
ENDBRANCH   1   2
END_RES LYS A 131
BEGIN_RES LYS A 135
REMARK  4 active torsions:
REMARK  status: ('A' for Active; 'I' for Inactive)
REMARK    5  A    between atoms: CA   and  CB  
REMARK    6  A    between atoms: CB   and  CG  
REMARK    7  A    between atoms: CG   and  CD  
REMARK    8  A    between atoms: CD   and  CE  
ROOT
ATOM      7  CA  LYS A 135      33.193  34.663   9.290  1.00 25.02     0.186 C 
ENDROOT
BRANCH   7   8
ATOM      8  CB  LYS A 135      32.060  35.360  10.034  1.00 26.63     0.034 C 
BRANCH   8   9
ATOM      9  CG  LYS A 135      30.794  35.482   9.226  1.00 29.45     0.005 C 
BRANCH   9  10
ATOM     10  CD  LYS A 135      30.239  34.107   8.888  1.00 32.00     0.041 C 
BRANCH  10  11
ATOM     11  CE  LYS A 135      28.770  34.020   9.256  1.00 34.25     0.338 C 
ATOM     12  NZ  LYS A 135      28.322  35.249   9.967  1.00 35.99     0.618 N 
ENDBRANCH  10  11
ENDBRANCH   9  10
ENDBRANCH   8   9
ENDBRANCH   7   8
END_RES LYS A 135
