REMARK VINA RESULT:    -5.413      4.812      9.638
REMARK INTER + INTRA:         -17.877
REMARK INTER:                 -10.458
REMARK INTRA:                  -7.419
REMARK UNBOUND:                -7.717
REMARK SMILES CC(=O)N[C@@H]1[C@@H](O)C[C@](O)(C(=O)O)O[C@H]1C(O)[C@H](O)CNC(=O)OCc1cn(-c2ccc(-c3c4ccc(=O)cc-4oc4cc(O)ccc34)c(C(=O)[O-])c2)nn1
REMARK SMILES IDX 21 1 22 2 23 3 20 5 18 6 16 7 15 8 9 9 8 10 14 11 6 12 5 13
REMARK SMILES IDX 10 14 11 16 12 17 13 18 7 20 4 22 2 23 1 25 3 26 17 27 19 29
REMARK SMILES IDX 24 31 25 32 26 33 27 34 55 35 28 36 54 37 29 38 53 39 30 40
REMARK SMILES IDX 49 41 31 42 32 43 50 44 51 45 52 46 33 47 48 48 34 49 47 50
REMARK SMILES IDX 42 51 40 52 35 53 46 54 43 55 41 56 39 57 36 58 44 59 37 60
REMARK SMILES IDX 38 61 45 62
REMARK H PARENT 21 4 10 15 13 19 7 21 4 24 17 28 19 30 45 63
REMARK Flexibility Score: inf
ROOT
ATOM      1  N   UNL     1      25.318  40.045   6.034  1.00  0.00    -0.319 N 
ATOM      2  C   UNL     1      25.048  40.550   7.352  1.00  0.00     0.407 C 
ATOM      3  O   UNL     1      25.992  41.150   7.935  1.00  0.00    -0.225 OA
ATOM      4  H   UNL     1      24.579  39.543   5.509  1.00  0.00     0.167 HD
ENDROOT
BRANCH   1   5
ATOM      5  C   UNL     1      26.611  40.222   5.418  1.00  0.00     0.154 C 
BRANCH   5   6
ATOM      6  C   UNL     1      27.510  39.104   5.832  1.00  0.00     0.165 C 
BRANCH   6   7
ATOM      7  C   UNL     1      28.927  39.279   5.289  1.00  0.00     0.176 C 
BRANCH   7   8
ATOM      8  C   UNL     1      29.950  38.997   6.378  1.00  0.00     0.178 C 
ATOM      9  C   UNL     1      29.553  39.824   8.519  1.00  0.00     0.269 C 
ATOM     10  C   UNL     1      31.025  39.800   8.867  1.00  0.00     0.112 C 
ATOM     11  O   UNL     1      29.280  38.879   7.562  1.00  0.00    -0.332 OA
ATOM     12  C   UNL     1      31.861  39.994   7.654  1.00  0.00     0.145 C 
ATOM     13  C   UNL     1      31.077  39.971   6.365  1.00  0.00     0.142 C 
BRANCH   9  14
ATOM     14  O   UNL     1      29.228  41.108   8.164  1.00  0.00    -0.357 OA
ATOM     15  H   UNL     1      29.783  41.797   8.572  1.00  0.00     0.214 HD
ENDBRANCH   9  14
BRANCH   9  16
ATOM     16  C   UNL     1      28.816  39.448   9.749  1.00  0.00     0.364 C 
ATOM     17  O   UNL     1      29.334  38.652  10.573  1.00  0.00    -0.246 OA
BRANCH  16  18
ATOM     18  O   UNL     1      27.555  39.934  10.053  1.00  0.00    -0.477 OA
ATOM     19  H   UNL     1      27.134  39.799  10.985  1.00  0.00     0.296 HD
ENDBRANCH  16  18
ENDBRANCH   9  16
BRANCH  12  20
ATOM     20  O   UNL     1      32.577  41.187   7.698  1.00  0.00    -0.391 OA
ATOM     21  H   UNL     1      32.614  41.593   8.593  1.00  0.00     0.211 HD
ENDBRANCH  12  20
BRANCH  13  22
ATOM     22  N   UNL     1      32.043  39.613   5.316  1.00  0.00    -0.348 N 
ATOM     23  C   UNL     1      32.630  40.550   4.447  1.00  0.00     0.217 C 
ATOM     24  H   UNL     1      32.293  38.601   5.232  1.00  0.00     0.163 HD
ATOM     25  C   UNL     1      33.595  40.110   3.414  1.00  0.00     0.114 C 
ATOM     26  O   UNL     1      32.286  41.768   4.601  1.00  0.00    -0.275 OA
ENDBRANCH  13  22
ENDBRANCH   7   8
BRANCH   7  27
ATOM     27  O   UNL     1      29.009  40.608   4.858  1.00  0.00    -0.388 OA
ATOM     28  H   UNL     1      28.497  41.149   5.518  1.00  0.00     0.211 HD
ENDBRANCH   7  27
ENDBRANCH   6   7
BRANCH   6  29
ATOM     29  O   UNL     1      26.994  37.861   5.474  1.00  0.00    -0.388 OA
ATOM     30  H   UNL     1      26.964  37.232   6.234  1.00  0.00     0.211 HD
ENDBRANCH   6  29
ENDBRANCH   5   6
ENDBRANCH   1   5
BRANCH   2  31
ATOM     31  O   UNL     1      23.844  40.408   7.975  1.00  0.00    -0.443 OA
BRANCH  31  32
ATOM     32  C   UNL     1      23.226  39.150   8.115  1.00  0.00     0.294 C 
BRANCH  32  33
ATOM     33  C   UNL     1      24.256  38.148   8.454  1.00  0.00     0.121 A 
ATOM     34  C   UNL     1      24.777  37.873   9.720  1.00  0.00     0.144 A 
ATOM     35  N   UNL     1      24.896  37.316   7.621  1.00  0.00    -0.131 NA
ATOM     36  N   UNL     1      25.698  36.898   9.606  1.00  0.00    -0.220 N 
ATOM     37  N   UNL     1      25.746  36.584   8.329  1.00  0.00    -0.062 NA
BRANCH  36  38
ATOM     38  C   UNL     1      26.431  36.376  10.703  1.00  0.00     0.067 A 
ATOM     39  C   UNL     1      26.700  37.051  11.856  1.00  0.00     0.039 A 
ATOM     40  C   UNL     1      26.919  35.071  10.595  1.00  0.00     0.029 A 
ATOM     41  C   UNL     1      27.427  36.497  12.906  1.00  0.00     0.007 A 
ATOM     42  C   UNL     1      27.636  34.505  11.614  1.00  0.00     0.012 A 
ATOM     43  C   UNL     1      27.892  35.225  12.780  1.00  0.00    -0.008 A 
BRANCH  41  44
ATOM     44  C   UNL     1      27.695  37.252  14.128  1.00  0.00     0.072 C 
ATOM     45  O   UNL     1      26.905  37.197  15.122  1.00  0.00    -0.545 OA
ATOM     46  O   UNL     1      28.811  38.038  14.227  1.00  0.00    -0.545 OA
ENDBRANCH  41  44
BRANCH  43  47
ATOM     47  C   UNL     1      28.663  34.536  13.803  1.00  0.00     0.004 A 
ATOM     48  C   UNL     1      30.036  34.583  13.907  1.00  0.00     0.026 A 
ATOM     49  C   UNL     1      27.980  33.780  14.741  1.00  0.00     0.026 A 
ATOM     50  C   UNL     1      30.752  35.326  12.989  1.00  0.00     0.016 A 
ATOM     51  C   UNL     1      30.716  33.903  14.911  1.00  0.00     0.139 A 
ATOM     52  C   UNL     1      28.738  33.087  15.773  1.00  0.00     0.139 A 
ATOM     53  C   UNL     1      26.608  33.667  14.726  1.00  0.00     0.016 A 
ATOM     54  C   UNL     1      32.136  35.405  13.053  1.00  0.00     0.047 A 
ATOM     55  C   UNL     1      32.088  33.962  15.001  1.00  0.00     0.093 A 
ATOM     56  O   UNL     1      30.064  33.189  15.797  1.00  0.00    -0.456 OA
ATOM     57  C   UNL     1      28.075  32.341  16.702  1.00  0.00     0.099 A 
ATOM     58  C   UNL     1      25.991  32.907  15.679  1.00  0.00     0.053 A 
ATOM     59  C   UNL     1      32.783  34.719  14.061  1.00  0.00     0.119 A 
ATOM     60  C   UNL     1      26.701  32.242  16.667  1.00  0.00     0.182 A 
ATOM     61  O   UNL     1      26.084  31.554  17.524  1.00  0.00    -0.290 OA
BRANCH  59  62
ATOM     62  O   UNL     1      34.164  34.791  14.132  1.00  0.00    -0.508 OA
ATOM     63  H   UNL     1      34.697  34.595  14.958  1.00  0.00     0.293 HD
ENDBRANCH  59  62
ENDBRANCH  43  47
ENDBRANCH  36  38
ENDBRANCH  32  33
ENDBRANCH  31  32
ENDBRANCH   2  31
TORSDOF 18
BEGIN_RES LYS A 131
REMARK  4 active torsions:
REMARK  status: ('A' for Active; 'I' for Inactive)
REMARK    1  A    between atoms: CA   and  CB  
REMARK    2  A    between atoms: CB   and  CG  
REMARK    3  A    between atoms: CG   and  CD  
REMARK    4  A    between atoms: CD   and  CE  
ROOT
ATOM      1  CA  LYS A 131      29.867  25.555  16.977  1.00 20.52     0.186 C 
ENDROOT
BRANCH   1   2
ATOM      2  CB  LYS A 131      28.345  25.722  17.026  1.00 20.94     0.034 C 
BRANCH   2   3
ATOM      3  CG  LYS A 131      27.601  24.403  16.887  1.00 22.96     0.005 C 
BRANCH   3   4
ATOM      4  CD  LYS A 131      26.342  24.373  17.708  1.00 24.33     0.041 C 
BRANCH   4   5
ATOM      5  CE  LYS A 131      26.224  25.667  18.507  1.00 26.91     0.338 C 
ATOM      6  NZ  LYS A 131      25.651  25.400  19.847  1.00 27.40     0.618 N 
ENDBRANCH   4   5
ENDBRANCH   3   4
ENDBRANCH   2   3
ENDBRANCH   1   2
END_RES LYS A 131
BEGIN_RES LYS A 135
REMARK  4 active torsions:
REMARK  status: ('A' for Active; 'I' for Inactive)
REMARK    5  A    between atoms: CA   and  CB  
REMARK    6  A    between atoms: CB   and  CG  
REMARK    7  A    between atoms: CG   and  CD  
REMARK    8  A    between atoms: CD   and  CE  
ROOT
ATOM      7  CA  LYS A 135      33.193  34.663   9.290  1.00 25.02     0.186 C 
ENDROOT
BRANCH   7   8
ATOM      8  CB  LYS A 135      32.060  35.360  10.034  1.00 26.63     0.034 C 
BRANCH   8   9
ATOM      9  CG  LYS A 135      30.884  35.703   9.156  1.00 29.45     0.005 C 
BRANCH   9  10
ATOM     10  CD  LYS A 135      30.283  34.445   8.549  1.00 32.00     0.041 C 
BRANCH  10  11
ATOM     11  CE  LYS A 135      28.934  34.746   7.926  1.00 34.25     0.338 C 
ATOM     12  NZ  LYS A 135      29.090  35.451   6.623  1.00 35.99     0.618 N 
ENDBRANCH  10  11
ENDBRANCH   9  10
ENDBRANCH   8   9
ENDBRANCH   7   8
END_RES LYS A 135
