REMARK VINA RESULT:    -4.999      6.897     12.663
REMARK INTER + INTRA:         -14.568
REMARK INTER:                 -10.652
REMARK INTRA:                  -3.916
REMARK UNBOUND:                -5.917
REMARK SMILES CC(=O)N[C@@H]1[C@@H](O)C[C@](O)(C(=O)O)O[C@H]1C(O)[C@H](O)CNC(=O)OCc1cn(-c2c(C)cc(C)cc2C)nn1
REMARK SMILES IDX 20 1 18 2 16 3 15 4 9 5 8 6 14 7 6 8 5 9 10 10 11 12 12 13
REMARK SMILES IDX 13 14 7 16 4 18 2 19 1 21 3 22 17 23 19 25 21 27 22 28 23 30
REMARK SMILES IDX 24 31 25 32 26 33 27 34 39 35 28 36 38 37 29 38 30 39 36 40
REMARK SMILES IDX 31 41 32 42 35 43 37 44 33 45 34 46
REMARK H PARENT 10 11 13 15 7 17 4 20 17 24 19 26 21 29
REMARK Flexibility Score: inf
ROOT
ATOM      1  C   UNL     1      27.712  36.505  11.989  1.00  0.00     0.154 C 
ENDROOT
BRANCH   1   2
ATOM      2  C   UNL     1      27.039  37.274  10.910  1.00  0.00     0.165 C 
BRANCH   2   3
ATOM      3  C   UNL     1      26.259  36.460   9.929  1.00  0.00     0.176 C 
BRANCH   3   4
ATOM      4  C   UNL     1      26.992  36.014   8.719  1.00  0.00     0.178 C 
ATOM      5  C   UNL     1      29.225  35.673   8.117  1.00  0.00     0.269 C 
ATOM      6  C   UNL     1      28.849  35.624   6.663  1.00  0.00     0.112 C 
ATOM      7  O   UNL     1      28.202  35.445   8.986  1.00  0.00    -0.332 OA
ATOM      8  C   UNL     1      27.510  36.208   6.367  1.00  0.00     0.145 C 
ATOM      9  C   UNL     1      27.047  37.008   7.598  1.00  0.00     0.142 C 
BRANCH   5  10
ATOM     10  O   UNL     1      29.816  36.911   8.362  1.00  0.00    -0.357 OA
ATOM     11  H   UNL     1      29.433  37.562   7.706  1.00  0.00     0.214 HD
ENDBRANCH   5  10
BRANCH   5  12
ATOM     12  C   UNL     1      30.249  34.616   8.330  1.00  0.00     0.364 C 
ATOM     13  O   UNL     1      30.097  33.757   9.222  1.00  0.00    -0.246 OA
BRANCH  12  14
ATOM     14  O   UNL     1      31.402  34.563   7.536  1.00  0.00    -0.477 OA
ATOM     15  H   UNL     1      32.109  33.844   7.748  1.00  0.00     0.296 HD
ENDBRANCH  12  14
ENDBRANCH   5  12
BRANCH   8  16
ATOM     16  O   UNL     1      27.454  36.965   5.214  1.00  0.00    -0.391 OA
ATOM     17  H   UNL     1      28.338  37.430   5.122  1.00  0.00     0.211 HD
ENDBRANCH   8  16
BRANCH   9  18
ATOM     18  N   UNL     1      25.743  37.508   7.248  1.00  0.00    -0.348 N 
ATOM     19  C   UNL     1      25.439  38.864   7.541  1.00  0.00     0.217 C 
ATOM     20  H   UNL     1      25.014  36.910   6.786  1.00  0.00     0.163 HD
ATOM     21  C   UNL     1      24.122  39.474   7.222  1.00  0.00     0.114 C 
ATOM     22  O   UNL     1      26.293  39.603   8.092  1.00  0.00    -0.275 OA
ENDBRANCH   9  18
ENDBRANCH   3   4
BRANCH   3  23
ATOM     23  O   UNL     1      25.751  35.351  10.601  1.00  0.00    -0.388 OA
ATOM     24  H   UNL     1      24.904  35.093  10.160  1.00  0.00     0.211 HD
ENDBRANCH   3  23
ENDBRANCH   2   3
BRANCH   2  25
ATOM     25  O   UNL     1      27.923  38.160  10.290  1.00  0.00    -0.388 OA
ATOM     26  H   UNL     1      27.795  38.185   9.309  1.00  0.00     0.211 HD
ENDBRANCH   2  25
ENDBRANCH   1   2
BRANCH   1  27
ATOM     27  N   UNL     1      26.847  36.238  13.121  1.00  0.00    -0.319 N 
ATOM     28  C   UNL     1      27.059  35.158  14.023  1.00  0.00     0.407 C 
ATOM     29  H   UNL     1      25.998  36.839  13.341  1.00  0.00     0.167 HD
ATOM     30  O   UNL     1      28.023  34.386  13.863  1.00  0.00    -0.225 OA
BRANCH  28  31
ATOM     31  O   UNL     1      26.198  34.939  15.102  1.00  0.00    -0.443 OA
BRANCH  31  32
ATOM     32  C   UNL     1      24.845  35.413  15.019  1.00  0.00     0.294 C 
BRANCH  32  33
ATOM     33  C   UNL     1      24.136  34.613  13.988  1.00  0.00     0.121 A 
ATOM     34  C   UNL     1      23.494  33.406  14.208  1.00  0.00     0.144 A 
ATOM     35  N   UNL     1      23.976  34.878  12.699  1.00  0.00    -0.131 NA
ATOM     36  N   UNL     1      22.965  32.970  13.062  1.00  0.00    -0.220 N 
ATOM     37  N   UNL     1      23.288  33.912  12.159  1.00  0.00    -0.062 NA
BRANCH  36  38
ATOM     38  C   UNL     1      22.220  31.792  12.786  1.00  0.00     0.072 A 
ATOM     39  C   UNL     1      22.847  30.567  12.746  1.00  0.00    -0.025 A 
ATOM     40  C   UNL     1      20.855  31.829  12.548  1.00  0.00    -0.025 A 
ATOM     41  C   UNL     1      24.304  30.500  12.998  1.00  0.00     0.047 C 
ATOM     42  C   UNL     1      22.109  29.408  12.472  1.00  0.00     0.009 A 
ATOM     43  C   UNL     1      20.136  30.680  12.279  1.00  0.00     0.009 A 
ATOM     44  C   UNL     1      20.187  33.178  12.596  1.00  0.00     0.047 C 
ATOM     45  C   UNL     1      20.751  29.448  12.237  1.00  0.00    -0.050 A 
ATOM     46  C   UNL     1      19.987  28.197  11.948  1.00  0.00     0.044 C 
ENDBRANCH  36  38
ENDBRANCH  32  33
ENDBRANCH  31  32
ENDBRANCH  28  31
ENDBRANCH   1  27
TORSDOF 15
BEGIN_RES LYS A 131
REMARK  4 active torsions:
REMARK  status: ('A' for Active; 'I' for Inactive)
REMARK    1  A    between atoms: CA   and  CB  
REMARK    2  A    between atoms: CB   and  CG  
REMARK    3  A    between atoms: CG   and  CD  
REMARK    4  A    between atoms: CD   and  CE  
ROOT
ATOM      1  CA  LYS A 131      29.867  25.555  16.977  1.00 20.52     0.186 C 
ENDROOT
BRANCH   1   2
ATOM      2  CB  LYS A 131      28.345  25.722  17.026  1.00 20.94     0.034 C 
BRANCH   2   3
ATOM      3  CG  LYS A 131      27.601  24.401  16.903  1.00 22.96     0.005 C 
BRANCH   3   4
ATOM      4  CD  LYS A 131      26.155  24.527  17.292  1.00 24.33     0.041 C 
BRANCH   4   5
ATOM      5  CE  LYS A 131      25.950  23.945  18.688  1.00 26.91     0.338 C 
ATOM      6  NZ  LYS A 131      25.528  25.004  19.635  1.00 27.40     0.618 N 
ENDBRANCH   4   5
ENDBRANCH   3   4
ENDBRANCH   2   3
ENDBRANCH   1   2
END_RES LYS A 131
BEGIN_RES LYS A 135
REMARK  4 active torsions:
REMARK  status: ('A' for Active; 'I' for Inactive)
REMARK    5  A    between atoms: CA   and  CB  
REMARK    6  A    between atoms: CB   and  CG  
REMARK    7  A    between atoms: CG   and  CD  
REMARK    8  A    between atoms: CD   and  CE  
ROOT
ATOM      7  CA  LYS A 135      33.193  34.663   9.290  1.00 25.02     0.186 C 
ENDROOT
BRANCH   7   8
ATOM      8  CB  LYS A 135      32.060  35.360  10.034  1.00 26.63     0.034 C 
BRANCH   8   9
ATOM      9  CG  LYS A 135      32.472  35.919  11.372  1.00 29.45     0.005 C 
BRANCH   9  10
ATOM     10  CD  LYS A 135      31.894  37.311  11.572  1.00 32.00     0.041 C 
BRANCH  10  11
ATOM     11  CE  LYS A 135      31.499  37.520  13.022  1.00 34.25     0.338 C 
ATOM     12  NZ  LYS A 135      32.190  36.546  13.912  1.00 35.99     0.618 N 
ENDBRANCH  10  11
ENDBRANCH   9  10
ENDBRANCH   8   9
ENDBRANCH   7   8
END_RES LYS A 135
