REMARK VINA RESULT:    -5.649      3.700      7.096
REMARK INTER + INTRA:         -14.273
REMARK INTER:                  -8.188
REMARK INTRA:                  -6.085
REMARK UNBOUND:                -4.497
REMARK SMILES CC(=O)N[C@@H]1[C@@H](O)C[C@](O)(C(=O)O)O[C@H]1C(O)[C@H](O)CNC(=O)OCc1cn(-c2cccc(Cl)c2)nn1
REMARK SMILES IDX 20 1 18 2 16 3 15 4 9 5 8 6 14 7 6 8 5 9 10 10 11 12 12 13
REMARK SMILES IDX 13 14 7 16 4 18 2 19 1 21 3 22 17 23 19 25 21 27 22 28 23 30
REMARK SMILES IDX 24 31 25 32 26 33 27 34 37 35 28 36 36 37 29 38 30 39 35 40
REMARK SMILES IDX 31 41 33 42 32 43 34 44
REMARK H PARENT 10 11 13 15 7 17 4 20 17 24 19 26 21 29
REMARK Flexibility Score: inf
ROOT
ATOM      1  C   UNL     1      26.488  35.990  15.328  1.00  0.00     0.154 C 
ENDROOT
BRANCH   1   2
ATOM      2  C   UNL     1      27.986  36.069  15.251  1.00  0.00     0.165 C 
BRANCH   2   3
ATOM      3  C   UNL     1      28.665  34.785  15.632  1.00  0.00     0.176 C 
BRANCH   3   4
ATOM      4  C   UNL     1      30.137  35.028  15.973  1.00  0.00     0.178 C 
ATOM      5  C   UNL     1      31.547  34.745  14.112  1.00  0.00     0.269 C 
ATOM      6  C   UNL     1      32.473  33.902  14.977  1.00  0.00     0.112 C 
ATOM      7  O   UNL     1      30.748  35.513  14.886  1.00  0.00    -0.332 OA
ATOM      8  C   UNL     1      31.527  32.944  15.698  1.00  0.00     0.145 C 
ATOM      9  C   UNL     1      30.672  33.790  16.601  1.00  0.00     0.142 C 
BRANCH   5  10
ATOM     10  O   UNL     1      30.870  33.849  13.294  1.00  0.00    -0.357 OA
ATOM     11  H   UNL     1      31.381  33.745  12.454  1.00  0.00     0.214 HD
ENDBRANCH   5  10
BRANCH   5  12
ATOM     12  C   UNL     1      32.360  35.638  13.253  1.00  0.00     0.364 C 
ATOM     13  O   UNL     1      32.155  36.872  13.293  1.00  0.00    -0.246 OA
BRANCH  12  14
ATOM     14  O   UNL     1      33.347  35.165  12.400  1.00  0.00    -0.477 OA
ATOM     15  H   UNL     1      33.117  35.057  11.407  1.00  0.00     0.296 HD
ENDBRANCH  12  14
ENDBRANCH   5  12
BRANCH   8  16
ATOM     16  O   UNL     1      30.688  32.286  14.805  1.00  0.00    -0.391 OA
ATOM     17  H   UNL     1      30.198  32.921  14.209  1.00  0.00     0.211 HD
ENDBRANCH   8  16
BRANCH   9  18
ATOM     18  N   UNL     1      31.474  34.105  17.765  1.00  0.00    -0.348 N 
ATOM     19  C   UNL     1      31.146  33.529  19.019  1.00  0.00     0.217 C 
ATOM     20  H   UNL     1      32.305  34.762  17.702  1.00  0.00     0.163 HD
ATOM     21  C   UNL     1      31.973  33.857  20.209  1.00  0.00     0.114 C 
ATOM     22  O   UNL     1      30.164  32.748  19.113  1.00  0.00    -0.275 OA
ENDBRANCH   9  18
ENDBRANCH   3   4
BRANCH   3  23
ATOM     23  O   UNL     1      28.578  33.942  14.503  1.00  0.00    -0.388 OA
ATOM     24  H   UNL     1      29.450  33.790  14.113  1.00  0.00     0.211 HD
ENDBRANCH   3  23
ENDBRANCH   2   3
BRANCH   2  25
ATOM     25  O   UNL     1      28.429  37.087  16.113  1.00  0.00    -0.388 OA
ATOM     26  H   UNL     1      29.256  37.460  15.758  1.00  0.00     0.211 HD
ENDBRANCH   2  25
ENDBRANCH   1   2
BRANCH   1  27
ATOM     27  N   UNL     1      26.086  34.677  15.819  1.00  0.00    -0.319 N 
ATOM     28  C   UNL     1      25.206  33.861  15.066  1.00  0.00     0.407 C 
ATOM     29  H   UNL     1      26.464  34.362  16.734  1.00  0.00     0.167 HD
ATOM     30  O   UNL     1      24.773  34.283  13.964  1.00  0.00    -0.225 OA
BRANCH  28  31
ATOM     31  O   UNL     1      24.798  32.608  15.495  1.00  0.00    -0.443 OA
BRANCH  31  32
ATOM     32  C   UNL     1      25.422  31.474  14.935  1.00  0.00     0.294 C 
BRANCH  32  33
ATOM     33  C   UNL     1      26.542  31.046  15.813  1.00  0.00     0.121 A 
ATOM     34  C   UNL     1      26.455  30.220  16.920  1.00  0.00     0.144 A 
ATOM     35  N   UNL     1      27.846  31.364  15.721  1.00  0.00    -0.131 NA
ATOM     36  N   UNL     1      27.686  30.060  17.461  1.00  0.00    -0.220 N 
ATOM     37  N   UNL     1      28.506  30.771  16.705  1.00  0.00    -0.062 NA
BRANCH  36  38
ATOM     38  C   UNL     1      28.021  29.287  18.606  1.00  0.00     0.068 A 
ATOM     39  C   UNL     1      27.500  28.018  18.736  1.00  0.00     0.028 A 
ATOM     40  C   UNL     1      28.850  29.741  19.611  1.00  0.00     0.049 A 
ATOM     41  C   UNL     1      27.796  27.227  19.834  1.00  0.00     0.004 A 
ATOM     42  C   UNL     1      29.166  28.982  20.716  1.00  0.00     0.043 A 
ATOM     43  C   UNL     1      28.628  27.715  20.817  1.00  0.00     0.020 A 
ATOM     44  Cl  UNL     1      30.235  29.604  21.983  1.00  0.00    -0.084 Cl
ENDBRANCH  36  38
ENDBRANCH  32  33
ENDBRANCH  31  32
ENDBRANCH  28  31
ENDBRANCH   1  27
TORSDOF 15
BEGIN_RES LYS A 131
REMARK  4 active torsions:
REMARK  status: ('A' for Active; 'I' for Inactive)
REMARK    1  A    between atoms: CA   and  CB  
REMARK    2  A    between atoms: CB   and  CG  
REMARK    3  A    between atoms: CG   and  CD  
REMARK    4  A    between atoms: CD   and  CE  
ROOT
ATOM      1  CA  LYS A 131      29.867  25.555  16.977  1.00 20.52     0.186 C 
ENDROOT
BRANCH   1   2
ATOM      2  CB  LYS A 131      28.345  25.722  17.026  1.00 20.94     0.034 C 
BRANCH   2   3
ATOM      3  CG  LYS A 131      27.600  24.407  16.855  1.00 22.96     0.005 C 
BRANCH   3   4
ATOM      4  CD  LYS A 131      26.728  24.091  18.038  1.00 24.33     0.041 C 
BRANCH   4   5
ATOM      5  CE  LYS A 131      25.553  23.229  17.589  1.00 26.91     0.338 C 
ATOM      6  NZ  LYS A 131      24.514  24.065  16.943  1.00 27.40     0.618 N 
ENDBRANCH   4   5
ENDBRANCH   3   4
ENDBRANCH   2   3
ENDBRANCH   1   2
END_RES LYS A 131
BEGIN_RES LYS A 135
REMARK  4 active torsions:
REMARK  status: ('A' for Active; 'I' for Inactive)
REMARK    5  A    between atoms: CA   and  CB  
REMARK    6  A    between atoms: CB   and  CG  
REMARK    7  A    between atoms: CG   and  CD  
REMARK    8  A    between atoms: CD   and  CE  
ROOT
ATOM      7  CA  LYS A 135      33.193  34.663   9.290  1.00 25.02     0.186 C 
ENDROOT
BRANCH   7   8
ATOM      8  CB  LYS A 135      32.060  35.360  10.034  1.00 26.63     0.034 C 
BRANCH   8   9
ATOM      9  CG  LYS A 135      30.715  34.713   9.826  1.00 29.45     0.005 C 
BRANCH   9  10
ATOM     10  CD  LYS A 135      30.460  34.470   8.346  1.00 32.00     0.041 C 
BRANCH  10  11
ATOM     11  CE  LYS A 135      29.089  34.982   7.950  1.00 34.25     0.338 C 
ATOM     12  NZ  LYS A 135      28.877  36.375   8.433  1.00 35.99     0.618 N 
ENDBRANCH  10  11
ENDBRANCH   9  10
ENDBRANCH   8   9
ENDBRANCH   7   8
END_RES LYS A 135
