REMARK VINA RESULT:    -9.081      3.699      7.333
REMARK INTER + INTRA:         -13.286
REMARK INTER:                  -8.467
REMARK INTRA:                  -4.819
REMARK UNBOUND:                 4.555
REMARK SMILES CC(=O)N[C@@H]1[C@@H](O)C[C@](O)(C(=O)O)O[C@H]1C(O)[C@H](O)CNC(=O)OCc1cn(C2CCc3ccccc3NC2=O)nn1
REMARK SMILES IDX 24 1 22 2 21 3 23 5 20 6 18 7 16 8 15 9 9 10 8 11 14 12 6 13
REMARK SMILES IDX 5 14 10 15 11 17 12 18 13 19 7 21 4 23 2 24 1 26 3 27 17 28
REMARK SMILES IDX 19 30 25 32 26 33 27 34 42 35 28 36 41 37 29 38 39 40 38 41
REMARK SMILES IDX 40 42 37 44 32 45 36 46 33 47 35 48 34 49 31 50 30 51
REMARK H PARENT 21 4 10 16 13 20 7 22 4 25 17 29 19 31 38 43
REMARK Flexibility Score: 80.00
ROOT
ATOM      1  O   UNL     1      31.199  40.643  12.318  1.00  0.00    -0.443 OA
ENDROOT
BRANCH   1   2
ATOM      2  C   UNL     1      31.269  40.611  10.946  1.00  0.00     0.407 C 
ATOM      3  N   UNL     1      31.635  39.399  10.273  1.00  0.00    -0.319 N 
ATOM      4  H   UNL     1      31.835  38.574  10.886  1.00  0.00     0.167 HD
ATOM      5  O   UNL     1      31.020  41.620  10.239  1.00  0.00    -0.225 OA
BRANCH   3   6
ATOM      6  C   UNL     1      31.723  39.322   8.826  1.00  0.00     0.154 C 
BRANCH   6   7
ATOM      7  C   UNL     1      30.699  38.325   8.341  1.00  0.00     0.165 C 
BRANCH   7   8
ATOM      8  C   UNL     1      29.321  38.587   8.909  1.00  0.00     0.176 C 
BRANCH   8   9
ATOM      9  C   UNL     1      28.286  37.655   8.259  1.00  0.00     0.178 C 
ATOM     10  C   UNL     1      28.020  35.331   8.082  1.00  0.00     0.269 C 
ATOM     11  C   UNL     1      27.408  35.607   6.744  1.00  0.00     0.112 C 
ATOM     12  O   UNL     1      28.481  36.426   8.760  1.00  0.00    -0.332 OA
ATOM     13  C   UNL     1      28.376  36.527   6.018  1.00  0.00     0.145 C 
ATOM     14  C   UNL     1      28.426  37.826   6.782  1.00  0.00     0.142 C 
BRANCH  10  15
ATOM     15  O   UNL     1      29.144  34.501   7.884  1.00  0.00    -0.357 OA
ATOM     16  H   UNL     1      29.890  35.124   7.683  1.00  0.00     0.214 HD
ENDBRANCH  10  15
BRANCH  10  17
ATOM     17  C   UNL     1      27.099  34.594   8.984  1.00  0.00     0.364 C 
ATOM     18  O   UNL     1      25.872  34.823   8.925  1.00  0.00    -0.246 OA
BRANCH  17  19
ATOM     19  O   UNL     1      27.553  33.650   9.901  1.00  0.00    -0.477 OA
ATOM     20  H   UNL     1      28.456  33.855  10.353  1.00  0.00     0.296 HD
ENDBRANCH  17  19
ENDBRANCH  10  17
BRANCH  13  21
ATOM     21  O   UNL     1      29.630  35.928   6.072  1.00  0.00    -0.391 OA
ATOM     22  H   UNL     1      29.687  35.431   6.923  1.00  0.00     0.211 HD
ENDBRANCH  13  21
BRANCH  14  23
ATOM     23  N   UNL     1      27.308  38.629   6.320  1.00  0.00    -0.348 N 
ATOM     24  C   UNL     1      27.459  39.848   5.607  1.00  0.00     0.217 C 
ATOM     25  H   UNL     1      26.319  38.290   6.523  1.00  0.00     0.163 HD
ATOM     26  C   UNL     1      26.241  40.580   5.188  1.00  0.00     0.114 C 
ATOM     27  O   UNL     1      28.624  40.258   5.361  1.00  0.00    -0.275 OA
ENDBRANCH  14  23
ENDBRANCH   8   9
BRANCH   8  28
ATOM     28  O   UNL     1      28.992  39.901   8.558  1.00  0.00    -0.388 OA
ATOM     29  H   UNL     1      28.746  40.002   7.614  1.00  0.00     0.211 HD
ENDBRANCH   8  28
ENDBRANCH   7   8
BRANCH   7  30
ATOM     30  O   UNL     1      31.100  37.020   8.602  1.00  0.00    -0.388 OA
ATOM     31  H   UNL     1      31.996  36.970   8.995  1.00  0.00     0.211 HD
ENDBRANCH   7  30
ENDBRANCH   6   7
ENDBRANCH   3   6
ENDBRANCH   1   2
BRANCH   1  32
ATOM     32  C   UNL     1      30.010  41.009  12.997  1.00  0.00     0.294 C 
BRANCH  32  33
ATOM     33  C   UNL     1      29.118  39.838  13.188  1.00  0.00     0.120 A 
ATOM     34  C   UNL     1      28.438  39.184  12.154  1.00  0.00     0.139 A 
ATOM     35  N   UNL     1      28.771  39.177  14.307  1.00  0.00    -0.132 NA
ATOM     36  N   UNL     1      27.721  38.176  12.676  1.00  0.00    -0.240 N 
ATOM     37  N   UNL     1      27.945  38.201  13.971  1.00  0.00    -0.066 NA
BRANCH  36  38
ATOM     38  C   UNL     1      26.867  37.255  11.957  1.00  0.00     0.198 CG0
ATOM     39  G   UNL     1      25.442  37.553  12.295  1.00  0.00     0.000 G0
BRANCH  38  40
ATOM     40  C   UNL     1      27.240  35.840  12.234  1.00  0.00     0.249 C 
ATOM     41  N   UNL     1      26.468  34.700  12.564  1.00  0.00    -0.324 N 
ATOM     42  O   UNL     1      28.479  35.652  12.153  1.00  0.00    -0.272 OA
ATOM     43  H   UNL     1      26.947  33.866  12.966  1.00  0.00     0.170 HD
BRANCH  41  44
ATOM     44  C   UNL     1      25.047  34.536  12.410  1.00  0.00     0.044 A 
ATOM     45  C   UNL     1      24.154  35.447  11.877  1.00  0.00    -0.024 A 
ATOM     46  C   UNL     1      24.645  33.299  12.876  1.00  0.00     0.026 A 
ATOM     47  C   UNL     1      22.839  35.103  11.814  1.00  0.00     0.006 A 
ATOM     48  C   UNL     1      23.312  32.954  12.811  1.00  0.00     0.002 A 
ATOM     49  C   UNL     1      22.424  33.862  12.280  1.00  0.00     0.000 A 
BRANCH  45  50
ATOM     50  C   UNL     1      24.473  36.800  11.347  1.00  0.00     0.040 C 
BRANCH  50  51
ATOM     51  C   UNL     1      25.411  37.571  12.261  1.00  0.00     0.042 CG0
ATOM     52  G   UNL     1      26.848  37.274  11.981  1.00  0.00     0.000 G0
ENDBRANCH  50  51
ENDBRANCH  45  50
ENDBRANCH  41  44
ENDBRANCH  38  40
ENDBRANCH  36  38
ENDBRANCH  32  33
ENDBRANCH   1  32
TORSDOF 15
BEGIN_RES LYS A 131
REMARK  4 active torsions:
REMARK  status: ('A' for Active; 'I' for Inactive)
REMARK    1  A    between atoms: CA   and  CB  
REMARK    2  A    between atoms: CB   and  CG  
REMARK    3  A    between atoms: CG   and  CD  
REMARK    4  A    between atoms: CD   and  CE  
ROOT
ATOM      1  CA  LYS A 131      29.867  25.555  16.977  1.00 20.52     0.186 C 
ENDROOT
BRANCH   1   2
ATOM      2  CB  LYS A 131      28.345  25.722  17.026  1.00 20.94     0.034 C 
BRANCH   2   3
ATOM      3  CG  LYS A 131      27.602  24.398  16.928  1.00 22.96     0.005 C 
BRANCH   3   4
ATOM      4  CD  LYS A 131      26.528  24.273  17.973  1.00 24.33     0.041 C 
BRANCH   4   5
ATOM      5  CE  LYS A 131      25.159  24.393  17.313  1.00 26.91     0.338 C 
ATOM      6  NZ  LYS A 131      24.320  23.215  17.640  1.00 27.40     0.618 N 
ENDBRANCH   4   5
ENDBRANCH   3   4
ENDBRANCH   2   3
ENDBRANCH   1   2
END_RES LYS A 131
BEGIN_RES LYS A 135
REMARK  4 active torsions:
REMARK  status: ('A' for Active; 'I' for Inactive)
REMARK    5  A    between atoms: CA   and  CB  
REMARK    6  A    between atoms: CB   and  CG  
REMARK    7  A    between atoms: CG   and  CD  
REMARK    8  A    between atoms: CD   and  CE  
ROOT
ATOM      7  CA  LYS A 135      33.193  34.663   9.290  1.00 25.02     0.186 C 
ENDROOT
BRANCH   7   8
ATOM      8  CB  LYS A 135      32.060  35.360  10.034  1.00 26.63     0.034 C 
BRANCH   8   9
ATOM      9  CG  LYS A 135      32.117  35.174  11.528  1.00 29.45     0.005 C 
BRANCH   9  10
ATOM     10  CD  LYS A 135      32.255  36.516  12.231  1.00 32.00     0.041 C 
BRANCH  10  11
ATOM     11  CE  LYS A 135      32.256  36.331  13.736  1.00 34.25     0.338 C 
ATOM     12  NZ  LYS A 135      30.871  36.358  14.281  1.00 35.99     0.618 N 
ENDBRANCH  10  11
ENDBRANCH   9  10
ENDBRANCH   8   9
ENDBRANCH   7   8
END_RES LYS A 135
