REMARK VINA RESULT:    -4.766      3.027      4.296
REMARK INTER + INTRA:         -14.714
REMARK INTER:                 -11.114
REMARK INTRA:                  -3.600
REMARK UNBOUND:                -6.187
REMARK SMILES CC(=O)N[C@@H]1[C@@H](O)C[C@](O)(C(=O)O)O[C@H]1C(O)[C@H](O)CNC(=O)OCc1cn(-c2cc(Cl)ccc2C(=O)N(C)C)nn1
REMARK SMILES IDX 21 1 22 2 23 3 20 5 18 6 16 7 15 8 9 9 8 10 14 11 6 12 5 13
REMARK SMILES IDX 10 14 11 16 12 17 13 18 7 20 4 22 2 23 1 25 3 26 17 27 19 29
REMARK SMILES IDX 24 31 25 32 26 33 27 34 42 35 28 36 41 37 29 38 30 39 35 40
REMARK SMILES IDX 31 41 34 42 32 43 33 44 36 45 37 46 38 47 39 48 40 49
REMARK H PARENT 21 4 10 15 13 19 7 21 4 24 17 28 19 30
REMARK Flexibility Score: inf
ROOT
ATOM      1  N   UNL     1      25.759  33.877  13.220  1.00  0.00    -0.319 N 
ATOM      2  C   UNL     1      25.166  32.755  13.818  1.00  0.00     0.407 C 
ATOM      3  O   UNL     1      24.364  32.049  13.175  1.00  0.00    -0.225 OA
ATOM      4  H   UNL     1      26.433  34.459  13.768  1.00  0.00     0.167 HD
ENDROOT
BRANCH   1   5
ATOM      5  C   UNL     1      25.479  34.271  11.865  1.00  0.00     0.154 C 
BRANCH   5   6
ATOM      6  C   UNL     1      26.744  34.751  11.200  1.00  0.00     0.165 C 
BRANCH   6   7
ATOM      7  C   UNL     1      26.530  35.993  10.373  1.00  0.00     0.176 C 
BRANCH   7   8
ATOM      8  C   UNL     1      27.323  35.941   9.123  1.00  0.00     0.178 C 
ATOM      9  C   UNL     1      29.385  35.769   8.134  1.00  0.00     0.269 C 
ATOM     10  C   UNL     1      28.517  35.508   6.930  1.00  0.00     0.112 C 
ATOM     11  O   UNL     1      28.690  36.102   9.270  1.00  0.00    -0.332 OA
ATOM     12  C   UNL     1      27.421  36.509   6.763  1.00  0.00     0.145 C 
ATOM     13  C   UNL     1      26.873  36.988   8.104  1.00  0.00     0.142 C 
BRANCH   9  14
ATOM     14  O   UNL     1      30.206  36.870   7.833  1.00  0.00    -0.357 OA
ATOM     15  H   UNL     1      29.573  37.622   7.622  1.00  0.00     0.214 HD
ENDBRANCH   9  14
BRANCH   9  16
ATOM     16  C   UNL     1      30.242  34.618   8.439  1.00  0.00     0.364 C 
ATOM     17  O   UNL     1      29.825  33.719   9.209  1.00  0.00    -0.246 OA
BRANCH  16  18
ATOM     18  O   UNL     1      31.517  34.442   7.924  1.00  0.00    -0.477 OA
ATOM     19  H   UNL     1      31.590  34.338   6.900  1.00  0.00     0.296 HD
ENDBRANCH  16  18
ENDBRANCH   9  16
BRANCH  12  20
ATOM     20  O   UNL     1      27.925  37.596   6.020  1.00  0.00    -0.391 OA
ATOM     21  H   UNL     1      28.895  37.411   5.903  1.00  0.00     0.211 HD
ENDBRANCH  12  20
BRANCH  13  22
ATOM     22  N   UNL     1      25.460  37.154   8.087  1.00  0.00    -0.348 N 
ATOM     23  C   UNL     1      24.886  38.367   7.629  1.00  0.00     0.217 C 
ATOM     24  H   UNL     1      24.822  36.400   8.405  1.00  0.00     0.163 HD
ATOM     25  C   UNL     1      23.390  38.493   7.629  1.00  0.00     0.114 C 
ATOM     26  O   UNL     1      25.547  39.340   7.223  1.00  0.00    -0.275 OA
ENDBRANCH  13  22
ENDBRANCH   7   8
BRANCH   7  27
ATOM     27  O   UNL     1      26.709  37.108  11.152  1.00  0.00    -0.388 OA
ATOM     28  H   UNL     1      27.704  37.226  11.279  1.00  0.00     0.211 HD
ENDBRANCH   7  27
ENDBRANCH   6   7
BRANCH   6  29
ATOM     29  O   UNL     1      27.204  33.752  10.287  1.00  0.00    -0.388 OA
ATOM     30  H   UNL     1      26.822  32.878  10.504  1.00  0.00     0.211 HD
ENDBRANCH   6  29
ENDBRANCH   5   6
ENDBRANCH   1   5
BRANCH   2  31
ATOM     31  O   UNL     1      25.420  32.362  15.128  1.00  0.00    -0.443 OA
BRANCH  31  32
ATOM     32  C   UNL     1      26.075  31.132  15.371  1.00  0.00     0.294 C 
BRANCH  32  33
ATOM     33  C   UNL     1      27.498  31.340  15.672  1.00  0.00     0.121 A 
ATOM     34  C   UNL     1      28.216  32.512  15.780  1.00  0.00     0.144 A 
ATOM     35  N   UNL     1      28.387  30.359  15.906  1.00  0.00    -0.131 NA
ATOM     36  N   UNL     1      29.512  32.219  16.074  1.00  0.00    -0.219 N 
ATOM     37  N   UNL     1      29.567  30.911  16.140  1.00  0.00    -0.062 NA
BRANCH  36  38
ATOM     38  C   UNL     1      30.590  33.123  16.271  1.00  0.00     0.081 A 
ATOM     39  C   UNL     1      31.408  33.491  15.213  1.00  0.00     0.049 A 
ATOM     40  C   UNL     1      30.818  33.634  17.527  1.00  0.00     0.065 A 
ATOM     41  C   UNL     1      32.455  34.363  15.381  1.00  0.00     0.043 A 
ATOM     42  C   UNL     1      31.865  34.517  17.733  1.00  0.00     0.017 A 
ATOM     43  Cl  UNL     1      33.501  34.838  14.046  1.00  0.00    -0.084 Cl
ATOM     44  C   UNL     1      32.669  34.866  16.649  1.00  0.00     0.021 A 
BRANCH  40  45
ATOM     45  C   UNL     1      29.957  33.242  18.618  1.00  0.00     0.255 C 
ATOM     46  O   UNL     1      30.134  32.189  19.293  1.00  0.00    -0.269 OA
ATOM     47  N   UNL     1      28.856  34.055  18.971  1.00  0.00    -0.345 N 
ATOM     48  C   UNL     1      28.615  35.268  18.229  1.00  0.00     0.146 C 
ATOM     49  C   UNL     1      27.956  33.709  20.062  1.00  0.00     0.146 C 
ENDBRANCH  40  45
ENDBRANCH  36  38
ENDBRANCH  32  33
ENDBRANCH  31  32
ENDBRANCH   2  31
TORSDOF 16
BEGIN_RES LYS A 131
REMARK  4 active torsions:
REMARK  status: ('A' for Active; 'I' for Inactive)
REMARK    1  A    between atoms: CA   and  CB  
REMARK    2  A    between atoms: CB   and  CG  
REMARK    3  A    between atoms: CG   and  CD  
REMARK    4  A    between atoms: CD   and  CE  
ROOT
ATOM      1  CA  LYS A 131      29.867  25.555  16.977  1.00 20.52     0.186 C 
ENDROOT
BRANCH   1   2
ATOM      2  CB  LYS A 131      28.345  25.722  17.026  1.00 20.94     0.034 C 
BRANCH   2   3
ATOM      3  CG  LYS A 131      27.600  24.408  16.844  1.00 22.96     0.005 C 
BRANCH   3   4
ATOM      4  CD  LYS A 131      26.571  24.187  17.918  1.00 24.33     0.041 C 
BRANCH   4   5
ATOM      5  CE  LYS A 131      25.691  23.000  17.542  1.00 26.91     0.338 C 
ATOM      6  NZ  LYS A 131      24.281  23.429  17.383  1.00 27.40     0.618 N 
ENDBRANCH   4   5
ENDBRANCH   3   4
ENDBRANCH   2   3
ENDBRANCH   1   2
END_RES LYS A 131
BEGIN_RES LYS A 135
REMARK  4 active torsions:
REMARK  status: ('A' for Active; 'I' for Inactive)
REMARK    5  A    between atoms: CA   and  CB  
REMARK    6  A    between atoms: CB   and  CG  
REMARK    7  A    between atoms: CG   and  CD  
REMARK    8  A    between atoms: CD   and  CE  
ROOT
ATOM      7  CA  LYS A 135      33.193  34.663   9.290  1.00 25.02     0.186 C 
ENDROOT
BRANCH   7   8
ATOM      8  CB  LYS A 135      32.060  35.360  10.034  1.00 26.63     0.034 C 
BRANCH   8   9
ATOM      9  CG  LYS A 135      32.535  36.296  11.115  1.00 29.45     0.005 C 
BRANCH   9  10
ATOM     10  CD  LYS A 135      31.897  37.668  10.956  1.00 32.00     0.041 C 
BRANCH  10  11
ATOM     11  CE  LYS A 135      30.571  37.726  11.690  1.00 34.25     0.338 C 
ATOM     12  NZ  LYS A 135      29.716  38.827  11.166  1.00 35.99     0.618 N 
ENDBRANCH  10  11
ENDBRANCH   9  10
ENDBRANCH   8   9
ENDBRANCH   7   8
END_RES LYS A 135
