REMARK VINA RESULT:    -4.290      4.875      8.924
REMARK INTER + INTRA:         -15.112
REMARK INTER:                  -8.674
REMARK INTRA:                  -6.438
REMARK UNBOUND:                -7.311
REMARK SMILES CC(=O)N[C@@H]1[C@@H](O)C[C@](O)(C(=O)O)O[C@H]1C(O)[C@H](O)CNC(=O)OCc1cn(-c2ccc(O)c([N+](=O)[O-])c2)nn1
REMARK SMILES IDX 21 1 22 2 23 3 20 5 18 6 16 7 15 8 9 9 8 10 14 11 6 12 5 13
REMARK SMILES IDX 10 14 11 16 12 17 13 18 7 20 4 22 2 23 1 25 3 26 17 27 19 29
REMARK SMILES IDX 24 31 25 32 26 33 27 34 40 35 28 36 39 37 29 38 30 39 38 40
REMARK SMILES IDX 31 41 34 42 32 43 35 44 36 45 37 46 33 47
REMARK H PARENT 21 4 10 15 13 19 7 21 4 24 17 28 19 30 33 48
REMARK Flexibility Score: inf
ROOT
ATOM      1  N   UNL     1      23.580  37.816  11.125  1.00  0.00    -0.319 N 
ATOM      2  C   UNL     1      23.483  36.400  11.169  1.00  0.00     0.407 C 
ATOM      3  O   UNL     1      23.883  35.669  10.203  1.00  0.00    -0.225 OA
ATOM      4  H   UNL     1      23.252  38.371  11.931  1.00  0.00     0.167 HD
ENDROOT
BRANCH   1   5
ATOM      5  C   UNL     1      24.141  38.443   9.964  1.00  0.00     0.154 C 
BRANCH   5   6
ATOM      6  C   UNL     1      25.598  38.732  10.002  1.00  0.00     0.165 C 
BRANCH   6   7
ATOM      7  C   UNL     1      26.490  37.652   9.446  1.00  0.00     0.176 C 
BRANCH   7   8
ATOM      8  C   UNL     1      27.682  38.156   8.693  1.00  0.00     0.178 C 
ATOM      9  C   UNL     1      28.696  38.290   6.637  1.00  0.00     0.269 C 
ATOM     10  C   UNL     1      29.468  39.347   7.392  1.00  0.00     0.112 C 
ATOM     11  O   UNL     1      27.704  37.687   7.390  1.00  0.00    -0.332 OA
ATOM     12  C   UNL     1      30.063  38.743   8.620  1.00  0.00     0.145 C 
ATOM     13  C   UNL     1      28.962  38.057   9.437  1.00  0.00     0.142 C 
BRANCH   9  14
ATOM     14  O   UNL     1      29.612  37.326   6.240  1.00  0.00    -0.357 OA
ATOM     15  H   UNL     1      29.297  36.457   6.612  1.00  0.00     0.214 HD
ENDBRANCH   9  14
BRANCH   9  16
ATOM     16  C   UNL     1      28.138  38.934   5.422  1.00  0.00     0.364 C 
ATOM     17  O   UNL     1      28.327  40.155   5.185  1.00  0.00    -0.246 OA
BRANCH  16  18
ATOM     18  O   UNL     1      27.394  38.198   4.520  1.00  0.00    -0.477 OA
ATOM     19  H   UNL     1      26.413  38.019   4.621  1.00  0.00     0.296 HD
ENDBRANCH  16  18
ENDBRANCH   9  16
BRANCH  12  20
ATOM     20  O   UNL     1      31.033  37.816   8.196  1.00  0.00    -0.391 OA
ATOM     21  H   UNL     1      31.259  38.072   7.251  1.00  0.00     0.211 HD
ENDBRANCH  12  20
BRANCH  13  22
ATOM     22  N   UNL     1      28.797  38.838  10.673  1.00  0.00    -0.348 N 
ATOM     23  C   UNL     1      29.528  38.571  11.849  1.00  0.00     0.217 C 
ATOM     24  H   UNL     1      28.107  39.626  10.674  1.00  0.00     0.163 HD
ATOM     25  C   UNL     1      29.331  39.382  13.074  1.00  0.00     0.114 C 
ATOM     26  O   UNL     1      30.348  37.644  11.863  1.00  0.00    -0.275 OA
ENDBRANCH  13  22
ENDBRANCH   7   8
BRANCH   7  27
ATOM     27  O   UNL     1      26.945  36.803  10.454  1.00  0.00    -0.388 OA
ATOM     28  H   UNL     1      26.918  35.862  10.215  1.00  0.00     0.211 HD
ENDBRANCH   7  27
ENDBRANCH   6   7
BRANCH   6  29
ATOM     29  O   UNL     1      25.925  38.969  11.346  1.00  0.00    -0.388 OA
ATOM     30  H   UNL     1      25.163  38.630  11.898  1.00  0.00     0.211 HD
ENDBRANCH   6  29
ENDBRANCH   5   6
ENDBRANCH   1   5
BRANCH   2  31
ATOM     31  O   UNL     1      22.941  35.821  12.293  1.00  0.00    -0.443 OA
BRANCH  31  32
ATOM     32  C   UNL     1      23.455  36.134  13.551  1.00  0.00     0.294 C 
BRANCH  32  33
ATOM     33  C   UNL     1      24.939  36.055  13.621  1.00  0.00     0.121 A 
ATOM     34  C   UNL     1      25.724  34.961  13.957  1.00  0.00     0.144 A 
ATOM     35  N   UNL     1      25.822  37.038  13.370  1.00  0.00    -0.131 NA
ATOM     36  N   UNL     1      27.023  35.295  13.904  1.00  0.00    -0.220 N 
ATOM     37  N   UNL     1      27.058  36.566  13.544  1.00  0.00    -0.062 NA
BRANCH  36  38
ATOM     38  C   UNL     1      28.165  34.489  14.169  1.00  0.00     0.073 A 
ATOM     39  C   UNL     1      29.385  34.811  13.611  1.00  0.00     0.033 A 
ATOM     40  C   UNL     1      28.120  33.372  14.978  1.00  0.00     0.118 A 
ATOM     41  C   UNL     1      30.510  34.040  13.856  1.00  0.00     0.056 A 
ATOM     42  C   UNL     1      29.217  32.572  15.251  1.00  0.00     0.312 A 
ATOM     43  C   UNL     1      30.427  32.934  14.668  1.00  0.00     0.194 A 
BRANCH  42  44
ATOM     44  N   UNL     1      29.153  31.433  16.080  1.00  0.00     0.066 N 
ATOM     45  O   UNL     1      28.860  30.341  15.591  1.00  0.00    -0.258 OA
ATOM     46  O   UNL     1      29.414  31.544  17.410  1.00  0.00    -0.258 OA
ENDBRANCH  42  44
BRANCH  43  47
ATOM     47  O   UNL     1      31.529  32.127  14.944  1.00  0.00    -0.502 OA
ATOM     48  H   UNL     1      31.529  31.167  14.571  1.00  0.00     0.293 HD
ENDBRANCH  43  47
ENDBRANCH  36  38
ENDBRANCH  32  33
ENDBRANCH  31  32
ENDBRANCH   2  31
TORSDOF 17
BEGIN_RES LYS A 131
REMARK  4 active torsions:
REMARK  status: ('A' for Active; 'I' for Inactive)
REMARK    1  A    between atoms: CA   and  CB  
REMARK    2  A    between atoms: CB   and  CG  
REMARK    3  A    between atoms: CG   and  CD  
REMARK    4  A    between atoms: CD   and  CE  
ROOT
ATOM      1  CA  LYS A 131      29.867  25.555  16.977  1.00 20.52     0.186 C 
ENDROOT
BRANCH   1   2
ATOM      2  CB  LYS A 131      28.345  25.722  17.026  1.00 20.94     0.034 C 
BRANCH   2   3
ATOM      3  CG  LYS A 131      27.601  24.400  16.907  1.00 22.96     0.005 C 
BRANCH   3   4
ATOM      4  CD  LYS A 131      26.503  24.275  17.927  1.00 24.33     0.041 C 
BRANCH   4   5
ATOM      5  CE  LYS A 131      25.170  24.649  17.287  1.00 26.91     0.338 C 
ATOM      6  NZ  LYS A 131      24.052  23.966  17.980  1.00 27.40     0.618 N 
ENDBRANCH   4   5
ENDBRANCH   3   4
ENDBRANCH   2   3
ENDBRANCH   1   2
END_RES LYS A 131
BEGIN_RES LYS A 135
REMARK  4 active torsions:
REMARK  status: ('A' for Active; 'I' for Inactive)
REMARK    5  A    between atoms: CA   and  CB  
REMARK    6  A    between atoms: CB   and  CG  
REMARK    7  A    between atoms: CG   and  CD  
REMARK    8  A    between atoms: CD   and  CE  
ROOT
ATOM      7  CA  LYS A 135      33.193  34.663   9.290  1.00 25.02     0.186 C 
ENDROOT
BRANCH   7   8
ATOM      8  CB  LYS A 135      32.060  35.360  10.034  1.00 26.63     0.034 C 
BRANCH   8   9
ATOM      9  CG  LYS A 135      30.740  34.640   9.932  1.00 29.45     0.005 C 
BRANCH   9  10
ATOM     10  CD  LYS A 135      30.332  34.471   8.477  1.00 32.00     0.041 C 
BRANCH  10  11
ATOM     11  CE  LYS A 135      28.821  34.490   8.342  1.00 34.25     0.338 C 
ATOM     12  NZ  LYS A 135      28.172  33.786   9.483  1.00 35.99     0.618 N 
ENDBRANCH  10  11
ENDBRANCH   9  10
ENDBRANCH   8   9
ENDBRANCH   7   8
END_RES LYS A 135
