REMARK VINA RESULT:    -3.909      5.349     12.243
REMARK INTER + INTRA:         -16.240
REMARK INTER:                  -9.289
REMARK INTRA:                  -6.951
REMARK UNBOUND:                -8.446
REMARK SMILES CC(=O)N[C@@H]1[C@@H](O)C[C@](O)(C(=O)O)O[C@H]1C(O)[C@H](O)CNC(=O)OCc1cn(CC(O)Cn2ccnc2[N+](=O)[O-])nn1
REMARK SMILES IDX 24 1 22 2 21 3 23 5 20 6 18 7 16 8 15 9 9 10 8 11 14 12 6 13
REMARK SMILES IDX 5 14 10 15 11 17 12 18 13 19 7 21 4 23 2 24 1 26 3 27 17 28
REMARK SMILES IDX 19 30 25 32 26 33 27 34 42 35 28 36 41 37 29 38 30 39 31 40
REMARK SMILES IDX 32 42 33 43 34 44 37 45 35 46 36 47 38 48 39 49 40 50
REMARK H PARENT 21 4 10 16 13 20 7 22 4 25 17 29 19 31 31 41
REMARK Flexibility Score: inf
ROOT
ATOM      1  O   UNL     1      25.517  33.806  12.935  1.00  0.00    -0.443 OA
ENDROOT
BRANCH   1   2
ATOM      2  C   UNL     1      25.314  35.141  12.547  1.00  0.00     0.407 C 
ATOM      3  N   UNL     1      26.351  36.075  12.459  1.00  0.00    -0.319 N 
ATOM      4  H   UNL     1      27.331  35.739  12.704  1.00  0.00     0.167 HD
ATOM      5  O   UNL     1      24.147  35.460  12.280  1.00  0.00    -0.225 OA
BRANCH   3   6
ATOM      6  C   UNL     1      26.185  37.453  12.063  1.00  0.00     0.154 C 
BRANCH   6   7
ATOM      7  C   UNL     1      26.997  37.687  10.817  1.00  0.00     0.165 C 
BRANCH   7   8
ATOM      8  C   UNL     1      26.286  37.023   9.662  1.00  0.00     0.176 C 
BRANCH   8   9
ATOM      9  C   UNL     1      26.662  37.679   8.339  1.00  0.00     0.178 C 
ATOM     10  C   UNL     1      28.536  37.915   6.976  1.00  0.00     0.269 C 
ATOM     11  C   UNL     1      27.982  39.296   6.682  1.00  0.00     0.112 C 
ATOM     12  O   UNL     1      27.995  37.439   8.146  1.00  0.00    -0.332 OA
ATOM     13  C   UNL     1      27.528  39.940   7.972  1.00  0.00     0.145 C 
ATOM     14  C   UNL     1      26.309  39.152   8.437  1.00  0.00     0.142 C 
BRANCH  10  15
ATOM     15  O   UNL     1      29.930  37.980   7.170  1.00  0.00    -0.357 OA
ATOM     16  H   UNL     1      30.321  38.258   6.310  1.00  0.00     0.214 HD
ENDBRANCH  10  15
BRANCH  10  17
ATOM     17  C   UNL     1      28.265  36.962   5.893  1.00  0.00     0.364 C 
ATOM     18  O   UNL     1      28.860  35.873   5.844  1.00  0.00    -0.246 OA
BRANCH  17  19
ATOM     19  O   UNL     1      27.340  37.266   4.911  1.00  0.00    -0.477 OA
ATOM     20  H   UNL     1      26.803  38.113   4.953  1.00  0.00     0.296 HD
ENDBRANCH  17  19
ENDBRANCH  10  17
BRANCH  13  21
ATOM     21  O   UNL     1      28.465  39.849   8.989  1.00  0.00    -0.391 OA
ATOM     22  H   UNL     1      28.115  39.315   9.730  1.00  0.00     0.211 HD
ENDBRANCH  13  21
BRANCH  14  23
ATOM     23  N   UNL     1      25.189  39.495   7.608  1.00  0.00    -0.348 N 
ATOM     24  C   UNL     1      24.209  40.402   8.059  1.00  0.00     0.217 C 
ATOM     25  H   UNL     1      25.040  39.096   6.643  1.00  0.00     0.163 HD
ATOM     26  C   UNL     1      23.045  40.755   7.190  1.00  0.00     0.114 C 
ATOM     27  O   UNL     1      24.294  40.932   9.197  1.00  0.00    -0.275 OA
ENDBRANCH  14  23
ENDBRANCH   8   9
BRANCH   8  28
ATOM     28  O   UNL     1      24.927  37.208   9.823  1.00  0.00    -0.388 OA
ATOM     29  H   UNL     1      24.402  36.905   9.046  1.00  0.00     0.211 HD
ENDBRANCH   8  28
ENDBRANCH   7   8
BRANCH   7  30
ATOM     30  O   UNL     1      28.308  37.240  10.949  1.00  0.00    -0.388 OA
ATOM     31  H   UNL     1      28.641  37.065  10.033  1.00  0.00     0.211 HD
ENDBRANCH   7  30
ENDBRANCH   6   7
ENDBRANCH   3   6
ENDBRANCH   1   2
BRANCH   1  32
ATOM     32  C   UNL     1      25.102  33.381  14.243  1.00  0.00     0.294 C 
BRANCH  32  33
ATOM     33  C   UNL     1      26.175  32.685  14.947  1.00  0.00     0.120 A 
ATOM     34  C   UNL     1      27.424  33.188  15.215  1.00  0.00     0.138 A 
ATOM     35  N   UNL     1      26.108  31.441  15.444  1.00  0.00    -0.132 NA
ATOM     36  N   UNL     1      28.085  32.225  15.873  1.00  0.00    -0.249 N 
ATOM     37  N   UNL     1      27.283  31.194  15.999  1.00  0.00    -0.067 NA
BRANCH  36  38
ATOM     38  C   UNL     1      29.472  32.355  16.351  1.00  0.00     0.181 C 
BRANCH  38  39
ATOM     39  C   UNL     1      30.355  32.870  15.236  1.00  0.00     0.170 C 
BRANCH  39  40
ATOM     40  O   UNL     1      31.327  31.865  15.036  1.00  0.00    -0.388 OA
ATOM     41  H   UNL     1      30.946  31.048  14.663  1.00  0.00     0.211 HD
ENDBRANCH  39  40
BRANCH  39  42
ATOM     42  C   UNL     1      30.987  34.157  15.661  1.00  0.00     0.239 C 
BRANCH  42  43
ATOM     43  N   UNL     1      31.715  34.708  14.514  1.00  0.00    -0.227 N 
ATOM     44  C   UNL     1      33.057  34.705  14.342  1.00  0.00     0.204 A 
ATOM     45  C   UNL     1      31.139  35.279  13.471  1.00  0.00     0.434 A 
ATOM     46  C   UNL     1      33.315  35.299  13.148  1.00  0.00     0.245 A 
ATOM     47  N   UNL     1      32.141  35.645  12.623  1.00  0.00    -0.074 NA
BRANCH  45  48
ATOM     48  N   UNL     1      29.739  35.499  13.232  1.00  0.00    -0.047 N 
ATOM     49  O   UNL     1      29.042  34.741  12.537  1.00  0.00    -0.390 OA
ATOM     50  O   UNL     1      29.130  36.600  13.798  1.00  0.00    -0.390 OA
ENDBRANCH  45  48
ENDBRANCH  42  43
ENDBRANCH  39  42
ENDBRANCH  38  39
ENDBRANCH  36  38
ENDBRANCH  32  33
ENDBRANCH   1  32
TORSDOF 20
BEGIN_RES LYS A 131
REMARK  4 active torsions:
REMARK  status: ('A' for Active; 'I' for Inactive)
REMARK    1  A    between atoms: CA   and  CB  
REMARK    2  A    between atoms: CB   and  CG  
REMARK    3  A    between atoms: CG   and  CD  
REMARK    4  A    between atoms: CD   and  CE  
ROOT
ATOM      1  CA  LYS A 131      29.867  25.555  16.977  1.00 20.52     0.186 C 
ENDROOT
BRANCH   1   2
ATOM      2  CB  LYS A 131      28.345  25.722  17.026  1.00 20.94     0.034 C 
BRANCH   2   3
ATOM      3  CG  LYS A 131      27.599  24.473  16.582  1.00 22.96     0.005 C 
BRANCH   3   4
ATOM      4  CD  LYS A 131      27.014  23.720  17.744  1.00 24.33     0.041 C 
BRANCH   4   5
ATOM      5  CE  LYS A 131      25.844  24.508  18.324  1.00 26.91     0.338 C 
ATOM      6  NZ  LYS A 131      24.808  24.735  17.290  1.00 27.40     0.618 N 
ENDBRANCH   4   5
ENDBRANCH   3   4
ENDBRANCH   2   3
ENDBRANCH   1   2
END_RES LYS A 131
BEGIN_RES LYS A 135
REMARK  4 active torsions:
REMARK  status: ('A' for Active; 'I' for Inactive)
REMARK    5  A    between atoms: CA   and  CB  
REMARK    6  A    between atoms: CB   and  CG  
REMARK    7  A    between atoms: CG   and  CD  
REMARK    8  A    between atoms: CD   and  CE  
ROOT
ATOM      7  CA  LYS A 135      33.193  34.663   9.290  1.00 25.02     0.186 C 
ENDROOT
BRANCH   7   8
ATOM      8  CB  LYS A 135      32.060  35.360  10.034  1.00 26.63     0.034 C 
BRANCH   8   9
ATOM      9  CG  LYS A 135      30.765  35.396   9.263  1.00 29.45     0.005 C 
BRANCH   9  10
ATOM     10  CD  LYS A 135      30.080  34.039   9.302  1.00 32.00     0.041 C 
BRANCH  10  11
ATOM     11  CE  LYS A 135      28.682  34.131   8.721  1.00 34.25     0.338 C 
ATOM     12  NZ  LYS A 135      27.658  33.711   9.717  1.00 35.99     0.618 N 
ENDBRANCH  10  11
ENDBRANCH   9  10
ENDBRANCH   8   9
ENDBRANCH   7   8
END_RES LYS A 135
