REMARK VINA RESULT:    -5.945      1.838      3.033
REMARK INTER + INTRA:         -15.762
REMARK INTER:                 -10.985
REMARK INTRA:                  -4.777
REMARK UNBOUND:                -4.777
REMARK SMILES CC(=O)N[C@@H]1[C@@H](O)C[C@](O)(C(=O)O)O[C@H]1C(O)[C@H](O)CNC(=O)OCc1cn(C(C)(C)C(=O)c2c[nH]c3ccccc23)nn1
REMARK SMILES IDX 21 1 22 2 23 3 20 5 18 6 16 7 15 8 9 9 8 10 14 11 6 12 5 13
REMARK SMILES IDX 10 14 11 16 12 17 13 18 7 20 4 22 2 23 1 25 3 26 17 27 19 29
REMARK SMILES IDX 24 31 25 32 26 33 27 34 44 35 28 36 43 37 29 38 30 39 31 40
REMARK SMILES IDX 32 41 33 42 34 43 35 44 42 45 36 46 37 47 41 48 38 50 40 51
REMARK SMILES IDX 39 52
REMARK H PARENT 21 4 10 15 13 19 7 21 4 24 17 28 19 30 36 49
REMARK Flexibility Score: inf
ROOT
ATOM      1  N   UNL     1      25.551  35.885  10.733  1.00  0.00    -0.319 N 
ATOM      2  C   UNL     1      26.068  35.903  12.050  1.00  0.00     0.407 C 
ATOM      3  O   UNL     1      25.666  36.719  12.883  1.00  0.00    -0.225 OA
ATOM      4  H   UNL     1      25.967  35.127  10.093  1.00  0.00     0.167 HD
ENDROOT
BRANCH   1   5
ATOM      5  C   UNL     1      24.551  36.771  10.204  1.00  0.00     0.154 C 
BRANCH   5   6
ATOM      6  C   UNL     1      24.388  36.761   8.730  1.00  0.00     0.165 C 
BRANCH   6   7
ATOM      7  C   UNL     1      25.460  37.550   7.994  1.00  0.00     0.176 C 
BRANCH   7   8
ATOM      8  C   UNL     1      26.371  36.648   7.202  1.00  0.00     0.178 C 
ATOM      9  C   UNL     1      28.069  35.627   8.404  1.00  0.00     0.269 C 
ATOM     10  C   UNL     1      29.107  35.804   7.317  1.00  0.00     0.112 C 
ATOM     11  O   UNL     1      26.784  35.540   7.884  1.00  0.00    -0.332 OA
ATOM     12  C   UNL     1      28.499  36.383   6.056  1.00  0.00     0.145 C 
ATOM     13  C   UNL     1      27.484  37.424   6.532  1.00  0.00     0.142 C 
BRANCH   9  14
ATOM     14  O   UNL     1      28.144  36.618   9.382  1.00  0.00    -0.357 OA
ATOM     15  H   UNL     1      28.132  36.215  10.297  1.00  0.00     0.214 HD
ENDBRANCH   9  14
BRANCH   9  16
ATOM     16  C   UNL     1      28.359  34.332   9.076  1.00  0.00     0.364 C 
ATOM     17  O   UNL     1      29.529  33.840   9.003  1.00  0.00    -0.246 OA
BRANCH  16  18
ATOM     18  O   UNL     1      27.421  33.621   9.786  1.00  0.00    -0.477 OA
ATOM     19  H   UNL     1      26.594  33.215   9.365  1.00  0.00     0.296 HD
ENDBRANCH  16  18
ENDBRANCH   9  16
BRANCH  12  20
ATOM     20  O   UNL     1      29.441  36.939   5.223  1.00  0.00    -0.391 OA
ATOM     21  H   UNL     1      29.056  36.955   4.290  1.00  0.00     0.211 HD
ENDBRANCH  12  20
BRANCH  13  22
ATOM     22  N   UNL     1      26.954  38.185   5.433  1.00  0.00    -0.348 N 
ATOM     23  C   UNL     1      27.497  39.466   5.061  1.00  0.00     0.217 C 
ATOM     24  H   UNL     1      26.150  37.862   4.841  1.00  0.00     0.163 HD
ATOM     25  C   UNL     1      26.987  40.272   3.951  1.00  0.00     0.114 C 
ATOM     26  O   UNL     1      28.473  39.883   5.763  1.00  0.00    -0.275 OA
ENDBRANCH  13  22
ENDBRANCH   7   8
BRANCH   7  27
ATOM     27  O   UNL     1      24.767  38.396   7.123  1.00  0.00    -0.388 OA
ATOM     28  H   UNL     1      24.733  38.057   6.208  1.00  0.00     0.211 HD
ENDBRANCH   7  27
ENDBRANCH   6   7
BRANCH   6  29
ATOM     29  O   UNL     1      23.175  37.311   8.363  1.00  0.00    -0.388 OA
ATOM     30  H   UNL     1      22.738  37.652   9.186  1.00  0.00     0.211 HD
ENDBRANCH   6  29
ENDBRANCH   5   6
ENDBRANCH   1   5
BRANCH   2  31
ATOM     31  O   UNL     1      27.050  35.003  12.471  1.00  0.00    -0.443 OA
BRANCH  31  32
ATOM     32  C   UNL     1      28.315  35.451  12.858  1.00  0.00     0.294 C 
BRANCH  32  33
ATOM     33  C   UNL     1      28.988  34.436  13.710  1.00  0.00     0.120 A 
ATOM     34  C   UNL     1      28.408  33.733  14.755  1.00  0.00     0.139 A 
ATOM     35  N   UNL     1      30.258  33.985  13.660  1.00  0.00    -0.132 NA
ATOM     36  N   UNL     1      29.321  32.900  15.292  1.00  0.00    -0.239 N 
ATOM     37  N   UNL     1      30.436  33.078  14.604  1.00  0.00    -0.066 NA
BRANCH  36  38
ATOM     38  C   UNL     1      29.099  31.981  16.424  1.00  0.00     0.122 C 
ATOM     39  C   UNL     1      27.928  31.109  16.124  1.00  0.00     0.046 C 
ATOM     40  C   UNL     1      30.396  31.152  16.475  1.00  0.00     0.046 C 
BRANCH  38  41
ATOM     41  C   UNL     1      29.020  32.793  17.636  1.00  0.00     0.192 C 
ATOM     42  O   UNL     1      27.901  33.269  18.038  1.00  0.00    -0.291 OA
BRANCH  41  43
ATOM     43  C   UNL     1      30.152  33.143  18.487  1.00  0.00     0.045 A 
ATOM     44  C   UNL     1      30.518  32.462  19.647  1.00  0.00     0.095 A 
ATOM     45  C   UNL     1      31.000  34.201  18.287  1.00  0.00     0.010 A 
ATOM     46  N   UNL     1      31.575  33.105  20.139  1.00  0.00    -0.360 N 
ATOM     47  C   UNL     1      31.900  34.156  19.356  1.00  0.00     0.046 A 
ATOM     48  C   UNL     1      31.121  35.194  17.319  1.00  0.00     0.011 A 
ATOM     49  H   UNL     1      32.086  32.850  20.997  1.00  0.00     0.166 HD
ATOM     50  C   UNL     1      32.890  35.116  19.414  1.00  0.00     0.027 A 
ATOM     51  C   UNL     1      32.112  36.127  17.409  1.00  0.00     0.001 A 
ATOM     52  C   UNL     1      32.992  36.089  18.449  1.00  0.00     0.002 A 
ENDBRANCH  41  43
ENDBRANCH  38  41
ENDBRANCH  36  38
ENDBRANCH  32  33
ENDBRANCH  31  32
ENDBRANCH   2  31
TORSDOF 17
BEGIN_RES LYS A 131
REMARK  4 active torsions:
REMARK  status: ('A' for Active; 'I' for Inactive)
REMARK    1  A    between atoms: CA   and  CB  
REMARK    2  A    between atoms: CB   and  CG  
REMARK    3  A    between atoms: CG   and  CD  
REMARK    4  A    between atoms: CD   and  CE  
ROOT
ATOM      1  CA  LYS A 131      29.867  25.555  16.977  1.00 20.52     0.186 C 
ENDROOT
BRANCH   1   2
ATOM      2  CB  LYS A 131      28.345  25.722  17.026  1.00 20.94     0.034 C 
BRANCH   2   3
ATOM      3  CG  LYS A 131      27.601  24.401  16.902  1.00 22.96     0.005 C 
BRANCH   3   4
ATOM      4  CD  LYS A 131      26.259  24.441  17.577  1.00 24.33     0.041 C 
BRANCH   4   5
ATOM      5  CE  LYS A 131      26.063  25.801  18.240  1.00 26.91     0.338 C 
ATOM      6  NZ  LYS A 131      24.779  26.405  17.813  1.00 27.40     0.618 N 
ENDBRANCH   4   5
ENDBRANCH   3   4
ENDBRANCH   2   3
ENDBRANCH   1   2
END_RES LYS A 131
BEGIN_RES LYS A 135
REMARK  4 active torsions:
REMARK  status: ('A' for Active; 'I' for Inactive)
REMARK    5  A    between atoms: CA   and  CB  
REMARK    6  A    between atoms: CB   and  CG  
REMARK    7  A    between atoms: CG   and  CD  
REMARK    8  A    between atoms: CD   and  CE  
ROOT
ATOM      7  CA  LYS A 135      33.193  34.663   9.290  1.00 25.02     0.186 C 
ENDROOT
BRANCH   7   8
ATOM      8  CB  LYS A 135      32.060  35.360  10.034  1.00 26.63     0.034 C 
BRANCH   8   9
ATOM      9  CG  LYS A 135      32.492  35.995  11.331  1.00 29.45     0.005 C 
BRANCH   9  10
ATOM     10  CD  LYS A 135      31.863  37.371  11.490  1.00 32.00     0.041 C 
BRANCH  10  11
ATOM     11  CE  LYS A 135      31.466  37.611  12.934  1.00 34.25     0.338 C 
ATOM     12  NZ  LYS A 135      32.256  36.751  13.858  1.00 35.99     0.618 N 
ENDBRANCH  10  11
ENDBRANCH   9  10
ENDBRANCH   8   9
ENDBRANCH   7   8
END_RES LYS A 135
