REMARK VINA RESULT:    -5.505      4.295      7.107
REMARK INTER + INTRA:         -15.343
REMARK INTER:                 -10.529
REMARK INTRA:                  -4.814
REMARK UNBOUND:                -5.012
REMARK SMILES CC(=O)N[C@@H]1[C@@H](O)C[C@](O)(C(=O)O)O[C@H]1C(O)[C@H](O)CNC(=O)OCc1cn(CC(O)c2ccccc2)nn1
REMARK SMILES IDX 21 1 22 2 23 3 20 5 18 6 16 7 15 8 9 9 8 10 14 11 6 12 5 13
REMARK SMILES IDX 10 14 11 16 12 17 13 18 7 20 4 22 2 23 1 25 3 26 17 27 19 29
REMARK SMILES IDX 24 31 25 32 26 33 27 34 39 35 28 36 38 37 29 38 30 39 31 40
REMARK SMILES IDX 32 42 33 43 37 44 34 45 36 46 35 47
REMARK H PARENT 21 4 10 15 13 19 7 21 4 24 17 28 19 30 31 41
REMARK Flexibility Score: inf
ROOT
ATOM      1  N   UNL     1      25.052  33.871  16.547  1.00  0.00    -0.319 N 
ATOM      2  C   UNL     1      25.019  35.260  16.268  1.00  0.00     0.407 C 
ATOM      3  O   UNL     1      26.051  35.940  16.468  1.00  0.00    -0.225 OA
ATOM      4  H   UNL     1      24.134  33.366  16.346  1.00  0.00     0.167 HD
ENDROOT
BRANCH   1   5
ATOM      5  C   UNL     1      26.199  33.157  17.056  1.00  0.00     0.154 C 
BRANCH   5   6
ATOM      6  C   UNL     1      26.822  32.255  16.011  1.00  0.00     0.165 C 
BRANCH   6   7
ATOM      7  C   UNL     1      28.092  32.896  15.450  1.00  0.00     0.176 C 
BRANCH   7   8
ATOM      8  C   UNL     1      28.946  33.568  16.493  1.00  0.00     0.178 C 
ATOM      9  C   UNL     1      30.914  33.538  15.227  1.00  0.00     0.269 C 
ATOM     10  C   UNL     1      31.085  32.120  15.597  1.00  0.00     0.112 C 
ATOM     11  O   UNL     1      29.953  34.274  15.831  1.00  0.00    -0.332 OA
ATOM     12  C   UNL     1      30.498  31.671  16.899  1.00  0.00     0.145 C 
ATOM     13  C   UNL     1      29.484  32.625  17.482  1.00  0.00     0.142 C 
BRANCH   9  14
ATOM     14  O   UNL     1      30.587  33.545  13.837  1.00  0.00    -0.357 OA
ATOM     15  H   UNL     1      31.379  33.915  13.390  1.00  0.00     0.214 HD
ENDBRANCH   9  14
BRANCH   9  16
ATOM     16  C   UNL     1      32.265  34.213  15.283  1.00  0.00     0.364 C 
ATOM     17  O   UNL     1      32.641  34.871  16.280  1.00  0.00    -0.246 OA
BRANCH  16  18
ATOM     18  O   UNL     1      33.132  34.110  14.199  1.00  0.00    -0.477 OA
ATOM     19  H   UNL     1      32.905  33.622  13.347  1.00  0.00     0.296 HD
ENDBRANCH  16  18
ENDBRANCH   9  16
BRANCH  12  20
ATOM     20  O   UNL     1      29.920  30.380  16.737  1.00  0.00    -0.391 OA
ATOM     21  H   UNL     1      29.732  30.046  17.635  1.00  0.00     0.211 HD
ENDBRANCH  12  20
BRANCH  13  22
ATOM     22  N   UNL     1      30.143  33.262  18.611  1.00  0.00    -0.348 N 
ATOM     23  C   UNL     1      29.571  33.375  19.902  1.00  0.00     0.217 C 
ATOM     24  H   UNL     1      31.093  33.645  18.415  1.00  0.00     0.163 HD
ATOM     25  C   UNL     1      30.271  34.031  21.033  1.00  0.00     0.114 C 
ATOM     26  O   UNL     1      28.421  32.881  20.038  1.00  0.00    -0.275 OA
ENDBRANCH  13  22
ENDBRANCH   7   8
BRANCH   7  27
ATOM     27  O   UNL     1      27.543  33.968  14.647  1.00  0.00    -0.388 OA
ATOM     28  H   UNL     1      26.759  34.354  15.067  1.00  0.00     0.211 HD
ENDBRANCH   7  27
ENDBRANCH   6   7
BRANCH   6  29
ATOM     29  O   UNL     1      25.883  31.974  15.046  1.00  0.00    -0.388 OA
ATOM     30  H   UNL     1      26.002  31.034  14.774  1.00  0.00     0.211 HD
ENDBRANCH   6  29
ENDBRANCH   5   6
ENDBRANCH   1   5
BRANCH   2  31
ATOM     31  O   UNL     1      23.893  35.908  15.782  1.00  0.00    -0.443 OA
BRANCH  31  32
ATOM     32  C   UNL     1      23.198  35.466  14.632  1.00  0.00     0.294 C 
BRANCH  32  33
ATOM     33  C   UNL     1      24.182  35.036  13.618  1.00  0.00     0.120 A 
ATOM     34  C   UNL     1      24.866  35.858  12.737  1.00  0.00     0.138 A 
ATOM     35  N   UNL     1      24.625  33.790  13.327  1.00  0.00    -0.132 NA
ATOM     36  N   UNL     1      25.676  35.113  11.964  1.00  0.00    -0.249 N 
ATOM     37  N   UNL     1      25.507  33.870  12.344  1.00  0.00    -0.067 NA
BRANCH  36  38
ATOM     38  C   UNL     1      26.561  35.632  10.912  1.00  0.00     0.182 C 
BRANCH  38  39
ATOM     39  C   UNL     1      26.570  34.659   9.759  1.00  0.00     0.166 C 
BRANCH  39  40
ATOM     40  O   UNL     1      25.650  35.148   8.803  1.00  0.00    -0.386 OA
ATOM     41  H   UNL     1      25.382  36.073   9.057  1.00  0.00     0.211 HD
ENDBRANCH  39  40
BRANCH  39  42
ATOM     42  C   UNL     1      27.905  34.641   9.130  1.00  0.00    -0.018 A 
ATOM     43  C   UNL     1      29.009  34.084   9.743  1.00  0.00     0.006 A 
ATOM     44  C   UNL     1      28.062  35.210   7.859  1.00  0.00     0.006 A 
ATOM     45  C   UNL     1      30.243  34.076   9.140  1.00  0.00     0.000 A 
ATOM     46  C   UNL     1      29.288  35.203   7.258  1.00  0.00     0.000 A 
ATOM     47  C   UNL     1      30.371  34.640   7.893  1.00  0.00     0.000 A 
ENDBRANCH  39  42
ENDBRANCH  38  39
ENDBRANCH  36  38
ENDBRANCH  32  33
ENDBRANCH  31  32
ENDBRANCH   2  31
TORSDOF 18
BEGIN_RES LYS A 131
REMARK  4 active torsions:
REMARK  status: ('A' for Active; 'I' for Inactive)
REMARK    1  A    between atoms: CA   and  CB  
REMARK    2  A    between atoms: CB   and  CG  
REMARK    3  A    between atoms: CG   and  CD  
REMARK    4  A    between atoms: CD   and  CE  
ROOT
ATOM      1  CA  LYS A 131      29.867  25.555  16.977  1.00 20.52     0.186 C 
ENDROOT
BRANCH   1   2
ATOM      2  CB  LYS A 131      28.345  25.722  17.026  1.00 20.94     0.034 C 
BRANCH   2   3
ATOM      3  CG  LYS A 131      27.601  24.401  16.906  1.00 22.96     0.005 C 
BRANCH   3   4
ATOM      4  CD  LYS A 131      26.178  24.507  17.377  1.00 24.33     0.041 C 
BRANCH   4   5
ATOM      5  CE  LYS A 131      26.104  25.462  18.564  1.00 26.91     0.338 C 
ATOM      6  NZ  LYS A 131      25.480  24.794  19.730  1.00 27.40     0.618 N 
ENDBRANCH   4   5
ENDBRANCH   3   4
ENDBRANCH   2   3
ENDBRANCH   1   2
END_RES LYS A 131
BEGIN_RES LYS A 135
REMARK  4 active torsions:
REMARK  status: ('A' for Active; 'I' for Inactive)
REMARK    5  A    between atoms: CA   and  CB  
REMARK    6  A    between atoms: CB   and  CG  
REMARK    7  A    between atoms: CG   and  CD  
REMARK    8  A    between atoms: CD   and  CE  
ROOT
ATOM      7  CA  LYS A 135      33.193  34.663   9.290  1.00 25.02     0.186 C 
ENDROOT
BRANCH   7   8
ATOM      8  CB  LYS A 135      32.060  35.360  10.034  1.00 26.63     0.034 C 
BRANCH   8   9
ATOM      9  CG  LYS A 135      32.500  36.032  11.309  1.00 29.45     0.005 C 
BRANCH   9  10
ATOM     10  CD  LYS A 135      31.579  37.193  11.649  1.00 32.00     0.041 C 
BRANCH  10  11
ATOM     11  CE  LYS A 135      30.243  36.683  12.155  1.00 34.25     0.338 C 
ATOM     12  NZ  LYS A 135      30.088  36.940  13.614  1.00 35.99     0.618 N 
ENDBRANCH  10  11
ENDBRANCH   9  10
ENDBRANCH   8   9
ENDBRANCH   7   8
END_RES LYS A 135
