REMARK VINA RESULT:    -5.239      2.628      5.523
REMARK INTER + INTRA:         -14.079
REMARK INTER:                  -9.659
REMARK INTRA:                  -4.420
REMARK UNBOUND:                -5.012
REMARK SMILES CC(=O)N[C@@H]1[C@@H](O)C[C@](O)(C(=O)O)O[C@H]1C(O)[C@H](O)CNC(=O)OCc1cn(-c2ccc(C)cc2)nn1
REMARK SMILES IDX 20 1 18 2 16 3 15 4 9 5 8 6 14 7 6 8 5 9 10 10 11 12 12 13
REMARK SMILES IDX 13 14 7 16 4 18 2 19 1 21 3 22 17 23 19 25 21 27 22 28 23 30
REMARK SMILES IDX 24 31 25 32 26 33 27 34 37 35 28 36 36 37 29 38 30 39 35 40
REMARK SMILES IDX 31 41 34 42 32 43 33 44
REMARK H PARENT 10 11 13 15 7 17 4 20 17 24 19 26 21 29
REMARK Flexibility Score: inf
ROOT
ATOM      1  C   UNL     1      26.284  31.574  16.308  1.00  0.00     0.154 C 
ENDROOT
BRANCH   1   2
ATOM      2  C   UNL     1      27.729  31.734  16.076  1.00  0.00     0.165 C 
BRANCH   2   3
ATOM      3  C   UNL     1      28.253  33.035  15.559  1.00  0.00     0.176 C 
BRANCH   3   4
ATOM      4  C   UNL     1      29.316  33.706  16.370  1.00  0.00     0.178 C 
ATOM      5  C   UNL     1      30.605  34.729  14.702  1.00  0.00     0.269 C 
ATOM      6  C   UNL     1      31.876  34.011  15.118  1.00  0.00     0.112 C 
ATOM      7  O   UNL     1      29.699  34.880  15.703  1.00  0.00    -0.332 OA
ATOM      8  C   UNL     1      31.503  32.721  15.831  1.00  0.00     0.145 C 
ATOM      9  C   UNL     1      30.464  32.937  16.882  1.00  0.00     0.142 C 
BRANCH   5  10
ATOM     10  O   UNL     1      30.139  34.092  13.577  1.00  0.00    -0.357 OA
ATOM     11  H   UNL     1      29.710  33.214  13.748  1.00  0.00     0.214 HD
ENDBRANCH   5  10
BRANCH   5  12
ATOM     12  C   UNL     1      31.046  36.104  14.306  1.00  0.00     0.364 C 
ATOM     13  O   UNL     1      32.258  36.464  14.373  1.00  0.00    -0.246 OA
BRANCH  12  14
ATOM     14  O   UNL     1      30.120  37.021  13.853  1.00  0.00    -0.477 OA
ATOM     15  H   UNL     1      29.642  36.851  12.965  1.00  0.00     0.296 HD
ENDBRANCH  12  14
ENDBRANCH   5  12
BRANCH   8  16
ATOM     16  O   UNL     1      30.937  31.928  14.831  1.00  0.00    -0.391 OA
ATOM     17  H   UNL     1      31.603  31.678  14.140  1.00  0.00     0.211 HD
ENDBRANCH   8  16
BRANCH   9  18
ATOM     18  N   UNL     1      30.952  33.646  18.050  1.00  0.00    -0.348 N 
ATOM     19  C   UNL     1      31.062  33.061  19.322  1.00  0.00     0.217 C 
ATOM     20  H   UNL     1      31.225  34.638  17.888  1.00  0.00     0.163 HD
ATOM     21  C   UNL     1      31.555  33.756  20.527  1.00  0.00     0.114 C 
ATOM     22  O   UNL     1      30.710  31.870  19.408  1.00  0.00    -0.275 OA
ENDBRANCH   9  18
ENDBRANCH   3   4
BRANCH   3  23
ATOM     23  O   UNL     1      27.137  33.967  15.787  1.00  0.00    -0.388 OA
ATOM     24  H   UNL     1      26.320  33.504  15.462  1.00  0.00     0.211 HD
ENDBRANCH   3  23
ENDBRANCH   2   3
BRANCH   2  25
ATOM     25  O   UNL     1      28.293  30.622  15.470  1.00  0.00    -0.388 OA
ATOM     26  H   UNL     1      27.905  29.766  15.830  1.00  0.00     0.211 HD
ENDBRANCH   2  25
ENDBRANCH   1   2
BRANCH   1  27
ATOM     27  N   UNL     1      25.440  31.823  15.137  1.00  0.00    -0.319 N 
ATOM     28  C   UNL     1      24.318  32.681  15.197  1.00  0.00     0.407 C 
ATOM     29  H   UNL     1      25.625  31.369  14.205  1.00  0.00     0.167 HD
ATOM     30  O   UNL     1      24.029  33.242  16.259  1.00  0.00    -0.225 OA
BRANCH  28  31
ATOM     31  O   UNL     1      23.501  32.934  14.094  1.00  0.00    -0.443 OA
BRANCH  31  32
ATOM     32  C   UNL     1      23.532  34.206  13.489  1.00  0.00     0.294 C 
BRANCH  32  33
ATOM     33  C   UNL     1      24.727  34.426  12.669  1.00  0.00     0.121 A 
ATOM     34  C   UNL     1      24.691  34.894  11.373  1.00  0.00     0.144 A 
ATOM     35  N   UNL     1      26.037  34.247  12.936  1.00  0.00    -0.131 NA
ATOM     36  N   UNL     1      25.946  34.990  10.885  1.00  0.00    -0.220 N 
ATOM     37  N   UNL     1      26.734  34.590  11.860  1.00  0.00    -0.062 NA
BRANCH  36  38
ATOM     38  C   UNL     1      26.382  35.424   9.598  1.00  0.00     0.066 A 
ATOM     39  C   UNL     1      27.067  34.573   8.755  1.00  0.00     0.029 A 
ATOM     40  C   UNL     1      26.145  36.703   9.137  1.00  0.00     0.029 A 
ATOM     41  C   UNL     1      27.496  34.979   7.506  1.00  0.00     0.005 A 
ATOM     42  C   UNL     1      26.571  37.115   7.891  1.00  0.00     0.005 A 
ATOM     43  C   UNL     1      27.254  36.259   7.054  1.00  0.00    -0.051 A 
ATOM     44  C   UNL     1      27.696  36.743   5.720  1.00  0.00     0.044 C 
ENDBRANCH  36  38
ENDBRANCH  32  33
ENDBRANCH  31  32
ENDBRANCH  28  31
ENDBRANCH   1  27
TORSDOF 15
BEGIN_RES LYS A 131
REMARK  4 active torsions:
REMARK  status: ('A' for Active; 'I' for Inactive)
REMARK    1  A    between atoms: CA   and  CB  
REMARK    2  A    between atoms: CB   and  CG  
REMARK    3  A    between atoms: CG   and  CD  
REMARK    4  A    between atoms: CD   and  CE  
ROOT
ATOM      1  CA  LYS A 131      29.867  25.555  16.977  1.00 20.52     0.186 C 
ENDROOT
BRANCH   1   2
ATOM      2  CB  LYS A 131      28.345  25.722  17.026  1.00 20.94     0.034 C 
BRANCH   2   3
ATOM      3  CG  LYS A 131      27.602  24.399  16.923  1.00 22.96     0.005 C 
BRANCH   3   4
ATOM      4  CD  LYS A 131      26.165  24.522  17.349  1.00 24.33     0.041 C 
BRANCH   4   5
ATOM      5  CE  LYS A 131      25.941  23.713  18.623  1.00 26.91     0.338 C 
ATOM      6  NZ  LYS A 131      24.542  23.860  19.091  1.00 27.40     0.618 N 
ENDBRANCH   4   5
ENDBRANCH   3   4
ENDBRANCH   2   3
ENDBRANCH   1   2
END_RES LYS A 131
BEGIN_RES LYS A 135
REMARK  4 active torsions:
REMARK  status: ('A' for Active; 'I' for Inactive)
REMARK    5  A    between atoms: CA   and  CB  
REMARK    6  A    between atoms: CB   and  CG  
REMARK    7  A    between atoms: CG   and  CD  
REMARK    8  A    between atoms: CD   and  CE  
ROOT
ATOM      7  CA  LYS A 135      33.193  34.663   9.290  1.00 25.02     0.186 C 
ENDROOT
BRANCH   7   8
ATOM      8  CB  LYS A 135      32.060  35.360  10.034  1.00 26.63     0.034 C 
BRANCH   8   9
ATOM      9  CG  LYS A 135      30.771  35.415   9.255  1.00 29.45     0.005 C 
BRANCH   9  10
ATOM     10  CD  LYS A 135      30.012  36.696   9.562  1.00 32.00     0.041 C 
BRANCH  10  11
ATOM     11  CE  LYS A 135      30.360  37.776   8.556  1.00 34.25     0.338 C 
ATOM     12  NZ  LYS A 135      31.286  38.781   9.147  1.00 35.99     0.618 N 
ENDBRANCH  10  11
ENDBRANCH   9  10
ENDBRANCH   8   9
ENDBRANCH   7   8
END_RES LYS A 135
