REMARK VINA RESULT:    -5.207      6.801     12.382
REMARK INTER + INTRA:         -16.350
REMARK INTER:                 -10.785
REMARK INTRA:                  -5.565
REMARK UNBOUND:                -6.121
REMARK SMILES CC(=O)N[C@@H]1[C@@H](O)C[C@](O)(C(=O)O)O[C@H]1C(O)[C@H](O)CNC(=O)OCc1cn(C[C@@H](C)CN2CCN(c3ccc(Cl)cc3)CC2)nn1
REMARK SMILES IDX 24 1 22 2 21 3 23 5 20 6 18 7 16 8 15 9 9 10 8 11 14 12 6 13
REMARK SMILES IDX 5 14 10 15 11 17 12 18 13 19 7 21 4 23 2 24 1 26 3 27 17 28
REMARK SMILES IDX 19 30 25 32 26 33 27 34 47 35 28 36 46 37 29 38 30 39 31 40
REMARK SMILES IDX 32 41 33 42 34 43 45 44 35 45 44 46 36 47 37 48 38 49 43 50
REMARK SMILES IDX 39 51 42 52 40 53 41 54
REMARK H PARENT 21 4 10 16 13 20 7 22 4 25 17 29 19 31
REMARK Flexibility Score: inf
ROOT
ATOM      1  O   UNL     1      24.484  29.607  17.417  1.00  0.00    -0.443 OA
ENDROOT
BRANCH   1   2
ATOM      2  C   UNL     1      24.963  29.030  18.582  1.00  0.00     0.407 C 
ATOM      3  N   UNL     1      25.575  27.747  18.645  1.00  0.00    -0.319 N 
ATOM      4  H   UNL     1      25.649  27.225  17.751  1.00  0.00     0.167 HD
ATOM      5  O   UNL     1      24.832  29.717  19.632  1.00  0.00    -0.225 OA
BRANCH   3   6
ATOM      6  C   UNL     1      26.026  27.306  19.924  1.00  0.00     0.154 C 
BRANCH   6   7
ATOM      7  C   UNL     1      27.465  27.465  20.212  1.00  0.00     0.165 C 
BRANCH   7   8
ATOM      8  C   UNL     1      27.868  28.796  20.822  1.00  0.00     0.176 C 
BRANCH   8   9
ATOM      9  C   UNL     1      29.181  28.491  21.547  1.00  0.00     0.178 C 
ATOM     10  C   UNL     1      31.346  27.807  21.007  1.00  0.00     0.269 C 
ATOM     11  C   UNL     1      31.369  26.926  22.224  1.00  0.00     0.112 C 
ATOM     12  O   UNL     1      30.089  28.146  20.584  1.00  0.00    -0.332 OA
ATOM     13  C   UNL     1      30.340  27.246  23.247  1.00  0.00     0.145 C 
ATOM     14  C   UNL     1      28.988  27.369  22.512  1.00  0.00     0.142 C 
BRANCH  10  15
ATOM     15  O   UNL     1      31.912  27.013  19.976  1.00  0.00    -0.357 OA
ATOM     16  H   UNL     1      31.329  26.268  19.743  1.00  0.00     0.214 HD
ENDBRANCH  10  15
BRANCH  10  17
ATOM     17  C   UNL     1      32.234  28.999  21.136  1.00  0.00     0.364 C 
ATOM     18  O   UNL     1      31.880  30.107  20.661  1.00  0.00    -0.246 OA
BRANCH  17  19
ATOM     19  O   UNL     1      33.467  28.955  21.771  1.00  0.00    -0.477 OA
ATOM     20  H   UNL     1      34.281  28.473  21.409  1.00  0.00     0.296 HD
ENDBRANCH  17  19
ENDBRANCH  10  17
BRANCH  13  21
ATOM     21  O   UNL     1      30.250  26.179  24.142  1.00  0.00    -0.391 OA
ATOM     22  H   UNL     1      30.672  25.365  23.761  1.00  0.00     0.211 HD
ENDBRANCH  13  21
BRANCH  14  23
ATOM     23  N   UNL     1      27.933  27.610  23.461  1.00  0.00    -0.348 N 
ATOM     24  C   UNL     1      26.962  26.625  23.747  1.00  0.00     0.217 C 
ATOM     25  H   UNL     1      27.888  28.525  23.941  1.00  0.00     0.163 HD
ATOM     26  C   UNL     1      25.911  26.981  24.746  1.00  0.00     0.114 C 
ATOM     27  O   UNL     1      26.951  25.497  23.211  1.00  0.00    -0.275 OA
ENDBRANCH  14  23
ENDBRANCH   8   9
BRANCH   8  28
ATOM     28  O   UNL     1      28.076  29.720  19.785  1.00  0.00    -0.388 OA
ATOM     29  H   UNL     1      27.614  29.347  18.990  1.00  0.00     0.211 HD
ENDBRANCH   8  28
ENDBRANCH   7   8
BRANCH   7  30
ATOM     30  O   UNL     1      28.132  27.460  18.955  1.00  0.00    -0.388 OA
ATOM     31  H   UNL     1      28.044  26.515  18.641  1.00  0.00     0.211 HD
ENDBRANCH   7  30
ENDBRANCH   6   7
ENDBRANCH   3   6
ENDBRANCH   1   2
BRANCH   1  32
ATOM     32  C   UNL     1      25.160  29.423  16.184  1.00  0.00     0.294 C 
BRANCH  32  33
ATOM     33  C   UNL     1      26.303  30.358  16.076  1.00  0.00     0.120 A 
ATOM     34  C   UNL     1      27.636  29.983  16.265  1.00  0.00     0.138 A 
ATOM     35  N   UNL     1      26.368  31.665  15.788  1.00  0.00    -0.132 NA
ATOM     36  N   UNL     1      28.446  31.037  16.091  1.00  0.00    -0.252 N 
ATOM     37  N   UNL     1      27.626  32.070  15.797  1.00  0.00    -0.067 NA
BRANCH  36  38
ATOM     38  C   UNL     1      29.893  31.116  16.164  1.00  0.00     0.150 C 
BRANCH  38  39
ATOM     39  C   UNL     1      30.292  32.394  16.914  1.00  0.00     0.022 C 
ATOM     40  C   UNL     1      30.111  32.257  18.379  1.00  0.00     0.011 C 
BRANCH  39  41
ATOM     41  C   UNL     1      31.539  32.971  16.389  1.00  0.00     0.089 C 
BRANCH  41  42
ATOM     42  N   UNL     1      31.337  33.960  15.377  1.00  0.00    -0.299 NA
ATOM     43  C   UNL     1      30.511  35.072  15.919  1.00  0.00     0.106 C 
ATOM     44  C   UNL     1      32.605  34.608  15.059  1.00  0.00     0.106 C 
ATOM     45  C   UNL     1      30.411  36.199  14.953  1.00  0.00     0.132 C 
ATOM     46  C   UNL     1      32.369  35.243  13.680  1.00  0.00     0.132 C 
ATOM     47  N   UNL     1      31.229  36.108  13.783  1.00  0.00    -0.369 N 
BRANCH  47  48
ATOM     48  C   UNL     1      30.913  36.916  12.656  1.00  0.00     0.037 A 
ATOM     49  C   UNL     1      29.593  37.118  12.316  1.00  0.00     0.027 A 
ATOM     50  C   UNL     1      31.914  37.495  11.889  1.00  0.00     0.027 A 
ATOM     51  C   UNL     1      29.294  37.893  11.220  1.00  0.00     0.022 A 
ATOM     52  C   UNL     1      31.605  38.264  10.798  1.00  0.00     0.022 A 
ATOM     53  C   UNL     1      30.274  38.464  10.465  1.00  0.00     0.041 A 
ATOM     54  Cl  UNL     1      29.897  39.439   9.070  1.00  0.00    -0.084 Cl
ENDBRANCH  47  48
ENDBRANCH  41  42
ENDBRANCH  39  41
ENDBRANCH  38  39
ENDBRANCH  36  38
ENDBRANCH  32  33
ENDBRANCH   1  32
TORSDOF 19
BEGIN_RES LYS A 131
REMARK  4 active torsions:
REMARK  status: ('A' for Active; 'I' for Inactive)
REMARK    1  A    between atoms: CA   and  CB  
REMARK    2  A    between atoms: CB   and  CG  
REMARK    3  A    between atoms: CG   and  CD  
REMARK    4  A    between atoms: CD   and  CE  
ROOT
ATOM      1  CA  LYS A 131      29.867  25.555  16.977  1.00 20.52     0.186 C 
ENDROOT
BRANCH   1   2
ATOM      2  CB  LYS A 131      28.345  25.722  17.026  1.00 20.94     0.034 C 
BRANCH   2   3
ATOM      3  CG  LYS A 131      27.601  24.401  16.899  1.00 22.96     0.005 C 
BRANCH   3   4
ATOM      4  CD  LYS A 131      26.535  24.249  17.949  1.00 24.33     0.041 C 
BRANCH   4   5
ATOM      5  CE  LYS A 131      25.162  24.265  17.285  1.00 26.91     0.338 C 
ATOM      6  NZ  LYS A 131      24.571  22.906  17.283  1.00 27.40     0.618 N 
ENDBRANCH   4   5
ENDBRANCH   3   4
ENDBRANCH   2   3
ENDBRANCH   1   2
END_RES LYS A 131
BEGIN_RES LYS A 135
REMARK  4 active torsions:
REMARK  status: ('A' for Active; 'I' for Inactive)
REMARK    5  A    between atoms: CA   and  CB  
REMARK    6  A    between atoms: CB   and  CG  
REMARK    7  A    between atoms: CG   and  CD  
REMARK    8  A    between atoms: CD   and  CE  
ROOT
ATOM      7  CA  LYS A 135      33.193  34.663   9.290  1.00 25.02     0.186 C 
ENDROOT
BRANCH   7   8
ATOM      8  CB  LYS A 135      32.060  35.360  10.034  1.00 26.63     0.034 C 
BRANCH   8   9
ATOM      9  CG  LYS A 135      30.712  34.723   9.812  1.00 29.45     0.005 C 
BRANCH   9  10
ATOM     10  CD  LYS A 135      30.387  34.658   8.328  1.00 32.00     0.041 C 
BRANCH  10  11
ATOM     11  CE  LYS A 135      29.455  35.789   7.936  1.00 34.25     0.338 C 
ATOM     12  NZ  LYS A 135      28.157  35.263   7.432  1.00 35.99     0.618 N 
ENDBRANCH  10  11
ENDBRANCH   9  10
ENDBRANCH   8   9
ENDBRANCH   7   8
END_RES LYS A 135
