REMARK VINA RESULT:    -5.083      9.340     14.723
REMARK INTER + INTRA:         -13.959
REMARK INTER:                  -7.732
REMARK INTRA:                  -6.227
REMARK UNBOUND:                -5.161
REMARK SMILES CC(=O)N[C@@H]1[C@@H](O)C[C@](O)(C(=O)O)O[C@H]1C(O)[C@H](O)CNC(=O)OCc1cn(-c2ccc(Br)cc2)nn1
REMARK SMILES IDX 20 1 18 2 16 3 15 4 9 5 8 6 14 7 6 8 5 9 10 10 11 12 12 13
REMARK SMILES IDX 13 14 7 16 4 18 2 19 1 21 3 22 17 23 19 25 21 27 22 28 23 30
REMARK SMILES IDX 24 31 25 32 26 33 27 34 37 35 28 36 36 37 29 38 30 39 35 40
REMARK SMILES IDX 31 41 34 42 32 43 33 44
REMARK H PARENT 10 11 13 15 7 17 4 20 17 24 19 26 21 29
REMARK Flexibility Score: inf
ROOT
ATOM      1  C   UNL     1      21.751  38.473   8.043  1.00  0.00     0.154 C 
ENDROOT
BRANCH   1   2
ATOM      2  C   UNL     1      21.704  37.043   7.596  1.00  0.00     0.165 C 
BRANCH   2   3
ATOM      3  C   UNL     1      22.139  36.041   8.606  1.00  0.00     0.176 C 
BRANCH   3   4
ATOM      4  C   UNL     1      21.003  35.285   9.263  1.00  0.00     0.178 C 
ATOM      5  C   UNL     1      18.662  35.279   9.102  1.00  0.00     0.269 C 
ATOM      6  C   UNL     1      18.675  34.967  10.572  1.00  0.00     0.112 C 
ATOM      7  O   UNL     1      19.842  35.790   8.689  1.00  0.00    -0.332 OA
ATOM      8  C   UNL     1      19.642  35.916  11.241  1.00  0.00     0.145 C 
ATOM      9  C   UNL     1      21.047  35.554  10.741  1.00  0.00     0.142 C 
BRANCH   5  10
ATOM     10  O   UNL     1      17.677  36.276   8.856  1.00  0.00    -0.357 OA
ATOM     11  H   UNL     1      17.386  36.569   9.759  1.00  0.00     0.214 HD
ENDBRANCH   5  10
BRANCH   5  12
ATOM     12  C   UNL     1      18.323  34.078   8.290  1.00  0.00     0.364 C 
ATOM     13  O   UNL     1      17.825  33.045   8.769  1.00  0.00    -0.246 OA
BRANCH  12  14
ATOM     14  O   UNL     1      18.572  34.103   6.928  1.00  0.00    -0.477 OA
ATOM     15  H   UNL     1      18.999  33.322   6.428  1.00  0.00     0.296 HD
ENDBRANCH  12  14
ENDBRANCH   5  12
BRANCH   8  16
ATOM     16  O   UNL     1      19.376  37.195  10.755  1.00  0.00    -0.391 OA
ATOM     17  H   UNL     1      20.164  37.770  10.717  1.00  0.00     0.211 HD
ENDBRANCH   8  16
BRANCH   9  18
ATOM     18  N   UNL     1      21.395  34.345  11.434  1.00  0.00    -0.348 N 
ATOM     19  C   UNL     1      22.642  34.119  12.064  1.00  0.00     0.217 C 
ATOM     20  H   UNL     1      20.699  33.557  11.496  1.00  0.00     0.163 HD
ATOM     21  C   UNL     1      22.957  32.842  12.770  1.00  0.00     0.114 C 
ATOM     22  O   UNL     1      23.508  35.016  12.030  1.00  0.00    -0.275 OA
ENDBRANCH   9  18
ENDBRANCH   3   4
BRANCH   3  23
ATOM     23  O   UNL     1      22.896  36.719   9.594  1.00  0.00    -0.388 OA
ATOM     24  H   UNL     1      22.258  37.156  10.196  1.00  0.00     0.211 HD
ENDBRANCH   3  23
ENDBRANCH   2   3
BRANCH   2  25
ATOM     25  O   UNL     1      22.537  36.930   6.462  1.00  0.00    -0.388 OA
ATOM     26  H   UNL     1      23.436  36.607   6.717  1.00  0.00     0.211 HD
ENDBRANCH   2  25
ENDBRANCH   1   2
BRANCH   1  27
ATOM     27  N   UNL     1      22.859  39.234   7.567  1.00  0.00    -0.319 N 
ATOM     28  C   UNL     1      23.695  39.952   8.498  1.00  0.00     0.407 C 
ATOM     29  H   UNL     1      23.148  39.343   6.574  1.00  0.00     0.167 HD
ATOM     30  O   UNL     1      23.407  39.876   9.716  1.00  0.00    -0.225 OA
BRANCH  28  31
ATOM     31  O   UNL     1      24.779  40.699   8.065  1.00  0.00    -0.443 OA
BRANCH  31  32
ATOM     32  C   UNL     1      25.788  39.988   7.359  1.00  0.00     0.294 C 
BRANCH  32  33
ATOM     33  C   UNL     1      25.981  38.692   8.072  1.00  0.00     0.121 A 
ATOM     34  C   UNL     1      26.738  38.483   9.210  1.00  0.00     0.144 A 
ATOM     35  N   UNL     1      25.468  37.487   7.762  1.00  0.00    -0.131 NA
ATOM     36  N   UNL     1      26.664  37.185   9.549  1.00  0.00    -0.220 N 
ATOM     37  N   UNL     1      25.889  36.622   8.651  1.00  0.00    -0.062 NA
BRANCH  36  38
ATOM     38  C   UNL     1      27.269  36.493  10.638  1.00  0.00     0.066 A 
ATOM     39  C   UNL     1      26.923  35.199  10.975  1.00  0.00     0.029 A 
ATOM     40  C   UNL     1      28.241  37.099  11.407  1.00  0.00     0.029 A 
ATOM     41  C   UNL     1      27.520  34.540  12.034  1.00  0.00     0.018 A 
ATOM     42  C   UNL     1      28.844  36.441  12.473  1.00  0.00     0.018 A 
ATOM     43  C   UNL     1      28.494  35.153  12.802  1.00  0.00     0.018 A 
ATOM     44  Br  UNL     1      29.284  34.199  14.250  1.00  0.00    -0.051 Br
ENDBRANCH  36  38
ENDBRANCH  32  33
ENDBRANCH  31  32
ENDBRANCH  28  31
ENDBRANCH   1  27
TORSDOF 15
BEGIN_RES LYS A 131
REMARK  4 active torsions:
REMARK  status: ('A' for Active; 'I' for Inactive)
REMARK    1  A    between atoms: CA   and  CB  
REMARK    2  A    between atoms: CB   and  CG  
REMARK    3  A    between atoms: CG   and  CD  
REMARK    4  A    between atoms: CD   and  CE  
ROOT
ATOM      1  CA  LYS A 131      29.867  25.555  16.977  1.00 20.52     0.186 C 
ENDROOT
BRANCH   1   2
ATOM      2  CB  LYS A 131      28.345  25.722  17.026  1.00 20.94     0.034 C 
BRANCH   2   3
ATOM      3  CG  LYS A 131      27.601  24.405  16.871  1.00 22.96     0.005 C 
BRANCH   3   4
ATOM      4  CD  LYS A 131      26.144  24.533  17.220  1.00 24.33     0.041 C 
BRANCH   4   5
ATOM      5  CE  LYS A 131      25.574  23.154  17.539  1.00 26.91     0.338 C 
ATOM      6  NZ  LYS A 131      24.137  23.092  17.183  1.00 27.40     0.618 N 
ENDBRANCH   4   5
ENDBRANCH   3   4
ENDBRANCH   2   3
ENDBRANCH   1   2
END_RES LYS A 131
BEGIN_RES LYS A 135
REMARK  4 active torsions:
REMARK  status: ('A' for Active; 'I' for Inactive)
REMARK    5  A    between atoms: CA   and  CB  
REMARK    6  A    between atoms: CB   and  CG  
REMARK    7  A    between atoms: CG   and  CD  
REMARK    8  A    between atoms: CD   and  CE  
ROOT
ATOM      7  CA  LYS A 135      33.193  34.663   9.290  1.00 25.02     0.186 C 
ENDROOT
BRANCH   7   8
ATOM      8  CB  LYS A 135      32.060  35.360  10.034  1.00 26.63     0.034 C 
BRANCH   8   9
ATOM      9  CG  LYS A 135      30.708  34.740   9.790  1.00 29.45     0.005 C 
BRANCH   9  10
ATOM     10  CD  LYS A 135      30.474  34.531   8.302  1.00 32.00     0.041 C 
BRANCH  10  11
ATOM     11  CE  LYS A 135      29.018  34.770   7.953  1.00 34.25     0.338 C 
ATOM     12  NZ  LYS A 135      28.888  35.730   6.822  1.00 35.99     0.618 N 
ENDBRANCH  10  11
ENDBRANCH   9  10
ENDBRANCH   8   9
ENDBRANCH   7   8
END_RES LYS A 135
