REMARK VINA RESULT:    -5.088      7.713     12.340
REMARK INTER + INTRA:         -15.370
REMARK INTER:                  -9.591
REMARK INTRA:                  -5.779
REMARK UNBOUND:                -5.671
REMARK SMILES CCOC(=O)c1cccc(-n2cc(COC(=O)NC[C@@H](O)C(O)[C@@H]3O[C@@](O)(C(=O)O)C[C@H](O)[C@H]3NC(C)=O)nn2)c1
REMARK SMILES IDX 18 1 16 2 17 3 19 5 20 6 22 7 24 8 26 9 31 10 25 11 32 12
REMARK SMILES IDX 34 13 27 14 28 16 29 17 30 18 33 20 35 22 36 23 37 25 38 26
REMARK SMILES IDX 23 27 21 29 15 31 14 32 13 33 12 34 39 35 11 36 40 37 10 38
REMARK SMILES IDX 41 39 9 40 6 41 8 42 7 43 4 44 5 45 3 46 2 47 1 48
REMARK H PARENT 18 4 27 15 30 19 33 21 35 24 23 28 21 30
REMARK Flexibility Score: inf
ROOT
ATOM      1  N   UNL     1      16.742  33.670   8.968  1.00  0.00    -0.319 N 
ATOM      2  C   UNL     1      16.883  32.281   8.703  1.00  0.00     0.407 C 
ATOM      3  O   UNL     1      17.266  31.925   7.561  1.00  0.00    -0.225 OA
ATOM      4  H   UNL     1      16.424  33.942   9.920  1.00  0.00     0.167 HD
ENDROOT
BRANCH   1   5
ATOM      5  C   UNL     1      17.025  34.666   7.955  1.00  0.00     0.154 C 
BRANCH   5   6
ATOM      6  C   UNL     1      18.452  35.101   7.951  1.00  0.00     0.165 C 
BRANCH   6   7
ATOM      7  C   UNL     1      18.631  36.583   8.034  1.00  0.00     0.176 C 
BRANCH   7   8
ATOM      8  C   UNL     1      20.038  36.928   8.587  1.00  0.00     0.178 C 
ATOM      9  C   UNL     1      22.207  37.107   7.969  1.00  0.00     0.269 C 
ATOM     10  C   UNL     1      22.667  35.990   8.879  1.00  0.00     0.112 C 
ATOM     11  O   UNL     1      20.936  36.853   7.556  1.00  0.00    -0.332 OA
ATOM     12  C   UNL     1      21.766  35.802  10.062  1.00  0.00     0.145 C 
ATOM     13  C   UNL     1      20.320  36.083   9.774  1.00  0.00     0.142 C 
BRANCH   9  14
ATOM     14  O   UNL     1      23.035  37.000   6.816  1.00  0.00    -0.357 OA
ATOM     15  H   UNL     1      22.559  36.619   6.057  1.00  0.00     0.214 HD
ENDBRANCH   9  14
BRANCH   9  16
ATOM     16  C   UNL     1      22.457  38.420   8.578  1.00  0.00     0.364 C 
ATOM     17  O   UNL     1      23.138  38.577   9.647  1.00  0.00    -0.246 OA
BRANCH  16  18
ATOM     18  O   UNL     1      21.919  39.558   7.948  1.00  0.00    -0.477 OA
ATOM     19  H   UNL     1      20.895  39.644   7.933  1.00  0.00     0.296 HD
ENDBRANCH  16  18
ENDBRANCH   9  16
BRANCH  12  20
ATOM     20  O   UNL     1      21.949  34.514  10.562  1.00  0.00    -0.391 OA
ATOM     21  H   UNL     1      22.901  34.241  10.577  1.00  0.00     0.211 HD
ENDBRANCH  12  20
BRANCH  13  22
ATOM     22  N   UNL     1      19.641  36.632  10.934  1.00  0.00    -0.348 N 
ATOM     23  C   UNL     1      18.700  35.876  11.681  1.00  0.00     0.217 C 
ATOM     24  H   UNL     1      19.869  37.631  11.217  1.00  0.00     0.163 HD
ATOM     25  C   UNL     1      18.044  36.506  12.856  1.00  0.00     0.114 C 
ATOM     26  O   UNL     1      18.414  34.672  11.358  1.00  0.00    -0.275 OA
ENDBRANCH  13  22
ENDBRANCH   7   8
BRANCH   7  27
ATOM     27  O   UNL     1      18.471  37.258   6.850  1.00  0.00    -0.388 OA
ATOM     28  H   UNL     1      19.077  38.008   6.708  1.00  0.00     0.211 HD
ENDBRANCH   7  27
ENDBRANCH   6   7
BRANCH   6  29
ATOM     29  O   UNL     1      19.148  34.521   6.894  1.00  0.00    -0.388 OA
ATOM     30  H   UNL     1      19.831  33.915   7.290  1.00  0.00     0.211 HD
ENDBRANCH   6  29
ENDBRANCH   5   6
ENDBRANCH   1   5
BRANCH   2  31
ATOM     31  O   UNL     1      16.624  31.290   9.635  1.00  0.00    -0.443 OA
BRANCH  31  32
ATOM     32  C   UNL     1      16.879  31.472  11.014  1.00  0.00     0.294 C 
BRANCH  32  33
ATOM     33  C   UNL     1      18.107  30.758  11.414  1.00  0.00     0.121 A 
ATOM     34  C   UNL     1      19.354  31.278  11.714  1.00  0.00     0.144 A 
ATOM     35  N   UNL     1      18.251  29.423  11.566  1.00  0.00    -0.131 NA
ATOM     36  N   UNL     1      20.193  30.270  12.030  1.00  0.00    -0.220 N 
ATOM     37  N   UNL     1      19.475  29.148  11.927  1.00  0.00    -0.062 NA
BRANCH  36  38
ATOM     38  C   UNL     1      21.554  30.328  12.400  1.00  0.00     0.067 A 
ATOM     39  C   UNL     1      22.153  31.518  12.768  1.00  0.00     0.044 A 
ATOM     40  C   UNL     1      22.340  29.196  12.408  1.00  0.00     0.028 A 
ATOM     41  C   UNL     1      23.480  31.618  13.137  1.00  0.00     0.062 A 
ATOM     42  C   UNL     1      23.681  29.265  12.776  1.00  0.00     0.003 A 
ATOM     43  C   UNL     1      24.235  30.467  13.134  1.00  0.00     0.016 A 
BRANCH  41  44
ATOM     44  C   UNL     1      24.085  32.887  13.522  1.00  0.00     0.338 C 
ATOM     45  O   UNL     1      24.907  32.914  14.470  1.00  0.00    -0.246 OA
BRANCH  44  46
ATOM     46  O   UNL     1      23.791  34.079  12.880  1.00  0.00    -0.462 OA
BRANCH  46  47
ATOM     47  C   UNL     1      23.362  35.234  13.574  1.00  0.00     0.230 C 
ATOM     48  C   UNL     1      21.951  35.017  14.039  1.00  0.00     0.049 C 
ENDBRANCH  46  47
ENDBRANCH  44  46
ENDBRANCH  41  44
ENDBRANCH  36  38
ENDBRANCH  32  33
ENDBRANCH  31  32
ENDBRANCH   2  31
TORSDOF 18
BEGIN_RES LYS A 131
REMARK  4 active torsions:
REMARK  status: ('A' for Active; 'I' for Inactive)
REMARK    1  A    between atoms: CA   and  CB  
REMARK    2  A    between atoms: CB   and  CG  
REMARK    3  A    between atoms: CG   and  CD  
REMARK    4  A    between atoms: CD   and  CE  
ROOT
ATOM      1  CA  LYS A 131      29.867  25.555  16.977  1.00 20.52     0.186 C 
ENDROOT
BRANCH   1   2
ATOM      2  CB  LYS A 131      28.345  25.722  17.026  1.00 20.94     0.034 C 
BRANCH   2   3
ATOM      3  CG  LYS A 131      27.602  24.400  16.913  1.00 22.96     0.005 C 
BRANCH   3   4
ATOM      4  CD  LYS A 131      26.647  24.187  18.055  1.00 24.33     0.041 C 
BRANCH   4   5
ATOM      5  CE  LYS A 131      26.283  25.533  18.671  1.00 26.91     0.338 C 
ATOM      6  NZ  LYS A 131      24.917  25.938  18.262  1.00 27.40     0.618 N 
ENDBRANCH   4   5
ENDBRANCH   3   4
ENDBRANCH   2   3
ENDBRANCH   1   2
END_RES LYS A 131
BEGIN_RES LYS A 135
REMARK  4 active torsions:
REMARK  status: ('A' for Active; 'I' for Inactive)
REMARK    5  A    between atoms: CA   and  CB  
REMARK    6  A    between atoms: CB   and  CG  
REMARK    7  A    between atoms: CG   and  CD  
REMARK    8  A    between atoms: CD   and  CE  
ROOT
ATOM      7  CA  LYS A 135      33.193  34.663   9.290  1.00 25.02     0.186 C 
ENDROOT
BRANCH   7   8
ATOM      8  CB  LYS A 135      32.060  35.360  10.034  1.00 26.63     0.034 C 
BRANCH   8   9
ATOM      9  CG  LYS A 135      30.693  35.040   9.486  1.00 29.45     0.005 C 
BRANCH   9  10
ATOM     10  CD  LYS A 135      29.885  36.312   9.284  1.00 32.00     0.041 C 
BRANCH  10  11
ATOM     11  CE  LYS A 135      29.040  36.213   8.028  1.00 34.25     0.338 C 
ATOM     12  NZ  LYS A 135      28.379  34.882   7.930  1.00 35.99     0.618 N 
ENDBRANCH  10  11
ENDBRANCH   9  10
ENDBRANCH   8   9
ENDBRANCH   7   8
END_RES LYS A 135
