REMARK VINA RESULT:    -4.603      1.932      3.879
REMARK INTER + INTRA:         -15.051
REMARK INTER:                  -9.658
REMARK INTRA:                  -5.393
REMARK UNBOUND:                -6.277
REMARK SMILES CC(=O)N[C@@H]1[C@@H](O)C[C@](O)(C(=O)O)O[C@H]1C(O)[C@H](O)CNC(=O)OCc1cn(CCNS(C)(=O)=O)nn1
REMARK SMILES IDX 21 1 22 2 23 3 20 5 18 6 16 7 15 8 9 9 8 10 14 11 6 12 5 13
REMARK SMILES IDX 10 14 11 16 12 17 13 18 7 20 4 22 2 23 1 25 3 26 17 27 19 29
REMARK SMILES IDX 24 31 25 32 26 33 27 34 37 35 28 36 36 37 29 38 30 39 31 40
REMARK SMILES IDX 32 42 34 43 35 44 33 45
REMARK H PARENT 21 4 10 15 13 19 7 21 4 24 17 28 19 30 31 41
REMARK Flexibility Score: inf
ROOT
ATOM      1  N   UNL     1      28.871  30.321  16.177  1.00  0.00    -0.319 N 
ATOM      2  C   UNL     1      27.563  29.794  16.204  1.00  0.00     0.407 C 
ATOM      3  O   UNL     1      26.599  30.325  15.630  1.00  0.00    -0.225 OA
ATOM      4  H   UNL     1      29.618  29.771  16.699  1.00  0.00     0.167 HD
ENDROOT
BRANCH   1   5
ATOM      5  C   UNL     1      29.276  31.507  15.522  1.00  0.00     0.154 C 
BRANCH   5   6
ATOM      6  C   UNL     1      30.605  32.096  15.925  1.00  0.00     0.165 C 
BRANCH   6   7
ATOM      7  C   UNL     1      30.350  33.515  16.330  1.00  0.00     0.176 C 
BRANCH   7   8
ATOM      8  C   UNL     1      30.866  34.586  15.423  1.00  0.00     0.178 C 
ATOM      9  C   UNL     1      31.044  35.057  13.133  1.00  0.00     0.269 C 
ATOM     10  C   UNL     1      32.320  35.795  13.356  1.00  0.00     0.112 C 
ATOM     11  O   UNL     1      30.559  34.330  14.150  1.00  0.00    -0.332 OA
ATOM     12  C   UNL     1      33.120  35.277  14.520  1.00  0.00     0.145 C 
ATOM     13  C   UNL     1      32.267  35.027  15.717  1.00  0.00     0.142 C 
BRANCH   9  14
ATOM     14  O   UNL     1      31.210  34.222  12.021  1.00  0.00    -0.357 OA
ATOM     15  H   UNL     1      32.011  34.508  11.533  1.00  0.00     0.214 HD
ENDBRANCH   9  14
BRANCH   9  16
ATOM     16  C   UNL     1      30.003  36.052  12.744  1.00  0.00     0.364 C 
ATOM     17  O   UNL     1      30.176  37.285  12.767  1.00  0.00    -0.246 OA
BRANCH  16  18
ATOM     18  O   UNL     1      28.737  35.611  12.316  1.00  0.00    -0.477 OA
ATOM     19  H   UNL     1      28.570  34.642  12.081  1.00  0.00     0.296 HD
ENDBRANCH  16  18
ENDBRANCH   9  16
BRANCH  12  20
ATOM     20  O   UNL     1      33.848  34.171  14.098  1.00  0.00    -0.391 OA
ATOM     21  H   UNL     1      34.117  34.346  13.160  1.00  0.00     0.211 HD
ENDBRANCH  12  20
BRANCH  13  22
ATOM     22  N   UNL     1      32.304  36.220  16.543  1.00  0.00    -0.348 N 
ATOM     23  C   UNL     1      32.873  36.258  17.844  1.00  0.00     0.217 C 
ATOM     24  H   UNL     1      31.898  37.144  16.204  1.00  0.00     0.163 HD
ATOM     25  C   UNL     1      32.887  37.518  18.660  1.00  0.00     0.114 C 
ATOM     26  O   UNL     1      33.365  35.186  18.281  1.00  0.00    -0.275 OA
ENDBRANCH  13  22
ENDBRANCH   7   8
BRANCH   7  27
ATOM     27  O   UNL     1      30.946  33.627  17.621  1.00  0.00    -0.388 OA
ATOM     28  H   UNL     1      31.367  34.504  17.734  1.00  0.00     0.211 HD
ENDBRANCH   7  27
ENDBRANCH   6   7
BRANCH   6  29
ATOM     29  O   UNL     1      31.507  31.908  14.913  1.00  0.00    -0.388 OA
ATOM     30  H   UNL     1      32.214  32.564  14.918  1.00  0.00     0.211 HD
ENDBRANCH   6  29
ENDBRANCH   5   6
ENDBRANCH   1   5
BRANCH   2  31
ATOM     31  O   UNL     1      27.312  28.618  16.904  1.00  0.00    -0.443 OA
BRANCH  31  32
ATOM     32  C   UNL     1      26.805  28.580  18.214  1.00  0.00     0.294 C 
BRANCH  32  33
ATOM     33  C   UNL     1      27.901  28.547  19.200  1.00  0.00     0.120 A 
ATOM     34  C   UNL     1      28.356  27.482  19.952  1.00  0.00     0.138 A 
ATOM     35  N   UNL     1      28.663  29.583  19.541  1.00  0.00    -0.132 NA
ATOM     36  N   UNL     1      29.372  27.899  20.720  1.00  0.00    -0.251 N 
ATOM     37  N   UNL     1      29.536  29.188  20.446  1.00  0.00    -0.067 NA
BRANCH  36  38
ATOM     38  C   UNL     1      30.178  27.179  21.671  1.00  0.00     0.162 C 
BRANCH  38  39
ATOM     39  C   UNL     1      31.594  26.958  21.171  1.00  0.00     0.122 C 
BRANCH  39  40
ATOM     40  N   UNL     1      32.252  28.247  21.152  1.00  0.00    -0.214 NA
ATOM     41  H   UNL     1      31.642  28.992  20.788  1.00  0.00     0.141 HD
BRANCH  40  42
ATOM     42  S   UNL     1      32.872  28.685  22.695  1.00  0.00     0.208 S 
ATOM     43  O   UNL     1      31.828  29.533  23.373  1.00  0.00    -0.213 OA
ATOM     44  O   UNL     1      33.181  27.451  23.479  1.00  0.00    -0.213 OA
ATOM     45  C   UNL     1      34.348  29.663  22.529  1.00  0.00     0.176 C 
ENDBRANCH  40  42
ENDBRANCH  39  40
ENDBRANCH  38  39
ENDBRANCH  36  38
ENDBRANCH  32  33
ENDBRANCH  31  32
ENDBRANCH   2  31
TORSDOF 18
BEGIN_RES LYS A 131
REMARK  4 active torsions:
REMARK  status: ('A' for Active; 'I' for Inactive)
REMARK    1  A    between atoms: CA   and  CB  
REMARK    2  A    between atoms: CB   and  CG  
REMARK    3  A    between atoms: CG   and  CD  
REMARK    4  A    between atoms: CD   and  CE  
ROOT
ATOM      1  CA  LYS A 131      29.867  25.555  16.977  1.00 20.52     0.186 C 
ENDROOT
BRANCH   1   2
ATOM      2  CB  LYS A 131      28.345  25.722  17.026  1.00 20.94     0.034 C 
BRANCH   2   3
ATOM      3  CG  LYS A 131      27.601  24.403  16.888  1.00 22.96     0.005 C 
BRANCH   3   4
ATOM      4  CD  LYS A 131      26.581  24.211  17.975  1.00 24.33     0.041 C 
BRANCH   4   5
ATOM      5  CE  LYS A 131      25.475  23.285  17.479  1.00 26.91     0.338 C 
ATOM      6  NZ  LYS A 131      24.388  24.068  16.845  1.00 27.40     0.618 N 
ENDBRANCH   4   5
ENDBRANCH   3   4
ENDBRANCH   2   3
ENDBRANCH   1   2
END_RES LYS A 131
BEGIN_RES LYS A 135
REMARK  4 active torsions:
REMARK  status: ('A' for Active; 'I' for Inactive)
REMARK    5  A    between atoms: CA   and  CB  
REMARK    6  A    between atoms: CB   and  CG  
REMARK    7  A    between atoms: CG   and  CD  
REMARK    8  A    between atoms: CD   and  CE  
ROOT
ATOM      7  CA  LYS A 135      33.193  34.663   9.290  1.00 25.02     0.186 C 
ENDROOT
BRANCH   7   8
ATOM      8  CB  LYS A 135      32.060  35.360  10.034  1.00 26.63     0.034 C 
BRANCH   8   9
ATOM      9  CG  LYS A 135      30.866  35.663   9.166  1.00 29.45     0.005 C 
BRANCH   9  10
ATOM     10  CD  LYS A 135      30.333  34.392   8.524  1.00 32.00     0.041 C 
BRANCH  10  11
ATOM     11  CE  LYS A 135      29.022  33.980   9.165  1.00 34.25     0.338 C 
ATOM     12  NZ  LYS A 135      27.860  34.535   8.416  1.00 35.99     0.618 N 
ENDBRANCH  10  11
ENDBRANCH   9  10
ENDBRANCH   8   9
ENDBRANCH   7   8
END_RES LYS A 135
