REMARK VINA RESULT:    -4.935      2.032      3.028
REMARK INTER + INTRA:         -14.056
REMARK INTER:                  -9.112
REMARK INTRA:                  -4.944
REMARK UNBOUND:                -5.226
REMARK SMILES COc1ccc(-n2cc(COC(=O)NC[C@@H](O)C(O)[C@@H]3O[C@@](O)(C(=O)O)C[C@H](O)[C@H]3NC(C)=O)nn2)cc1
REMARK SMILES IDX 14 1 12 2 13 3 15 5 16 6 18 7 20 8 22 9 27 10 21 11 28 12
REMARK SMILES IDX 30 13 23 14 24 16 25 17 26 18 29 20 31 22 32 23 33 25 34 26
REMARK SMILES IDX 19 27 17 29 11 31 10 32 9 33 8 34 35 35 7 36 36 37 6 38 5 39
REMARK SMILES IDX 37 40 4 41 38 42 3 43 2 44 1 45
REMARK H PARENT 14 4 23 15 26 19 29 21 31 24 19 28 17 30
REMARK Flexibility Score: inf
ROOT
ATOM      1  N   UNL     1      29.267  28.868  19.766  1.00  0.00    -0.319 N 
ATOM      2  C   UNL     1      27.916  28.463  19.830  1.00  0.00     0.407 C 
ATOM      3  O   UNL     1      27.477  27.759  20.751  1.00  0.00    -0.225 OA
ATOM      4  H   UNL     1      29.513  29.449  18.901  1.00  0.00     0.167 HD
ENDROOT
BRANCH   1   5
ATOM      5  C   UNL     1      30.311  28.613  20.673  1.00  0.00     0.154 C 
BRANCH   5   6
ATOM      6  C   UNL     1      30.839  27.259  20.824  1.00  0.00     0.165 C 
BRANCH   6   7
ATOM      7  C   UNL     1      30.897  26.641  22.130  1.00  0.00     0.176 C 
BRANCH   7   8
ATOM      8  C   UNL     1      31.733  27.378  23.198  1.00  0.00     0.178 C 
ATOM      9  C   UNL     1      34.033  27.187  23.686  1.00  0.00     0.269 C 
ATOM     10  C   UNL     1      33.730  26.272  24.882  1.00  0.00     0.112 C 
ATOM     11  O   UNL     1      33.023  27.049  22.822  1.00  0.00    -0.332 OA
ATOM     12  C   UNL     1      32.532  26.842  25.539  1.00  0.00     0.145 C 
ATOM     13  C   UNL     1      31.356  27.090  24.577  1.00  0.00     0.142 C 
BRANCH   9  14
ATOM     14  O   UNL     1      35.146  26.549  23.074  1.00  0.00    -0.357 OA
ATOM     15  H   UNL     1      34.904  25.648  22.751  1.00  0.00     0.214 HD
ENDBRANCH   9  14
BRANCH   9  16
ATOM     16  C   UNL     1      34.442  28.526  24.062  1.00  0.00     0.364 C 
ATOM     17  O   UNL     1      35.360  28.696  24.903  1.00  0.00    -0.246 OA
BRANCH  16  18
ATOM     18  O   UNL     1      33.899  29.711  23.565  1.00  0.00    -0.477 OA
ATOM     19  H   UNL     1      34.366  30.269  22.846  1.00  0.00     0.296 HD
ENDBRANCH  16  18
ENDBRANCH   9  16
BRANCH  12  20
ATOM     20  O   UNL     1      32.026  26.047  26.579  1.00  0.00    -0.391 OA
ATOM     21  H   UNL     1      31.410  25.392  26.121  1.00  0.00     0.211 HD
ENDBRANCH  12  20
BRANCH  13  22
ATOM     22  N   UNL     1      30.600  28.078  25.282  1.00  0.00    -0.348 N 
ATOM     23  C   UNL     1      29.249  28.035  25.626  1.00  0.00     0.217 C 
ATOM     24  H   UNL     1      31.150  28.941  25.570  1.00  0.00     0.163 HD
ATOM     25  C   UNL     1      28.591  29.156  26.366  1.00  0.00     0.114 C 
ATOM     26  O   UNL     1      28.612  27.029  25.292  1.00  0.00    -0.275 OA
ENDBRANCH  13  22
ENDBRANCH   7   8
BRANCH   7  27
ATOM     27  O   UNL     1      29.612  26.393  22.604  1.00  0.00    -0.388 OA
ATOM     28  H   UNL     1      29.021  26.010  21.907  1.00  0.00     0.211 HD
ENDBRANCH   7  27
ENDBRANCH   6   7
BRANCH   6  29
ATOM     29  O   UNL     1      32.055  27.137  20.092  1.00  0.00    -0.388 OA
ATOM     30  H   UNL     1      32.680  26.537  20.576  1.00  0.00     0.211 HD
ENDBRANCH   6  29
ENDBRANCH   5   6
ENDBRANCH   1   5
BRANCH   2  31
ATOM     31  O   UNL     1      26.993  28.847  18.835  1.00  0.00    -0.443 OA
BRANCH  31  32
ATOM     32  C   UNL     1      26.881  30.202  18.477  1.00  0.00     0.294 C 
BRANCH  32  33
ATOM     33  C   UNL     1      27.746  30.484  17.320  1.00  0.00     0.121 A 
ATOM     34  C   UNL     1      28.472  31.671  17.168  1.00  0.00     0.144 A 
ATOM     35  N   UNL     1      28.033  29.765  16.238  1.00  0.00    -0.131 NA
ATOM     36  N   UNL     1      29.154  31.605  16.010  1.00  0.00    -0.220 N 
ATOM     37  N   UNL     1      28.859  30.425  15.472  1.00  0.00    -0.062 NA
BRANCH  36  38
ATOM     38  C   UNL     1      30.019  32.591  15.463  1.00  0.00     0.067 A 
ATOM     39  C   UNL     1      31.340  32.714  15.826  1.00  0.00     0.032 A 
ATOM     40  C   UNL     1      29.546  33.494  14.508  1.00  0.00     0.032 A 
ATOM     41  C   UNL     1      32.171  33.684  15.277  1.00  0.00     0.048 A 
ATOM     42  C   UNL     1      30.374  34.457  13.965  1.00  0.00     0.048 A 
ATOM     43  C   UNL     1      31.692  34.566  14.338  1.00  0.00     0.119 A 
BRANCH  43  44
ATOM     44  O   UNL     1      32.511  35.515  13.803  1.00  0.00    -0.497 OA
ATOM     45  C   UNL     1      32.382  35.871  12.444  1.00  0.00     0.278 C 
ENDBRANCH  43  44
ENDBRANCH  36  38
ENDBRANCH  32  33
ENDBRANCH  31  32
ENDBRANCH   2  31
TORSDOF 16
BEGIN_RES LYS A 131
REMARK  4 active torsions:
REMARK  status: ('A' for Active; 'I' for Inactive)
REMARK    1  A    between atoms: CA   and  CB  
REMARK    2  A    between atoms: CB   and  CG  
REMARK    3  A    between atoms: CG   and  CD  
REMARK    4  A    between atoms: CD   and  CE  
ROOT
ATOM      1  CA  LYS A 131      29.867  25.555  16.977  1.00 20.52     0.186 C 
ENDROOT
BRANCH   1   2
ATOM      2  CB  LYS A 131      28.345  25.722  17.026  1.00 20.94     0.034 C 
BRANCH   2   3
ATOM      3  CG  LYS A 131      27.600  24.418  16.787  1.00 22.96     0.005 C 
BRANCH   3   4
ATOM      4  CD  LYS A 131      26.720  24.047  17.949  1.00 24.33     0.041 C 
BRANCH   4   5
ATOM      5  CE  LYS A 131      26.177  25.315  18.601  1.00 26.91     0.338 C 
ATOM      6  NZ  LYS A 131      25.516  24.994  19.888  1.00 27.40     0.618 N 
ENDBRANCH   4   5
ENDBRANCH   3   4
ENDBRANCH   2   3
ENDBRANCH   1   2
END_RES LYS A 131
BEGIN_RES LYS A 135
REMARK  4 active torsions:
REMARK  status: ('A' for Active; 'I' for Inactive)
REMARK    5  A    between atoms: CA   and  CB  
REMARK    6  A    between atoms: CB   and  CG  
REMARK    7  A    between atoms: CG   and  CD  
REMARK    8  A    between atoms: CD   and  CE  
ROOT
ATOM      7  CA  LYS A 135      33.193  34.663   9.290  1.00 25.02     0.186 C 
ENDROOT
BRANCH   7   8
ATOM      8  CB  LYS A 135      32.060  35.360  10.034  1.00 26.63     0.034 C 
BRANCH   8   9
ATOM      9  CG  LYS A 135      30.826  35.567   9.195  1.00 29.45     0.005 C 
BRANCH   9  10
ATOM     10  CD  LYS A 135      30.120  34.243   8.944  1.00 32.00     0.041 C 
BRANCH  10  11
ATOM     11  CE  LYS A 135      28.736  34.478   8.368  1.00 34.25     0.338 C 
ATOM     12  NZ  LYS A 135      28.801  35.325   7.145  1.00 35.99     0.618 N 
ENDBRANCH  10  11
ENDBRANCH   9  10
ENDBRANCH   8   9
ENDBRANCH   7   8
END_RES LYS A 135
