REMARK VINA RESULT:    -4.822      2.565      6.621
REMARK INTER + INTRA:         -14.863
REMARK INTER:                  -9.054
REMARK INTRA:                  -5.809
REMARK UNBOUND:                -5.671
REMARK SMILES CCOC(=O)c1cccc(-n2cc(COC(=O)NC[C@@H](O)C(O)[C@@H]3O[C@@](O)(C(=O)O)C[C@H](O)[C@H]3NC(C)=O)nn2)c1
REMARK SMILES IDX 18 1 16 2 17 3 19 5 20 6 22 7 24 8 26 9 31 10 25 11 32 12
REMARK SMILES IDX 34 13 27 14 28 16 29 17 30 18 33 20 35 22 36 23 37 25 38 26
REMARK SMILES IDX 23 27 21 29 15 31 14 32 13 33 12 34 39 35 11 36 40 37 10 38
REMARK SMILES IDX 41 39 9 40 6 41 8 42 7 43 4 44 5 45 3 46 2 47 1 48
REMARK H PARENT 18 4 27 15 30 19 33 21 35 24 23 28 21 30
REMARK Flexibility Score: inf
ROOT
ATOM      1  N   UNL     1      29.677  30.691  18.262  1.00  0.00    -0.319 N 
ATOM      2  C   UNL     1      28.983  31.028  19.455  1.00  0.00     0.407 C 
ATOM      3  O   UNL     1      28.933  32.235  19.797  1.00  0.00    -0.225 OA
ATOM      4  H   UNL     1      29.705  29.686  17.997  1.00  0.00     0.167 HD
ENDROOT
BRANCH   1   5
ATOM      5  C   UNL     1      30.321  31.702  17.449  1.00  0.00     0.154 C 
BRANCH   5   6
ATOM      6  C   UNL     1      29.451  32.202  16.345  1.00  0.00     0.165 C 
BRANCH   6   7
ATOM      7  C   UNL     1      30.164  32.358  15.040  1.00  0.00     0.176 C 
BRANCH   7   8
ATOM      8  C   UNL     1      30.302  33.859  14.676  1.00  0.00     0.178 C 
ATOM      9  C   UNL     1      29.531  35.428  13.240  1.00  0.00     0.269 C 
ATOM     10  C   UNL     1      30.881  35.658  12.601  1.00  0.00     0.112 C 
ATOM     11  O   UNL     1      29.442  34.134  13.646  1.00  0.00    -0.332 OA
ATOM     12  C   UNL     1      32.018  35.325  13.519  1.00  0.00     0.145 C 
ATOM     13  C   UNL     1      31.733  34.179  14.446  1.00  0.00     0.142 C 
BRANCH   9  14
ATOM     14  O   UNL     1      28.595  35.583  12.178  1.00  0.00    -0.357 OA
ATOM     15  H   UNL     1      28.569  34.803  11.596  1.00  0.00     0.214 HD
ENDBRANCH   9  14
BRANCH   9  16
ATOM     16  C   UNL     1      29.240  36.460  14.245  1.00  0.00     0.364 C 
ATOM     17  O   UNL     1      29.772  37.621  14.229  1.00  0.00    -0.246 OA
BRANCH  16  18
ATOM     18  O   UNL     1      28.329  36.149  15.273  1.00  0.00    -0.477 OA
ATOM     19  H   UNL     1      27.331  36.148  15.029  1.00  0.00     0.296 HD
ENDBRANCH  16  18
ENDBRANCH   9  16
BRANCH  12  20
ATOM     20  O   UNL     1      33.158  35.093  12.752  1.00  0.00    -0.391 OA
ATOM     21  H   UNL     1      33.976  35.474  13.158  1.00  0.00     0.211 HD
ENDBRANCH  12  20
BRANCH  13  22
ATOM     22  N   UNL     1      32.405  34.344  15.722  1.00  0.00    -0.348 N 
ATOM     23  C   UNL     1      31.820  35.073  16.791  1.00  0.00     0.217 C 
ATOM     24  H   UNL     1      33.362  33.898  15.841  1.00  0.00     0.163 HD
ATOM     25  C   UNL     1      32.569  35.200  18.068  1.00  0.00     0.114 C 
ATOM     26  O   UNL     1      30.668  35.614  16.669  1.00  0.00    -0.275 OA
ENDBRANCH  13  22
ENDBRANCH   7   8
BRANCH   7  27
ATOM     27  O   UNL     1      31.416  31.799  14.988  1.00  0.00    -0.388 OA
ATOM     28  H   UNL     1      31.510  31.031  14.396  1.00  0.00     0.211 HD
ENDBRANCH   7  27
ENDBRANCH   6   7
BRANCH   6  29
ATOM     29  O   UNL     1      28.757  33.344  16.734  1.00  0.00    -0.388 OA
ATOM     30  H   UNL     1      29.422  33.972  17.127  1.00  0.00     0.211 HD
ENDBRANCH   6  29
ENDBRANCH   5   6
ENDBRANCH   1   5
BRANCH   2  31
ATOM     31  O   UNL     1      28.353  30.101  20.266  1.00  0.00    -0.443 OA
BRANCH  31  32
ATOM     32  C   UNL     1      27.024  29.677  20.030  1.00  0.00     0.294 C 
BRANCH  32  33
ATOM     33  C   UNL     1      26.745  29.627  18.582  1.00  0.00     0.121 A 
ATOM     34  C   UNL     1      25.999  30.504  17.813  1.00  0.00     0.144 A 
ATOM     35  N   UNL     1      27.175  28.692  17.708  1.00  0.00    -0.131 NA
ATOM     36  N   UNL     1      26.000  30.083  16.531  1.00  0.00    -0.220 N 
ATOM     37  N   UNL     1      26.734  28.967  16.510  1.00  0.00    -0.062 NA
BRANCH  36  38
ATOM     38  C   UNL     1      25.374  30.660  15.404  1.00  0.00     0.067 A 
ATOM     39  C   UNL     1      25.641  31.959  15.015  1.00  0.00     0.044 A 
ATOM     40  C   UNL     1      24.471  29.947  14.646  1.00  0.00     0.028 A 
ATOM     41  C   UNL     1      25.052  32.560  13.921  1.00  0.00     0.062 A 
ATOM     42  C   UNL     1      23.861  30.525  13.537  1.00  0.00     0.003 A 
ATOM     43  C   UNL     1      24.155  31.818  13.187  1.00  0.00     0.016 A 
BRANCH  41  44
ATOM     44  C   UNL     1      25.353  33.933  13.533  1.00  0.00     0.338 C 
ATOM     45  O   UNL     1      26.217  34.578  14.176  1.00  0.00    -0.246 OA
BRANCH  44  46
ATOM     46  O   UNL     1      24.723  34.565  12.474  1.00  0.00    -0.462 OA
BRANCH  46  47
ATOM     47  C   UNL     1      25.364  34.803  11.236  1.00  0.00     0.230 C 
ATOM     48  C   UNL     1      25.231  36.260  10.899  1.00  0.00     0.049 C 
ENDBRANCH  46  47
ENDBRANCH  44  46
ENDBRANCH  41  44
ENDBRANCH  36  38
ENDBRANCH  32  33
ENDBRANCH  31  32
ENDBRANCH   2  31
TORSDOF 18
BEGIN_RES LYS A 131
REMARK  4 active torsions:
REMARK  status: ('A' for Active; 'I' for Inactive)
REMARK    1  A    between atoms: CA   and  CB  
REMARK    2  A    between atoms: CB   and  CG  
REMARK    3  A    between atoms: CG   and  CD  
REMARK    4  A    between atoms: CD   and  CE  
ROOT
ATOM      1  CA  LYS A 131      29.867  25.555  16.977  1.00 20.52     0.186 C 
ENDROOT
BRANCH   1   2
ATOM      2  CB  LYS A 131      28.345  25.722  17.026  1.00 20.94     0.034 C 
BRANCH   2   3
ATOM      3  CG  LYS A 131      27.601  24.402  16.890  1.00 22.96     0.005 C 
BRANCH   3   4
ATOM      4  CD  LYS A 131      26.163  24.517  17.312  1.00 24.33     0.041 C 
BRANCH   4   5
ATOM      5  CE  LYS A 131      26.074  25.322  18.605  1.00 26.91     0.338 C 
ATOM      6  NZ  LYS A 131      24.727  25.922  18.751  1.00 27.40     0.618 N 
ENDBRANCH   4   5
ENDBRANCH   3   4
ENDBRANCH   2   3
ENDBRANCH   1   2
END_RES LYS A 131
BEGIN_RES LYS A 135
REMARK  4 active torsions:
REMARK  status: ('A' for Active; 'I' for Inactive)
REMARK    5  A    between atoms: CA   and  CB  
REMARK    6  A    between atoms: CB   and  CG  
REMARK    7  A    between atoms: CG   and  CD  
REMARK    8  A    between atoms: CD   and  CE  
ROOT
ATOM      7  CA  LYS A 135      33.193  34.663   9.290  1.00 25.02     0.186 C 
ENDROOT
BRANCH   7   8
ATOM      8  CB  LYS A 135      32.060  35.360  10.034  1.00 26.63     0.034 C 
BRANCH   8   9
ATOM      9  CG  LYS A 135      30.782  35.446   9.241  1.00 29.45     0.005 C 
BRANCH   9  10
ATOM     10  CD  LYS A 135      30.223  34.057   8.970  1.00 32.00     0.041 C 
BRANCH  10  11
ATOM     11  CE  LYS A 135      28.721  34.037   9.179  1.00 34.25     0.338 C 
ATOM     12  NZ  LYS A 135      28.082  35.249   8.595  1.00 35.99     0.618 N 
ENDBRANCH  10  11
ENDBRANCH   9  10
ENDBRANCH   8   9
ENDBRANCH   7   8
END_RES LYS A 135
