REMARK VINA RESULT:    -4.858      7.156     12.897
REMARK INTER + INTRA:         -13.571
REMARK INTER:                  -8.669
REMARK INTRA:                  -4.903
REMARK UNBOUND:                -5.164
REMARK SMILES CC(=O)N[C@@H]1[C@@H](O)C[C@](O)(C(=O)O)O[C@H]1C(O)[C@H](O)CNC(=O)OCc1cn(-c2cccnc2)nn1
REMARK SMILES IDX 20 1 18 2 16 3 15 4 9 5 8 6 14 7 6 8 5 9 10 10 11 12 12 13
REMARK SMILES IDX 13 14 7 16 4 18 2 19 1 21 3 22 17 23 19 25 21 27 22 28 23 30
REMARK SMILES IDX 24 31 25 32 26 33 27 34 36 35 28 36 35 37 29 38 30 39 34 40
REMARK SMILES IDX 31 41 33 42 32 43
REMARK H PARENT 10 11 13 15 7 17 4 20 17 24 19 26 21 29
REMARK Flexibility Score: inf
ROOT
ATOM      1  C   UNL     1      31.817  38.716   9.912  1.00  0.00     0.154 C 
ENDROOT
BRANCH   1   2
ATOM      2  C   UNL     1      30.838  38.303   8.876  1.00  0.00     0.165 C 
BRANCH   2   3
ATOM      3  C   UNL     1      30.917  39.094   7.626  1.00  0.00     0.176 C 
BRANCH   3   4
ATOM      4  C   UNL     1      29.697  39.206   6.780  1.00  0.00     0.178 C 
ATOM      5  C   UNL     1      27.818  38.215   5.988  1.00  0.00     0.269 C 
ATOM      6  C   UNL     1      27.605  39.332   5.030  1.00  0.00     0.112 C 
ATOM      7  O   UNL     1      29.110  38.029   6.443  1.00  0.00    -0.332 OA
ATOM      8  C   UNL     1      28.477  40.528   5.180  1.00  0.00     0.145 C 
ATOM      9  C   UNL     1      29.912  40.064   5.565  1.00  0.00     0.142 C 
BRANCH   5  10
ATOM     10  O   UNL     1      27.511  37.026   5.252  1.00  0.00    -0.357 OA
ATOM     11  H   UNL     1      26.993  36.479   5.887  1.00  0.00     0.214 HD
ENDBRANCH   5  10
BRANCH   5  12
ATOM     12  C   UNL     1      26.865  38.233   7.121  1.00  0.00     0.364 C 
ATOM     13  O   UNL     1      25.882  39.014   7.093  1.00  0.00    -0.246 OA
BRANCH  12  14
ATOM     14  O   UNL     1      26.966  37.433   8.252  1.00  0.00    -0.477 OA
ATOM     15  H   UNL     1      27.478  36.552   8.131  1.00  0.00     0.296 HD
ENDBRANCH  12  14
ENDBRANCH   5  12
BRANCH   8  16
ATOM     16  O   UNL     1      28.630  41.191   3.961  1.00  0.00    -0.391 OA
ATOM     17  H   UNL     1      27.740  41.364   3.567  1.00  0.00     0.211 HD
ENDBRANCH   8  16
BRANCH   9  18
ATOM     18  N   UNL     1      30.599  41.264   5.960  1.00  0.00    -0.348 N 
ATOM     19  C   UNL     1      31.518  41.954   5.138  1.00  0.00     0.217 C 
ATOM     20  H   UNL     1      30.414  41.667   6.917  1.00  0.00     0.163 HD
ATOM     21  C   UNL     1      32.175  43.184   5.637  1.00  0.00     0.114 C 
ATOM     22  O   UNL     1      31.769  41.517   3.992  1.00  0.00    -0.275 OA
ENDBRANCH   9  18
ENDBRANCH   3   4
BRANCH   3  23
ATOM     23  O   UNL     1      32.102  38.954   6.930  1.00  0.00    -0.388 OA
ATOM     24  H   UNL     1      32.716  39.705   6.958  1.00  0.00     0.211 HD
ENDBRANCH   3  23
ENDBRANCH   2   3
BRANCH   2  25
ATOM     25  O   UNL     1      29.521  38.478   9.370  1.00  0.00    -0.388 OA
ATOM     26  H   UNL     1      29.600  38.699  10.320  1.00  0.00     0.211 HD
ENDBRANCH   2  25
ENDBRANCH   1   2
BRANCH   1  27
ATOM     27  N   UNL     1      31.936  37.873  11.064  1.00  0.00    -0.319 N 
ATOM     28  C   UNL     1      31.187  37.963  12.231  1.00  0.00     0.407 C 
ATOM     29  H   UNL     1      32.667  37.097  11.036  1.00  0.00     0.167 HD
ATOM     30  O   UNL     1      30.317  38.831  12.379  1.00  0.00    -0.225 OA
BRANCH  28  31
ATOM     31  O   UNL     1      31.358  37.088  13.318  1.00  0.00    -0.443 OA
BRANCH  31  32
ATOM     32  C   UNL     1      32.307  36.048  13.262  1.00  0.00     0.294 C 
BRANCH  32  33
ATOM     33  C   UNL     1      31.935  34.920  14.137  1.00  0.00     0.121 A 
ATOM     34  C   UNL     1      30.669  34.358  14.149  1.00  0.00     0.144 A 
ATOM     35  N   UNL     1      32.640  34.232  15.035  1.00  0.00    -0.131 NA
ATOM     36  N   UNL     1      30.650  33.358  15.047  1.00  0.00    -0.219 N 
ATOM     37  N   UNL     1      31.846  33.294  15.573  1.00  0.00    -0.062 NA
BRANCH  36  38
ATOM     38  C   UNL     1      29.543  32.513  15.378  1.00  0.00     0.085 A 
ATOM     39  C   UNL     1      29.720  31.168  15.652  1.00  0.00     0.031 A 
ATOM     40  C   UNL     1      28.268  33.038  15.429  1.00  0.00     0.139 A 
ATOM     41  C   UNL     1      28.609  30.384  15.970  1.00  0.00     0.022 A 
ATOM     42  N   UNL     1      27.202  32.249  15.741  1.00  0.00    -0.262 NA
ATOM     43  C   UNL     1      27.343  30.940  16.013  1.00  0.00     0.111 A 
ENDBRANCH  36  38
ENDBRANCH  32  33
ENDBRANCH  31  32
ENDBRANCH  28  31
ENDBRANCH   1  27
TORSDOF 15
BEGIN_RES LYS A 131
REMARK  4 active torsions:
REMARK  status: ('A' for Active; 'I' for Inactive)
REMARK    1  A    between atoms: CA   and  CB  
REMARK    2  A    between atoms: CB   and  CG  
REMARK    3  A    between atoms: CG   and  CD  
REMARK    4  A    between atoms: CD   and  CE  
ROOT
ATOM      1  CA  LYS A 131      29.867  25.555  16.977  1.00 20.52     0.186 C 
ENDROOT
BRANCH   1   2
ATOM      2  CB  LYS A 131      28.345  25.722  17.026  1.00 20.94     0.034 C 
BRANCH   2   3
ATOM      3  CG  LYS A 131      27.601  24.403  16.887  1.00 22.96     0.005 C 
BRANCH   3   4
ATOM      4  CD  LYS A 131      26.160  24.519  17.300  1.00 24.33     0.041 C 
BRANCH   4   5
ATOM      5  CE  LYS A 131      25.890  23.582  18.474  1.00 26.91     0.338 C 
ATOM      6  NZ  LYS A 131      25.501  24.357  19.676  1.00 27.40     0.618 N 
ENDBRANCH   4   5
ENDBRANCH   3   4
ENDBRANCH   2   3
ENDBRANCH   1   2
END_RES LYS A 131
BEGIN_RES LYS A 135
REMARK  4 active torsions:
REMARK  status: ('A' for Active; 'I' for Inactive)
REMARK    5  A    between atoms: CA   and  CB  
REMARK    6  A    between atoms: CB   and  CG  
REMARK    7  A    between atoms: CG   and  CD  
REMARK    8  A    between atoms: CD   and  CE  
ROOT
ATOM      7  CA  LYS A 135      33.193  34.663   9.290  1.00 25.02     0.186 C 
ENDROOT
BRANCH   7   8
ATOM      8  CB  LYS A 135      32.060  35.360  10.034  1.00 26.63     0.034 C 
BRANCH   8   9
ATOM      9  CG  LYS A 135      30.721  34.694   9.853  1.00 29.45     0.005 C 
BRANCH   9  10
ATOM     10  CD  LYS A 135      30.284  34.752   8.397  1.00 32.00     0.041 C 
BRANCH  10  11
ATOM     11  CE  LYS A 135      28.796  34.486   8.276  1.00 34.25     0.338 C 
ATOM     12  NZ  LYS A 135      28.156  34.396   9.618  1.00 35.99     0.618 N 
ENDBRANCH  10  11
ENDBRANCH   9  10
ENDBRANCH   8   9
ENDBRANCH   7   8
END_RES LYS A 135
