REMARK VINA RESULT:    -4.997      4.929      8.306
REMARK INTER + INTRA:         -14.446
REMARK INTER:                  -9.892
REMARK INTRA:                  -4.553
REMARK UNBOUND:                -5.212
REMARK SMILES CC(=O)N[C@@H]1[C@@H](O)C[C@](O)(C(=O)O)O[C@H]1C(O)[C@H](O)CNC(=O)OCc1cn(Cc2cccc(C#N)c2)nn1
REMARK SMILES IDX 21 1 22 2 23 3 20 5 18 6 16 7 15 8 9 9 8 10 14 11 6 12 5 13
REMARK SMILES IDX 10 14 11 16 12 17 13 18 7 20 4 22 2 23 1 25 3 26 17 27 19 29
REMARK SMILES IDX 24 31 25 32 26 33 27 34 39 35 28 36 38 37 29 38 30 39 31 40
REMARK SMILES IDX 37 41 32 42 34 43 33 44 35 45 36 46
REMARK H PARENT 21 4 10 15 13 19 7 21 4 24 17 28 19 30
REMARK Flexibility Score: inf
ROOT
ATOM      1  N   UNL     1      21.624  36.494   9.259  1.00  0.00    -0.319 N 
ATOM      2  C   UNL     1      20.549  36.032   8.490  1.00  0.00     0.407 C 
ATOM      3  O   UNL     1      20.136  36.687   7.512  1.00  0.00    -0.225 OA
ATOM      4  H   UNL     1      21.922  35.879  10.074  1.00  0.00     0.167 HD
ENDROOT
BRANCH   1   5
ATOM      5  C   UNL     1      22.323  37.726   9.004  1.00  0.00     0.154 C 
BRANCH   5   6
ATOM      6  C   UNL     1      23.533  37.545   8.131  1.00  0.00     0.165 C 
BRANCH   6   7
ATOM      7  C   UNL     1      24.681  38.429   8.428  1.00  0.00     0.176 C 
BRANCH   7   8
ATOM      8  C   UNL     1      26.061  37.841   8.091  1.00  0.00     0.178 C 
ATOM      9  C   UNL     1      27.383  37.298   6.318  1.00  0.00     0.269 C 
ATOM     10  C   UNL     1      27.345  35.829   6.687  1.00  0.00     0.112 C 
ATOM     11  O   UNL     1      26.218  37.866   6.763  1.00  0.00    -0.332 OA
ATOM     12  C   UNL     1      27.281  35.644   8.179  1.00  0.00     0.145 C 
ATOM     13  C   UNL     1      26.327  36.594   8.843  1.00  0.00     0.142 C 
BRANCH   9  14
ATOM     14  O   UNL     1      27.429  37.379   4.903  1.00  0.00    -0.357 OA
ATOM     15  H   UNL     1      28.315  36.980   4.665  1.00  0.00     0.214 HD
ENDBRANCH   9  14
BRANCH   9  16
ATOM     16  C   UNL     1      28.631  37.893   6.805  1.00  0.00     0.364 C 
ATOM     17  O   UNL     1      28.769  39.131   6.945  1.00  0.00    -0.246 OA
BRANCH  16  18
ATOM     18  O   UNL     1      29.767  37.133   7.153  1.00  0.00    -0.477 OA
ATOM     19  H   UNL     1      30.273  37.469   7.976  1.00  0.00     0.296 HD
ENDBRANCH  16  18
ENDBRANCH   9  16
BRANCH  12  20
ATOM     20  O   UNL     1      26.900  34.325   8.425  1.00  0.00    -0.391 OA
ATOM     21  H   UNL     1      26.505  33.895   7.637  1.00  0.00     0.211 HD
ENDBRANCH  12  20
BRANCH  13  22
ATOM     22  N   UNL     1      26.812  36.885  10.178  1.00  0.00    -0.348 N 
ATOM     23  C   UNL     1      26.407  36.119  11.332  1.00  0.00     0.217 C 
ATOM     24  H   UNL     1      27.481  37.662  10.407  1.00  0.00     0.163 HD
ATOM     25  C   UNL     1      26.933  36.459  12.692  1.00  0.00     0.114 C 
ATOM     26  O   UNL     1      25.613  35.166  11.203  1.00  0.00    -0.275 OA
ENDBRANCH  13  22
ENDBRANCH   7   8
BRANCH   7  27
ATOM     27  O   UNL     1      24.741  38.824   9.766  1.00  0.00    -0.388 OA
ATOM     28  H   UNL     1      24.628  39.799   9.886  1.00  0.00     0.211 HD
ENDBRANCH   7  27
ENDBRANCH   6   7
BRANCH   6  29
ATOM     29  O   UNL     1      23.108  37.535   6.803  1.00  0.00    -0.388 OA
ATOM     30  H   UNL     1      23.784  37.046   6.273  1.00  0.00     0.211 HD
ENDBRANCH   6  29
ENDBRANCH   5   6
ENDBRANCH   1   5
BRANCH   2  31
ATOM     31  O   UNL     1      19.885  34.837   8.765  1.00  0.00    -0.443 OA
BRANCH  31  32
ATOM     32  C   UNL     1      18.962  34.810   9.824  1.00  0.00     0.294 C 
BRANCH  32  33
ATOM     33  C   UNL     1      19.593  34.164  10.993  1.00  0.00     0.120 A 
ATOM     34  C   UNL     1      19.225  32.996  11.623  1.00  0.00     0.138 A 
ATOM     35  N   UNL     1      20.670  34.620  11.659  1.00  0.00    -0.132 NA
ATOM     36  N   UNL     1      20.078  32.777  12.641  1.00  0.00    -0.248 N 
ATOM     37  N   UNL     1      20.939  33.788  12.626  1.00  0.00    -0.067 NA
BRANCH  36  38
ATOM     38  C   UNL     1      20.139  31.702  13.595  1.00  0.00     0.181 C 
BRANCH  38  39
ATOM     39  C   UNL     1      21.376  30.879  13.386  1.00  0.00    -0.025 A 
ATOM     40  C   UNL     1      21.379  29.873  12.446  1.00  0.00     0.006 A 
ATOM     41  C   UNL     1      22.519  31.101  14.106  1.00  0.00     0.025 A 
ATOM     42  C   UNL     1      22.532  29.106  12.242  1.00  0.00     0.002 A 
ATOM     43  C   UNL     1      23.673  30.365  13.931  1.00  0.00     0.052 A 
ATOM     44  C   UNL     1      23.676  29.361  12.990  1.00  0.00     0.019 A 
BRANCH  43  45
ATOM     45  C   UNL     1      24.882  30.580  14.671  1.00  0.00     0.099 C 
ATOM     46  N   UNL     1      25.874  30.762  15.259  1.00  0.00    -0.192 NA
ENDBRANCH  43  45
ENDBRANCH  38  39
ENDBRANCH  36  38
ENDBRANCH  32  33
ENDBRANCH  31  32
ENDBRANCH   2  31
TORSDOF 17
BEGIN_RES LYS A 131
REMARK  4 active torsions:
REMARK  status: ('A' for Active; 'I' for Inactive)
REMARK    1  A    between atoms: CA   and  CB  
REMARK    2  A    between atoms: CB   and  CG  
REMARK    3  A    between atoms: CG   and  CD  
REMARK    4  A    between atoms: CD   and  CE  
ROOT
ATOM      1  CA  LYS A 131      29.867  25.555  16.977  1.00 20.52     0.186 C 
ENDROOT
BRANCH   1   2
ATOM      2  CB  LYS A 131      28.345  25.722  17.026  1.00 20.94     0.034 C 
BRANCH   2   3
ATOM      3  CG  LYS A 131      27.601  24.401  16.903  1.00 22.96     0.005 C 
BRANCH   3   4
ATOM      4  CD  LYS A 131      26.518  24.263  17.936  1.00 24.33     0.041 C 
BRANCH   4   5
ATOM      5  CE  LYS A 131      25.203  23.907  17.250  1.00 26.91     0.338 C 
ATOM      6  NZ  LYS A 131      24.262  25.051  17.307  1.00 27.40     0.618 N 
ENDBRANCH   4   5
ENDBRANCH   3   4
ENDBRANCH   2   3
ENDBRANCH   1   2
END_RES LYS A 131
BEGIN_RES LYS A 135
REMARK  4 active torsions:
REMARK  status: ('A' for Active; 'I' for Inactive)
REMARK    5  A    between atoms: CA   and  CB  
REMARK    6  A    between atoms: CB   and  CG  
REMARK    7  A    between atoms: CG   and  CD  
REMARK    8  A    between atoms: CD   and  CE  
ROOT
ATOM      7  CA  LYS A 135      33.193  34.663   9.290  1.00 25.02     0.186 C 
ENDROOT
BRANCH   7   8
ATOM      8  CB  LYS A 135      32.060  35.360  10.034  1.00 26.63     0.034 C 
BRANCH   8   9
ATOM      9  CG  LYS A 135      30.689  34.892   9.619  1.00 29.45     0.005 C 
BRANCH   9  10
ATOM     10  CD  LYS A 135      29.789  34.724  10.834  1.00 32.00     0.041 C 
BRANCH  10  11
ATOM     11  CE  LYS A 135      30.589  34.872  12.114  1.00 34.25     0.338 C 
ATOM     12  NZ  LYS A 135      29.835  34.339  13.282  1.00 35.99     0.618 N 
ENDBRANCH  10  11
ENDBRANCH   9  10
ENDBRANCH   8   9
ENDBRANCH   7   8
END_RES LYS A 135
