REMARK VINA RESULT:    -4.090      3.535      6.322
REMARK INTER + INTRA:         -14.451
REMARK INTER:                  -8.342
REMARK INTRA:                  -6.109
REMARK UNBOUND:                -5.938
REMARK SMILES CCOC(CCn1cc(COC(=O)NC[C@@H](O)C(O)[C@@H]2O[C@@](O)(C(=O)O)C[C@H](O)[C@H]2NC(C)=O)nn1)OCC
REMARK SMILES IDX 11 1 12 2 14 3 13 5 15 6 16 7 18 8 20 9 22 10 27 11 21 12
REMARK SMILES IDX 28 13 30 14 23 15 24 17 25 18 26 19 29 21 31 23 32 24 33 26
REMARK SMILES IDX 34 27 19 28 17 30 10 32 9 33 8 34 35 35 7 36 36 37 6 38 5 39
REMARK SMILES IDX 4 40 3 41 2 42 1 43 37 44 38 45 39 46
REMARK H PARENT 14 4 23 16 26 20 29 22 31 25 19 29 17 31
REMARK Flexibility Score: inf
ROOT
ATOM      1  O   UNL     1      30.888  37.410  17.291  1.00  0.00    -0.443 OA
ENDROOT
BRANCH   1   2
ATOM      2  C   UNL     1      30.028  36.334  17.025  1.00  0.00     0.407 C 
ATOM      3  N   UNL     1      29.808  35.865  15.713  1.00  0.00    -0.319 N 
ATOM      4  H   UNL     1      30.352  36.380  14.949  1.00  0.00     0.167 HD
ATOM      5  O   UNL     1      29.463  35.805  17.985  1.00  0.00    -0.225 OA
BRANCH   3   6
ATOM      6  C   UNL     1      28.956  34.796  15.301  1.00  0.00     0.154 C 
BRANCH   6   7
ATOM      7  C   UNL     1      29.725  33.728  14.576  1.00  0.00     0.165 C 
BRANCH   7   8
ATOM      8  C   UNL     1      29.371  32.413  15.268  1.00  0.00     0.176 C 
BRANCH   8   9
ATOM      9  C   UNL     1      29.084  32.608  16.724  1.00  0.00     0.178 C 
ATOM     10  C   UNL     1      29.966  32.008  18.784  1.00  0.00     0.269 C 
ATOM     11  C   UNL     1      28.643  32.344  19.391  1.00  0.00     0.112 C 
ATOM     12  O   UNL     1      30.185  32.554  17.528  1.00  0.00    -0.332 OA
ATOM     13  C   UNL     1      27.467  32.188  18.472  1.00  0.00     0.145 C 
ATOM     14  C   UNL     1      27.986  31.643  17.159  1.00  0.00     0.142 C 
BRANCH  10  15
ATOM     15  O   UNL     1      30.174  30.627  18.793  1.00  0.00    -0.357 OA
ATOM     16  H   UNL     1      29.457  30.233  19.374  1.00  0.00     0.214 HD
ENDBRANCH  10  15
BRANCH  10  17
ATOM     17  C   UNL     1      31.003  32.608  19.672  1.00  0.00     0.364 C 
ATOM     18  O   UNL     1      31.445  31.985  20.660  1.00  0.00    -0.246 OA
BRANCH  17  19
ATOM     19  O   UNL     1      31.480  33.899  19.378  1.00  0.00    -0.477 OA
ATOM     20  H   UNL     1      30.774  34.634  19.372  1.00  0.00     0.296 HD
ENDBRANCH  17  19
ENDBRANCH  10  17
BRANCH  13  21
ATOM     21  O   UNL     1      26.448  31.409  19.007  1.00  0.00    -0.391 OA
ATOM     22  H   UNL     1      26.360  31.680  19.957  1.00  0.00     0.211 HD
ENDBRANCH  13  21
BRANCH  14  23
ATOM     23  N   UNL     1      26.970  31.644  16.127  1.00  0.00    -0.348 N 
ATOM     24  C   UNL     1      26.231  30.457  15.877  1.00  0.00     0.217 C 
ATOM     25  H   UNL     1      26.739  32.468  15.546  1.00  0.00     0.163 HD
ATOM     26  C   UNL     1      25.178  30.366  14.846  1.00  0.00     0.114 C 
ATOM     27  O   UNL     1      26.486  29.432  16.567  1.00  0.00    -0.275 OA
ENDBRANCH  14  23
ENDBRANCH   8   9
BRANCH   8  28
ATOM     28  O   UNL     1      30.399  31.511  15.048  1.00  0.00    -0.388 OA
ATOM     29  H   UNL     1      30.265  30.649  15.526  1.00  0.00     0.211 HD
ENDBRANCH   8  28
ENDBRANCH   7   8
BRANCH   7  30
ATOM     30  O   UNL     1      31.075  33.908  14.729  1.00  0.00    -0.388 OA
ATOM     31  H   UNL     1      31.332  34.858  14.855  1.00  0.00     0.211 HD
ENDBRANCH   7  30
ENDBRANCH   6   7
ENDBRANCH   3   6
ENDBRANCH   1   2
BRANCH   1  32
ATOM     32  C   UNL     1      31.753  37.906  16.274  1.00  0.00     0.294 C 
BRANCH  32  33
ATOM     33  C   UNL     1      32.900  36.993  16.121  1.00  0.00     0.120 A 
ATOM     34  C   UNL     1      34.082  37.157  16.851  1.00  0.00     0.138 A 
ATOM     35  N   UNL     1      33.106  35.922  15.367  1.00  0.00    -0.132 NA
ATOM     36  N   UNL     1      34.941  36.178  16.501  1.00  0.00    -0.252 N 
ATOM     37  N   UNL     1      34.335  35.448  15.609  1.00  0.00    -0.067 NA
BRANCH  36  38
ATOM     38  C   UNL     1      36.261  36.036  17.049  1.00  0.00     0.151 C 
BRANCH  38  39
ATOM     39  C   UNL     1      37.333  35.929  15.991  1.00  0.00     0.086 C 
BRANCH  39  40
ATOM     40  C   UNL     1      38.344  34.866  16.288  1.00  0.00     0.251 C 
BRANCH  40  41
ATOM     41  O   UNL     1      38.160  33.826  15.383  1.00  0.00    -0.353 OA
BRANCH  41  42
ATOM     42  C   UNL     1      38.250  34.305  14.071  1.00  0.00     0.160 C 
ATOM     43  C   UNL     1      37.766  33.285  13.074  1.00  0.00     0.035 C 
ENDBRANCH  41  42
ENDBRANCH  40  41
BRANCH  40  44
ATOM     44  O   UNL     1      38.240  34.372  17.562  1.00  0.00    -0.353 OA
BRANCH  44  45
ATOM     45  C   UNL     1      38.662  33.045  17.653  1.00  0.00     0.160 C 
ATOM     46  C   UNL     1      38.667  32.634  19.121  1.00  0.00     0.035 C 
ENDBRANCH  44  45
ENDBRANCH  40  44
ENDBRANCH  39  40
ENDBRANCH  38  39
ENDBRANCH  36  38
ENDBRANCH  32  33
ENDBRANCH   1  32
TORSDOF 21
BEGIN_RES LYS A 131
REMARK  4 active torsions:
REMARK  status: ('A' for Active; 'I' for Inactive)
REMARK    1  A    between atoms: CA   and  CB  
REMARK    2  A    between atoms: CB   and  CG  
REMARK    3  A    between atoms: CG   and  CD  
REMARK    4  A    between atoms: CD   and  CE  
ROOT
ATOM      1  CA  LYS A 131      29.867  25.555  16.977  1.00 20.52     0.186 C 
ENDROOT
BRANCH   1   2
ATOM      2  CB  LYS A 131      28.345  25.722  17.026  1.00 20.94     0.034 C 
BRANCH   2   3
ATOM      3  CG  LYS A 131      27.601  24.403  16.887  1.00 22.96     0.005 C 
BRANCH   3   4
ATOM      4  CD  LYS A 131      26.606  24.194  17.994  1.00 24.33     0.041 C 
BRANCH   4   5
ATOM      5  CE  LYS A 131      25.384  23.462  17.449  1.00 26.91     0.338 C 
ATOM      6  NZ  LYS A 131      24.428  24.423  16.850  1.00 27.40     0.618 N 
ENDBRANCH   4   5
ENDBRANCH   3   4
ENDBRANCH   2   3
ENDBRANCH   1   2
END_RES LYS A 131
BEGIN_RES LYS A 135
REMARK  4 active torsions:
REMARK  status: ('A' for Active; 'I' for Inactive)
REMARK    5  A    between atoms: CA   and  CB  
REMARK    6  A    between atoms: CB   and  CG  
REMARK    7  A    between atoms: CG   and  CD  
REMARK    8  A    between atoms: CD   and  CE  
ROOT
ATOM      7  CA  LYS A 135      33.193  34.663   9.290  1.00 25.02     0.186 C 
ENDROOT
BRANCH   7   8
ATOM      8  CB  LYS A 135      32.060  35.360  10.034  1.00 26.63     0.034 C 
BRANCH   8   9
ATOM      9  CG  LYS A 135      30.727  34.673   9.882  1.00 29.45     0.005 C 
BRANCH   9  10
ATOM     10  CD  LYS A 135      30.312  34.625   8.420  1.00 32.00     0.041 C 
BRANCH  10  11
ATOM     11  CE  LYS A 135      28.803  34.537   8.298  1.00 34.25     0.338 C 
ATOM     12  NZ  LYS A 135      28.211  33.816   9.459  1.00 35.99     0.618 N 
ENDBRANCH  10  11
ENDBRANCH   9  10
ENDBRANCH   8   9
ENDBRANCH   7   8
END_RES LYS A 135
