REMARK VINA RESULT:    -4.102      7.828     13.169
REMARK INTER + INTRA:         -14.107
REMARK INTER:                  -8.159
REMARK INTRA:                  -5.948
REMARK UNBOUND:                -7.007
REMARK SMILES CC(=O)N[C@@H]1[C@@H](O)C[C@](O)(C(=O)O)O[C@H]1C(O)[C@H](O)CNC(=O)OCc1cn(-c2ccc(Cl)cc2)nn1
REMARK SMILES IDX 20 1 18 2 16 3 15 4 9 5 8 6 14 7 6 8 5 9 10 10 11 12 12 13
REMARK SMILES IDX 13 14 7 16 4 18 2 19 1 21 3 22 17 23 19 25 21 27 22 28 23 30
REMARK SMILES IDX 24 31 25 32 26 33 27 34 37 35 28 36 36 37 29 38 30 39 35 40
REMARK SMILES IDX 31 41 34 42 32 43 33 44
REMARK H PARENT 10 11 13 15 7 17 4 20 17 24 19 26 21 29
REMARK Flexibility Score: inf
ROOT
ATOM      1  C   UNL     1      20.955  33.702  12.081  1.00  0.00     0.154 C 
ENDROOT
BRANCH   1   2
ATOM      2  C   UNL     1      20.760  35.095  11.571  1.00  0.00     0.165 C 
BRANCH   2   3
ATOM      3  C   UNL     1      22.140  35.652  11.185  1.00  0.00     0.176 C 
BRANCH   3   4
ATOM      4  C   UNL     1      22.012  36.740  10.121  1.00  0.00     0.178 C 
ATOM      5  C   UNL     1      20.935  35.993   8.173  1.00  0.00     0.269 C 
ATOM      6  C   UNL     1      21.752  36.831   7.214  1.00  0.00     0.112 C 
ATOM      7  O   UNL     1      20.846  36.472   9.434  1.00  0.00    -0.332 OA
ATOM      8  C   UNL     1      22.770  37.594   7.983  1.00  0.00     0.145 C 
ATOM      9  C   UNL     1      23.163  36.782   9.202  1.00  0.00     0.142 C 
BRANCH   5  10
ATOM     10  O   UNL     1      21.434  34.695   8.078  1.00  0.00    -0.357 OA
ATOM     11  H   UNL     1      22.406  34.759   8.261  1.00  0.00     0.214 HD
ENDBRANCH   5  10
BRANCH   5  12
ATOM     12  C   UNL     1      19.560  35.967   7.611  1.00  0.00     0.364 C 
ATOM     13  O   UNL     1      18.808  36.938   7.853  1.00  0.00    -0.246 OA
BRANCH  12  14
ATOM     14  O   UNL     1      19.105  34.927   6.849  1.00  0.00    -0.477 OA
ATOM     15  H   UNL     1      18.317  35.072   6.213  1.00  0.00     0.296 HD
ENDBRANCH  12  14
ENDBRANCH   5  12
BRANCH   8  16
ATOM     16  O   UNL     1      23.874  37.967   7.225  1.00  0.00    -0.391 OA
ATOM     17  H   UNL     1      24.558  37.267   7.238  1.00  0.00     0.211 HD
ENDBRANCH   8  16
BRANCH   9  18
ATOM     18  N   UNL     1      24.388  37.312   9.693  1.00  0.00    -0.348 N 
ATOM     19  C   UNL     1      25.595  36.575   9.736  1.00  0.00     0.217 C 
ATOM     20  H   UNL     1      24.349  38.310  10.033  1.00  0.00     0.163 HD
ATOM     21  C   UNL     1      26.849  37.160  10.253  1.00  0.00     0.114 C 
ATOM     22  O   UNL     1      25.505  35.394   9.300  1.00  0.00    -0.275 OA
ENDBRANCH   9  18
ENDBRANCH   3   4
BRANCH   3  23
ATOM     23  O   UNL     1      22.950  34.615  10.711  1.00  0.00    -0.388 OA
ATOM     24  H   UNL     1      23.859  34.643  11.123  1.00  0.00     0.211 HD
ENDBRANCH   3  23
ENDBRANCH   2   3
BRANCH   2  25
ATOM     25  O   UNL     1      20.125  35.921  12.470  1.00  0.00    -0.388 OA
ATOM     26  H   UNL     1      19.235  36.229  12.228  1.00  0.00     0.211 HD
ENDBRANCH   2  25
ENDBRANCH   1   2
BRANCH   1  27
ATOM     27  N   UNL     1      21.950  33.528  13.086  1.00  0.00    -0.319 N 
ATOM     28  C   UNL     1      22.621  32.311  13.365  1.00  0.00     0.407 C 
ATOM     29  H   UNL     1      22.226  34.358  13.681  1.00  0.00     0.167 HD
ATOM     30  O   UNL     1      22.387  31.273  12.725  1.00  0.00    -0.225 OA
BRANCH  28  31
ATOM     31  O   UNL     1      23.583  32.256  14.393  1.00  0.00    -0.443 OA
BRANCH  31  32
ATOM     32  C   UNL     1      24.039  33.449  15.025  1.00  0.00     0.294 C 
BRANCH  32  33
ATOM     33  C   UNL     1      25.243  33.894  14.282  1.00  0.00     0.121 A 
ATOM     34  C   UNL     1      26.525  33.881  14.748  1.00  0.00     0.144 A 
ATOM     35  N   UNL     1      25.279  34.376  13.048  1.00  0.00    -0.131 NA
ATOM     36  N   UNL     1      27.309  34.366  13.763  1.00  0.00    -0.220 N 
ATOM     37  N   UNL     1      26.536  34.663  12.735  1.00  0.00    -0.062 NA
BRANCH  36  38
ATOM     38  C   UNL     1      28.727  34.503  13.889  1.00  0.00     0.066 A 
ATOM     39  C   UNL     1      29.357  35.572  13.299  1.00  0.00     0.030 A 
ATOM     40  C   UNL     1      29.403  33.548  14.605  1.00  0.00     0.030 A 
ATOM     41  C   UNL     1      30.728  35.667  13.445  1.00  0.00     0.023 A 
ATOM     42  C   UNL     1      30.772  33.672  14.732  1.00  0.00     0.023 A 
ATOM     43  C   UNL     1      31.447  34.721  14.161  1.00  0.00     0.041 A 
ATOM     44  Cl  UNL     1      33.176  34.820  14.358  1.00  0.00    -0.084 Cl
ENDBRANCH  36  38
ENDBRANCH  32  33
ENDBRANCH  31  32
ENDBRANCH  28  31
ENDBRANCH   1  27
TORSDOF 15
BEGIN_RES LYS A 131
REMARK  4 active torsions:
REMARK  status: ('A' for Active; 'I' for Inactive)
REMARK    1  A    between atoms: CA   and  CB  
REMARK    2  A    between atoms: CB   and  CG  
REMARK    3  A    between atoms: CG   and  CD  
REMARK    4  A    between atoms: CD   and  CE  
ROOT
ATOM      1  CA  LYS A 131      29.867  25.555  16.977  1.00 20.52     0.186 C 
ENDROOT
BRANCH   1   2
ATOM      2  CB  LYS A 131      28.345  25.722  17.026  1.00 20.94     0.034 C 
BRANCH   2   3
ATOM      3  CG  LYS A 131      27.603  24.395  16.985  1.00 22.96     0.005 C 
BRANCH   3   4
ATOM      4  CD  LYS A 131      26.621  24.260  18.115  1.00 24.33     0.041 C 
BRANCH   4   5
ATOM      5  CE  LYS A 131      25.254  23.876  17.558  1.00 26.91     0.338 C 
ATOM      6  NZ  LYS A 131      25.107  22.402  17.512  1.00 27.40     0.618 N 
ENDBRANCH   4   5
ENDBRANCH   3   4
ENDBRANCH   2   3
ENDBRANCH   1   2
END_RES LYS A 131
BEGIN_RES LYS A 135
REMARK  4 active torsions:
REMARK  status: ('A' for Active; 'I' for Inactive)
REMARK    5  A    between atoms: CA   and  CB  
REMARK    6  A    between atoms: CB   and  CG  
REMARK    7  A    between atoms: CG   and  CD  
REMARK    8  A    between atoms: CD   and  CE  
ROOT
ATOM      7  CA  LYS A 135      33.193  34.663   9.290  1.00 25.02     0.186 C 
ENDROOT
BRANCH   7   8
ATOM      8  CB  LYS A 135      32.060  35.360  10.034  1.00 26.63     0.034 C 
BRANCH   8   9
ATOM      9  CG  LYS A 135      30.734  34.655   9.910  1.00 29.45     0.005 C 
BRANCH   9  10
ATOM     10  CD  LYS A 135      30.330  34.524   8.449  1.00 32.00     0.041 C 
BRANCH  10  11
ATOM     11  CE  LYS A 135      28.820  34.520   8.313  1.00 34.25     0.338 C 
ATOM     12  NZ  LYS A 135      28.380  35.384   7.183  1.00 35.99     0.618 N 
ENDBRANCH  10  11
ENDBRANCH   9  10
ENDBRANCH   8   9
ENDBRANCH   7   8
END_RES LYS A 135
