REMARK VINA RESULT:    -5.602      4.901      8.780
REMARK INTER + INTRA:         -14.243
REMARK INTER:                  -7.472
REMARK INTRA:                  -6.771
REMARK UNBOUND:                -4.548
REMARK SMILES CC(=O)N[C@@H]1[C@@H](O)C[C@](O)(C(=O)O)O[C@H]1C(O)[C@H](O)CNC(=O)OCc1cn(-c2ccc3c(c2)OCO3)nn1
REMARK SMILES IDX 20 1 18 2 16 3 15 4 9 5 8 6 14 7 6 8 5 9 10 10 11 12 12 13
REMARK SMILES IDX 13 14 7 16 4 18 2 19 1 21 3 22 17 23 19 25 21 27 22 28 23 30
REMARK SMILES IDX 24 31 25 32 26 33 27 34 39 35 28 36 38 37 29 38 30 39 34 40
REMARK SMILES IDX 31 41 33 42 32 43 35 44 37 45 36 46
REMARK H PARENT 10 11 13 15 7 17 4 20 17 24 19 26 21 29
REMARK Flexibility Score: inf
ROOT
ATOM      1  C   UNL     1      28.502  30.102  16.062  1.00  0.00     0.154 C 
ENDROOT
BRANCH   1   2
ATOM      2  C   UNL     1      27.167  30.600  15.620  1.00  0.00     0.165 C 
BRANCH   2   3
ATOM      3  C   UNL     1      27.050  32.119  15.827  1.00  0.00     0.176 C 
BRANCH   3   4
ATOM      4  C   UNL     1      25.654  32.504  15.491  1.00  0.00     0.178 C 
ATOM      5  C   UNL     1      23.910  32.206  14.054  1.00  0.00     0.269 C 
ATOM      6  C   UNL     1      23.263  33.104  15.087  1.00  0.00     0.112 C 
ATOM      7  O   UNL     1      25.178  31.800  14.390  1.00  0.00    -0.332 OA
ATOM      8  C   UNL     1      24.092  34.342  15.370  1.00  0.00     0.145 C 
ATOM      9  C   UNL     1      25.522  33.985  15.138  1.00  0.00     0.142 C 
BRANCH   5  10
ATOM     10  O   UNL     1      23.867  32.906  12.846  1.00  0.00    -0.357 OA
ATOM     11  H   UNL     1      24.573  33.603  12.912  1.00  0.00     0.214 HD
ENDBRANCH   5  10
BRANCH   5  12
ATOM     12  C   UNL     1      23.065  30.994  13.955  1.00  0.00     0.364 C 
ATOM     13  O   UNL     1      21.843  31.074  14.222  1.00  0.00    -0.246 OA
BRANCH  12  14
ATOM     14  O   UNL     1      23.568  29.760  13.578  1.00  0.00    -0.477 OA
ATOM     15  H   UNL     1      23.962  29.571  12.663  1.00  0.00     0.296 HD
ENDBRANCH  12  14
ENDBRANCH   5  12
BRANCH   8  16
ATOM     16  O   UNL     1      23.642  35.321  14.458  1.00  0.00    -0.391 OA
ATOM     17  H   UNL     1      24.313  35.494  13.773  1.00  0.00     0.211 HD
ENDBRANCH   8  16
BRANCH   9  18
ATOM     18  N   UNL     1      26.478  34.808  15.784  1.00  0.00    -0.348 N 
ATOM     19  C   UNL     1      26.813  36.147  15.448  1.00  0.00     0.217 C 
ATOM     20  H   UNL     1      26.997  34.401  16.592  1.00  0.00     0.163 HD
ATOM     21  C   UNL     1      27.841  36.929  16.197  1.00  0.00     0.114 C 
ATOM     22  O   UNL     1      26.206  36.663  14.482  1.00  0.00    -0.275 OA
ENDBRANCH   9  18
ENDBRANCH   3   4
BRANCH   3  23
ATOM     23  O   UNL     1      27.373  32.385  17.129  1.00  0.00    -0.388 OA
ATOM     24  H   UNL     1      28.005  31.812  17.575  1.00  0.00     0.211 HD
ENDBRANCH   3  23
ENDBRANCH   2   3
BRANCH   2  25
ATOM     25  O   UNL     1      26.144  30.001  16.306  1.00  0.00    -0.388 OA
ATOM     26  H   UNL     1      25.518  29.459  15.780  1.00  0.00     0.211 HD
ENDBRANCH   2  25
ENDBRANCH   1   2
BRANCH   1  27
ATOM     27  N   UNL     1      29.571  30.799  15.436  1.00  0.00    -0.319 N 
ATOM     28  C   UNL     1      30.501  31.585  16.135  1.00  0.00     0.407 C 
ATOM     29  H   UNL     1      29.704  30.745  14.380  1.00  0.00     0.167 HD
ATOM     30  O   UNL     1      30.499  31.778  17.362  1.00  0.00    -0.225 OA
BRANCH  28  31
ATOM     31  O   UNL     1      31.527  32.219  15.412  1.00  0.00    -0.443 OA
BRANCH  31  32
ATOM     32  C   UNL     1      31.833  33.553  15.684  1.00  0.00     0.294 C 
BRANCH  32  33
ATOM     33  C   UNL     1      31.374  34.399  14.552  1.00  0.00     0.121 A 
ATOM     34  C   UNL     1      30.068  34.521  14.090  1.00  0.00     0.144 A 
ATOM     35  N   UNL     1      32.102  35.201  13.756  1.00  0.00    -0.131 NA
ATOM     36  N   UNL     1      30.037  35.374  13.051  1.00  0.00    -0.220 N 
ATOM     37  N   UNL     1      31.288  35.763  12.882  1.00  0.00    -0.062 NA
BRANCH  36  38
ATOM     38  C   UNL     1      28.881  35.754  12.314  1.00  0.00     0.070 A 
ATOM     39  C   UNL     1      28.772  37.024  11.785  1.00  0.00     0.032 A 
ATOM     40  C   UNL     1      27.825  34.894  12.092  1.00  0.00     0.079 A 
ATOM     41  C   UNL     1      27.648  37.417  11.060  1.00  0.00     0.053 A 
ATOM     42  C   UNL     1      26.691  35.265  11.370  1.00  0.00     0.167 A 
ATOM     43  C   UNL     1      26.607  36.539  10.853  1.00  0.00     0.165 A 
ATOM     44  O   UNL     1      25.521  34.599  11.016  1.00  0.00    -0.454 OA
ATOM     45  O   UNL     1      25.371  36.619  10.187  1.00  0.00    -0.454 OA
ATOM     46  C   UNL     1      24.539  35.554  10.656  1.00  0.00     0.468 C 
ENDBRANCH  36  38
ENDBRANCH  32  33
ENDBRANCH  31  32
ENDBRANCH  28  31
ENDBRANCH   1  27
TORSDOF 15
BEGIN_RES LYS A 131
REMARK  4 active torsions:
REMARK  status: ('A' for Active; 'I' for Inactive)
REMARK    1  A    between atoms: CA   and  CB  
REMARK    2  A    between atoms: CB   and  CG  
REMARK    3  A    between atoms: CG   and  CD  
REMARK    4  A    between atoms: CD   and  CE  
ROOT
ATOM      1  CA  LYS A 131      29.867  25.555  16.977  1.00 20.52     0.186 C 
ENDROOT
BRANCH   1   2
ATOM      2  CB  LYS A 131      28.345  25.722  17.026  1.00 20.94     0.034 C 
BRANCH   2   3
ATOM      3  CG  LYS A 131      27.602  24.399  16.924  1.00 22.96     0.005 C 
BRANCH   3   4
ATOM      4  CD  LYS A 131      26.633  24.204  18.057  1.00 24.33     0.041 C 
BRANCH   4   5
ATOM      5  CE  LYS A 131      25.340  23.596  17.523  1.00 26.91     0.338 C 
ATOM      6  NZ  LYS A 131      24.480  24.647  16.929  1.00 27.40     0.618 N 
ENDBRANCH   4   5
ENDBRANCH   3   4
ENDBRANCH   2   3
ENDBRANCH   1   2
END_RES LYS A 131
BEGIN_RES LYS A 135
REMARK  4 active torsions:
REMARK  status: ('A' for Active; 'I' for Inactive)
REMARK    5  A    between atoms: CA   and  CB  
REMARK    6  A    between atoms: CB   and  CG  
REMARK    7  A    between atoms: CG   and  CD  
REMARK    8  A    between atoms: CD   and  CE  
ROOT
ATOM      7  CA  LYS A 135      33.193  34.663   9.290  1.00 25.02     0.186 C 
ENDROOT
BRANCH   7   8
ATOM      8  CB  LYS A 135      32.060  35.360  10.034  1.00 26.63     0.034 C 
BRANCH   8   9
ATOM      9  CG  LYS A 135      30.817  35.545   9.202  1.00 29.45     0.005 C 
BRANCH   9  10
ATOM     10  CD  LYS A 135      30.056  34.235   9.076  1.00 32.00     0.041 C 
BRANCH  10  11
ATOM     11  CE  LYS A 135      28.707  34.464   8.421  1.00 34.25     0.338 C 
ATOM     12  NZ  LYS A 135      28.805  35.472   7.329  1.00 35.99     0.618 N 
ENDBRANCH  10  11
ENDBRANCH   9  10
ENDBRANCH   8   9
ENDBRANCH   7   8
END_RES LYS A 135
