REMARK VINA RESULT:    -4.804      2.458      7.132
REMARK INTER + INTRA:         -13.460
REMARK INTER:                  -6.352
REMARK INTRA:                  -7.108
REMARK UNBOUND:                -4.724
REMARK SMILES CC(=O)N[C@@H]1[C@@H](O)C[C@](O)(C(=O)O)O[C@H]1C(O)[C@H](O)CNC(=O)OCc1cn([C@@H](C)C(=O)O)nn1
REMARK SMILES IDX 21 1 22 2 23 3 20 5 18 6 16 7 15 8 9 9 8 10 14 11 6 12 5 13
REMARK SMILES IDX 10 14 11 16 12 17 13 18 7 20 4 22 2 23 1 25 3 26 17 27 19 29
REMARK SMILES IDX 24 31 25 32 26 33 27 34 35 35 28 36 34 37 29 38 30 39 31 40
REMARK SMILES IDX 32 41 33 42
REMARK H PARENT 21 4 10 15 13 19 7 21 4 24 17 28 19 30 33 43
REMARK Flexibility Score: inf
ROOT
ATOM      1  N   UNL     1      29.790  33.656  14.185  1.00  0.00    -0.319 N 
ATOM      2  C   UNL     1      29.427  34.995  14.454  1.00  0.00     0.407 C 
ATOM      3  O   UNL     1      28.883  35.328  15.538  1.00  0.00    -0.225 OA
ATOM      4  H   UNL     1      30.236  33.434  13.275  1.00  0.00     0.167 HD
ENDROOT
BRANCH   1   5
ATOM      5  C   UNL     1      29.562  32.602  15.129  1.00  0.00     0.154 C 
BRANCH   5   6
ATOM      6  C   UNL     1      30.860  32.036  15.716  1.00  0.00     0.165 C 
BRANCH   6   7
ATOM      7  C   UNL     1      31.034  32.640  17.066  1.00  0.00     0.176 C 
BRANCH   7   8
ATOM      8  C   UNL     1      29.798  32.819  17.882  1.00  0.00     0.178 C 
ATOM      9  C   UNL     1      30.793  33.309  19.937  1.00  0.00     0.269 C 
ATOM     10  C   UNL     1      30.928  31.850  20.123  1.00  0.00     0.112 C 
ATOM     11  O   UNL     1      30.080  33.762  18.859  1.00  0.00    -0.332 OA
ATOM     12  C   UNL     1      29.842  30.988  19.585  1.00  0.00     0.145 C 
ATOM     13  C   UNL     1      29.140  31.602  18.408  1.00  0.00     0.142 C 
BRANCH   9  14
ATOM     14  O   UNL     1      32.110  33.806  19.747  1.00  0.00    -0.357 OA
ATOM     15  H   UNL     1      32.293  33.768  18.784  1.00  0.00     0.214 HD
ENDBRANCH   9  14
BRANCH   9  16
ATOM     16  C   UNL     1      30.303  33.924  21.201  1.00  0.00     0.364 C 
ATOM     17  O   UNL     1      30.960  34.811  21.811  1.00  0.00    -0.246 OA
BRANCH  16  18
ATOM     18  O   UNL     1      29.095  33.538  21.756  1.00  0.00    -0.477 OA
ATOM     19  H   UNL     1      28.649  34.030  22.523  1.00  0.00     0.296 HD
ENDBRANCH  16  18
ENDBRANCH   9  16
BRANCH  12  20
ATOM     20  O   UNL     1      30.419  29.747  19.253  1.00  0.00    -0.391 OA
ATOM     21  H   UNL     1      31.373  29.929  19.075  1.00  0.00     0.211 HD
ENDBRANCH  12  20
BRANCH  13  22
ATOM     22  N   UNL     1      27.789  32.016  18.839  1.00  0.00    -0.348 N 
ATOM     23  C   UNL     1      26.656  31.766  18.034  1.00  0.00     0.217 C 
ATOM     24  H   UNL     1      27.624  32.502  19.739  1.00  0.00     0.163 HD
ATOM     25  C   UNL     1      25.289  32.161  18.423  1.00  0.00     0.114 C 
ATOM     26  O   UNL     1      26.793  31.171  16.915  1.00  0.00    -0.275 OA
ENDBRANCH  13  22
ENDBRANCH   7   8
BRANCH   7  27
ATOM     27  O   UNL     1      31.494  33.974  16.816  1.00  0.00    -0.388 OA
ATOM     28  H   UNL     1      30.916  34.295  16.079  1.00  0.00     0.211 HD
ENDBRANCH   7  27
ENDBRANCH   6   7
BRANCH   6  29
ATOM     29  O   UNL     1      31.859  32.435  14.838  1.00  0.00    -0.388 OA
ATOM     30  H   UNL     1      32.640  31.848  14.997  1.00  0.00     0.211 HD
ENDBRANCH   6  29
ENDBRANCH   5   6
ENDBRANCH   1   5
BRANCH   2  31
ATOM     31  O   UNL     1      29.663  36.013  13.510  1.00  0.00    -0.443 OA
BRANCH  31  32
ATOM     32  C   UNL     1      30.964  36.231  12.994  1.00  0.00     0.294 C 
BRANCH  32  33
ATOM     33  C   UNL     1      31.995  36.062  14.048  1.00  0.00     0.120 A 
ATOM     34  C   UNL     1      32.273  36.959  15.082  1.00  0.00     0.139 A 
ATOM     35  N   UNL     1      32.863  35.044  14.240  1.00  0.00    -0.132 NA
ATOM     36  N   UNL     1      33.263  36.464  15.831  1.00  0.00    -0.238 N 
ATOM     37  N   UNL     1      33.614  35.312  15.318  1.00  0.00    -0.066 NA
BRANCH  36  38
ATOM     38  C   UNL     1      33.865  37.083  17.017  1.00  0.00     0.215 C 
ATOM     39  C   UNL     1      33.540  38.567  17.042  1.00  0.00     0.046 C 
BRANCH  38  40
ATOM     40  C   UNL     1      33.423  36.441  18.253  1.00  0.00     0.328 C 
ATOM     41  O   UNL     1      34.265  35.958  19.043  1.00  0.00    -0.250 OA
BRANCH  40  42
ATOM     42  O   UNL     1      32.086  36.320  18.627  1.00  0.00    -0.480 OA
ATOM     43  H   UNL     1      31.550  37.127  18.925  1.00  0.00     0.296 HD
ENDBRANCH  40  42
ENDBRANCH  38  40
ENDBRANCH  36  38
ENDBRANCH  32  33
ENDBRANCH  31  32
ENDBRANCH   2  31
TORSDOF 17
BEGIN_RES LYS A 131
REMARK  4 active torsions:
REMARK  status: ('A' for Active; 'I' for Inactive)
REMARK    1  A    between atoms: CA   and  CB  
REMARK    2  A    between atoms: CB   and  CG  
REMARK    3  A    between atoms: CG   and  CD  
REMARK    4  A    between atoms: CD   and  CE  
ROOT
ATOM      1  CA  LYS A 131      29.867  25.555  16.977  1.00 20.52     0.186 C 
ENDROOT
BRANCH   1   2
ATOM      2  CB  LYS A 131      28.345  25.722  17.026  1.00 20.94     0.034 C 
BRANCH   2   3
ATOM      3  CG  LYS A 131      27.601  24.402  16.897  1.00 22.96     0.005 C 
BRANCH   3   4
ATOM      4  CD  LYS A 131      26.642  24.179  18.033  1.00 24.33     0.041 C 
BRANCH   4   5
ATOM      5  CE  LYS A 131      26.424  25.490  18.780  1.00 26.91     0.338 C 
ATOM      6  NZ  LYS A 131      25.549  25.278  19.957  1.00 27.40     0.618 N 
ENDBRANCH   4   5
ENDBRANCH   3   4
ENDBRANCH   2   3
ENDBRANCH   1   2
END_RES LYS A 131
BEGIN_RES LYS A 135
REMARK  4 active torsions:
REMARK  status: ('A' for Active; 'I' for Inactive)
REMARK    5  A    between atoms: CA   and  CB  
REMARK    6  A    between atoms: CB   and  CG  
REMARK    7  A    between atoms: CG   and  CD  
REMARK    8  A    between atoms: CD   and  CE  
ROOT
ATOM      7  CA  LYS A 135      33.193  34.663   9.290  1.00 25.02     0.186 C 
ENDROOT
BRANCH   7   8
ATOM      8  CB  LYS A 135      32.060  35.360  10.034  1.00 26.63     0.034 C 
BRANCH   8   9
ATOM      9  CG  LYS A 135      30.698  34.797   9.721  1.00 29.45     0.005 C 
BRANCH   9  10
ATOM     10  CD  LYS A 135      30.570  34.495   8.236  1.00 32.00     0.041 C 
BRANCH  10  11
ATOM     11  CE  LYS A 135      29.213  34.931   7.718  1.00 34.25     0.338 C 
ATOM     12  NZ  LYS A 135      28.120  34.451   8.608  1.00 35.99     0.618 N 
ENDBRANCH  10  11
ENDBRANCH   9  10
ENDBRANCH   8   9
ENDBRANCH   7   8
END_RES LYS A 135
