REMARK VINA RESULT:    -5.223      0.000      0.000
REMARK INTER + INTRA:         -15.532
REMARK INTER:                  -9.562
REMARK INTRA:                  -5.970
REMARK UNBOUND:                -6.187
REMARK SMILES CC(=O)N[C@@H]1[C@@H](O)C[C@](O)(C(=O)O)O[C@H]1C(O)[C@H](O)CNC(=O)OCc1cn(-c2cc(Cl)ccc2C(=O)N(C)C)nn1
REMARK SMILES IDX 21 1 22 2 23 3 20 5 18 6 16 7 15 8 9 9 8 10 14 11 6 12 5 13
REMARK SMILES IDX 10 14 11 16 12 17 13 18 7 20 4 22 2 23 1 25 3 26 17 27 19 29
REMARK SMILES IDX 24 31 25 32 26 33 27 34 42 35 28 36 41 37 29 38 30 39 35 40
REMARK SMILES IDX 31 41 34 42 32 43 33 44 36 45 37 46 38 47 39 48 40 49
REMARK H PARENT 21 4 10 15 13 19 7 21 4 24 17 28 19 30
REMARK Flexibility Score: inf
ROOT
ATOM      1  N   UNL     1      23.035  35.232   9.933  1.00  0.00    -0.319 N 
ATOM      2  C   UNL     1      23.528  35.768  11.132  1.00  0.00     0.407 C 
ATOM      3  O   UNL     1      22.960  36.742  11.667  1.00  0.00    -0.225 OA
ATOM      4  H   UNL     1      23.516  34.414   9.495  1.00  0.00     0.167 HD
ENDROOT
BRANCH   1   5
ATOM      5  C   UNL     1      21.876  35.764   9.265  1.00  0.00     0.154 C 
BRANCH   5   6
ATOM      6  C   UNL     1      22.272  36.328   7.925  1.00  0.00     0.165 C 
BRANCH   6   7
ATOM      7  C   UNL     1      22.801  37.737   8.021  1.00  0.00     0.176 C 
BRANCH   7   8
ATOM      8  C   UNL     1      24.265  37.769   7.796  1.00  0.00     0.178 C 
ATOM      9  C   UNL     1      26.337  36.963   8.357  1.00  0.00     0.269 C 
ATOM     10  C   UNL     1      26.691  37.666   7.071  1.00  0.00     0.112 C 
ATOM     11  O   UNL     1      25.036  37.140   8.758  1.00  0.00    -0.332 OA
ATOM     12  C   UNL     1      26.161  39.059   6.993  1.00  0.00     0.145 C 
ATOM     13  C   UNL     1      24.803  39.195   7.677  1.00  0.00     0.142 C 
BRANCH   9  14
ATOM     14  O   UNL     1      27.143  37.508   9.372  1.00  0.00    -0.357 OA
ATOM     15  H   UNL     1      26.504  37.791  10.095  1.00  0.00     0.214 HD
ENDBRANCH   9  14
BRANCH   9  16
ATOM     16  C   UNL     1      26.602  35.523   8.274  1.00  0.00     0.364 C 
ATOM     17  O   UNL     1      27.388  35.085   7.400  1.00  0.00    -0.246 OA
BRANCH  16  18
ATOM     18  O   UNL     1      26.031  34.579   9.114  1.00  0.00    -0.477 OA
ATOM     19  H   UNL     1      26.439  33.631   9.087  1.00  0.00     0.296 HD
ENDBRANCH  16  18
ENDBRANCH   9  16
BRANCH  12  20
ATOM     20  O   UNL     1      27.101  39.924   7.589  1.00  0.00    -0.391 OA
ATOM     21  H   UNL     1      27.925  39.380   7.705  1.00  0.00     0.211 HD
ENDBRANCH  12  20
BRANCH  13  22
ATOM     22  N   UNL     1      23.917  40.050   6.964  1.00  0.00    -0.348 N 
ATOM     23  C   UNL     1      23.963  41.454   7.159  1.00  0.00     0.217 C 
ATOM     24  H   UNL     1      23.225  39.672   6.290  1.00  0.00     0.163 HD
ATOM     25  C   UNL     1      23.008  42.314   6.382  1.00  0.00     0.114 C 
ATOM     26  O   UNL     1      24.748  42.022   7.938  1.00  0.00    -0.275 OA
ENDBRANCH  13  22
ENDBRANCH   7   8
BRANCH   7  27
ATOM     27  O   UNL     1      22.358  38.322   9.180  1.00  0.00    -0.388 OA
ATOM     28  H   UNL     1      22.179  39.294   8.973  1.00  0.00     0.211 HD
ENDBRANCH   7  27
ENDBRANCH   6   7
BRANCH   6  29
ATOM     29  O   UNL     1      21.116  36.404   7.087  1.00  0.00    -0.388 OA
ATOM     30  H   UNL     1      21.186  35.780   6.337  1.00  0.00     0.211 HD
ENDBRANCH   6  29
ENDBRANCH   5   6
ENDBRANCH   1   5
BRANCH   2  31
ATOM     31  O   UNL     1      24.649  35.271  11.789  1.00  0.00    -0.443 OA
BRANCH  31  32
ATOM     32  C   UNL     1      25.600  36.171  12.321  1.00  0.00     0.294 C 
BRANCH  32  33
ATOM     33  C   UNL     1      26.909  35.523  12.487  1.00  0.00     0.121 A 
ATOM     34  C   UNL     1      27.581  35.169  13.638  1.00  0.00     0.144 A 
ATOM     35  N   UNL     1      27.715  35.147  11.479  1.00  0.00    -0.131 NA
ATOM     36  N   UNL     1      28.766  34.592  13.306  1.00  0.00    -0.219 N 
ATOM     37  N   UNL     1      28.804  34.600  11.996  1.00  0.00    -0.062 NA
BRANCH  36  38
ATOM     38  C   UNL     1      29.765  34.082  14.178  1.00  0.00     0.081 A 
ATOM     39  C   UNL     1      29.567  32.894  14.866  1.00  0.00     0.049 A 
ATOM     40  C   UNL     1      30.940  34.780  14.337  1.00  0.00     0.065 A 
ATOM     41  C   UNL     1      30.518  32.384  15.713  1.00  0.00     0.043 A 
ATOM     42  C   UNL     1      31.922  34.295  15.184  1.00  0.00     0.017 A 
ATOM     43  Cl  UNL     1      30.277  30.877  16.592  1.00  0.00    -0.084 Cl
ATOM     44  C   UNL     1      31.690  33.098  15.860  1.00  0.00     0.021 A 
BRANCH  40  45
ATOM     45  C   UNL     1      31.133  36.015  13.614  1.00  0.00     0.255 C 
ATOM     46  O   UNL     1      31.685  36.071  12.478  1.00  0.00    -0.269 OA
ATOM     47  N   UNL     1      30.695  37.236  14.177  1.00  0.00    -0.345 N 
ATOM     48  C   UNL     1      30.058  37.221  15.471  1.00  0.00     0.146 C 
ATOM     49  C   UNL     1      30.863  38.509  13.492  1.00  0.00     0.146 C 
ENDBRANCH  40  45
ENDBRANCH  36  38
ENDBRANCH  32  33
ENDBRANCH  31  32
ENDBRANCH   2  31
TORSDOF 16
BEGIN_RES LYS A 131
REMARK  4 active torsions:
REMARK  status: ('A' for Active; 'I' for Inactive)
REMARK    1  A    between atoms: CA   and  CB  
REMARK    2  A    between atoms: CB   and  CG  
REMARK    3  A    between atoms: CG   and  CD  
REMARK    4  A    between atoms: CD   and  CE  
ROOT
ATOM      1  CA  LYS A 131      29.867  25.555  16.977  1.00 20.52     0.186 C 
ENDROOT
BRANCH   1   2
ATOM      2  CB  LYS A 131      28.345  25.722  17.026  1.00 20.94     0.034 C 
BRANCH   2   3
ATOM      3  CG  LYS A 131      27.599  24.444  16.675  1.00 22.96     0.005 C 
BRANCH   3   4
ATOM      4  CD  LYS A 131      27.029  23.768  17.891  1.00 24.33     0.041 C 
BRANCH   4   5
ATOM      5  CE  LYS A 131      25.594  23.336  17.608  1.00 26.91     0.338 C 
ATOM      6  NZ  LYS A 131      24.847  24.425  16.937  1.00 27.40     0.618 N 
ENDBRANCH   4   5
ENDBRANCH   3   4
ENDBRANCH   2   3
ENDBRANCH   1   2
END_RES LYS A 131
BEGIN_RES LYS A 135
REMARK  4 active torsions:
REMARK  status: ('A' for Active; 'I' for Inactive)
REMARK    5  A    between atoms: CA   and  CB  
REMARK    6  A    between atoms: CB   and  CG  
REMARK    7  A    between atoms: CG   and  CD  
REMARK    8  A    between atoms: CD   and  CE  
ROOT
ATOM      7  CA  LYS A 135      33.193  34.663   9.290  1.00 25.02     0.186 C 
ENDROOT
BRANCH   7   8
ATOM      8  CB  LYS A 135      32.060  35.360  10.034  1.00 26.63     0.034 C 
BRANCH   8   9
ATOM      9  CG  LYS A 135      30.737  35.294   9.316  1.00 29.45     0.005 C 
BRANCH   9  10
ATOM     10  CD  LYS A 135      30.392  36.641   8.701  1.00 32.00     0.041 C 
BRANCH  10  11
ATOM     11  CE  LYS A 135      30.989  37.769   9.520  1.00 34.25     0.338 C 
ATOM     12  NZ  LYS A 135      31.469  38.874   8.644  1.00 35.99     0.618 N 
ENDBRANCH  10  11
ENDBRANCH   9  10
ENDBRANCH   8   9
ENDBRANCH   7   8
END_RES LYS A 135
