REMARK VINA RESULT:    -4.708      2.647      9.544
REMARK INTER + INTRA:         -16.833
REMARK INTER:                 -10.139
REMARK INTRA:                  -6.694
REMARK UNBOUND:                -7.171
REMARK SMILES CCOCCc1c(-c2ccccc2)nc(N)nc1-n1cc(COC(=O)NC[C@@H](O)C(O)[C@@H]2O[C@@](O)(C(=O)O)C[C@H](O)[C@H]2NC(C)=O)nn1
REMARK SMILES IDX 23 1 24 2 26 3 25 5 27 6 28 7 30 8 32 9 34 10 39 11 33 12
REMARK SMILES IDX 40 13 42 14 35 15 36 17 37 18 38 19 41 21 43 23 44 24 45 26
REMARK SMILES IDX 46 27 31 28 29 30 22 32 21 33 20 34 47 35 19 36 48 37 18 38
REMARK SMILES IDX 17 39 6 40 15 41 7 42 14 43 5 44 4 45 3 46 2 47 1 48 16 49
REMARK SMILES IDX 8 52 9 53 13 54 10 55 12 56 11 57
REMARK H PARENT 26 4 35 16 38 20 41 22 43 25 31 29 29 31 16 50 16 51
REMARK Flexibility Score: inf
ROOT
ATOM      1  O   UNL     1      23.485  32.655  12.901  1.00  0.00    -0.443 OA
ENDROOT
BRANCH   1   2
ATOM      2  C   UNL     1      23.739  32.648  14.254  1.00  0.00     0.407 C 
ATOM      3  N   UNL     1      24.968  33.176  14.797  1.00  0.00    -0.319 N 
ATOM      4  H   UNL     1      25.627  33.550  14.086  1.00  0.00     0.167 HD
ATOM      5  O   UNL     1      22.867  32.164  15.019  1.00  0.00    -0.225 OA
BRANCH   3   6
ATOM      6  C   UNL     1      25.182  33.142  16.225  1.00  0.00     0.154 C 
BRANCH   6   7
ATOM      7  C   UNL     1      26.627  32.728  16.467  1.00  0.00     0.165 C 
BRANCH   7   8
ATOM      8  C   UNL     1      27.490  33.796  15.840  1.00  0.00     0.176 C 
BRANCH   8   9
ATOM      9  C   UNL     1      28.867  33.917  16.418  1.00  0.00     0.178 C 
ATOM     10  C   UNL     1      29.760  35.130  14.624  1.00  0.00     0.269 C 
ATOM     11  C   UNL     1      30.311  33.810  14.109  1.00  0.00     0.112 C 
ATOM     12  O   UNL     1      29.422  35.082  15.945  1.00  0.00    -0.332 OA
ATOM     13  C   UNL     1      30.875  33.042  15.287  1.00  0.00     0.145 C 
ATOM     14  C   UNL     1      29.747  32.728  16.290  1.00  0.00     0.142 C 
BRANCH  10  15
ATOM     15  O   UNL     1      28.678  35.438  13.791  1.00  0.00    -0.357 OA
ATOM     16  H   UNL     1      28.181  34.637  13.514  1.00  0.00     0.214 HD
ENDBRANCH  10  15
BRANCH  10  17
ATOM     17  C   UNL     1      30.760  36.206  14.459  1.00  0.00     0.364 C 
ATOM     18  O   UNL     1      30.911  37.045  15.367  1.00  0.00    -0.246 OA
BRANCH  17  19
ATOM     19  O   UNL     1      31.513  36.284  13.317  1.00  0.00    -0.477 OA
ATOM     20  H   UNL     1      31.658  35.522  12.667  1.00  0.00     0.296 HD
ENDBRANCH  17  19
ENDBRANCH  10  17
BRANCH  13  21
ATOM     21  O   UNL     1      31.510  31.894  14.873  1.00  0.00    -0.391 OA
ATOM     22  H   UNL     1      31.021  31.090  15.151  1.00  0.00     0.211 HD
ENDBRANCH  13  21
BRANCH  14  23
ATOM     23  N   UNL     1      30.451  32.412  17.541  1.00  0.00    -0.348 N 
ATOM     24  C   UNL     1      29.994  31.342  18.347  1.00  0.00     0.217 C 
ATOM     25  H   UNL     1      31.282  32.962  17.847  1.00  0.00     0.163 HD
ATOM     26  C   UNL     1      30.661  30.965  19.632  1.00  0.00     0.114 C 
ATOM     27  O   UNL     1      28.986  30.698  17.944  1.00  0.00    -0.275 OA
ENDBRANCH  14  23
ENDBRANCH   8   9
BRANCH   8  28
ATOM     28  O   UNL     1      26.834  35.007  16.240  1.00  0.00    -0.388 OA
ATOM     29  H   UNL     1      27.496  35.655  16.550  1.00  0.00     0.211 HD
ENDBRANCH   8  28
ENDBRANCH   7   8
BRANCH   7  30
ATOM     30  O   UNL     1      26.771  31.473  15.895  1.00  0.00    -0.388 OA
ATOM     31  H   UNL     1      27.111  31.523  14.976  1.00  0.00     0.211 HD
ENDBRANCH   7  30
ENDBRANCH   6   7
ENDBRANCH   3   6
ENDBRANCH   1   2
BRANCH   1  32
ATOM     32  C   UNL     1      22.588  33.520  12.238  1.00  0.00     0.294 C 
BRANCH  32  33
ATOM     33  C   UNL     1      23.301  34.776  11.842  1.00  0.00     0.121 A 
ATOM     34  C   UNL     1      24.558  34.903  11.306  1.00  0.00     0.146 A 
ATOM     35  N   UNL     1      22.828  36.036  11.946  1.00  0.00    -0.131 NA
ATOM     36  N   UNL     1      24.837  36.225  11.091  1.00  0.00    -0.202 N 
ATOM     37  N   UNL     1      23.750  36.867  11.497  1.00  0.00    -0.060 NA
BRANCH  36  38
ATOM     38  C   UNL     1      26.039  36.762  10.568  1.00  0.00     0.164 A 
ATOM     39  N   UNL     1      27.104  36.978  11.351  1.00  0.00    -0.193 NA
ATOM     40  C   UNL     1      26.136  37.110   9.215  1.00  0.00     0.026 A 
ATOM     41  C   UNL     1      28.248  37.518  10.859  1.00  0.00     0.222 A 
ATOM     42  C   UNL     1      27.286  37.656   8.718  1.00  0.00     0.081 A 
ATOM     43  N   UNL     1      28.355  37.857   9.571  1.00  0.00    -0.213 NA
BRANCH  40  44
ATOM     44  C   UNL     1      24.955  36.905   8.352  1.00  0.00     0.070 C 
BRANCH  44  45
ATOM     45  C   UNL     1      24.001  38.064   8.294  1.00  0.00     0.165 C 
BRANCH  45  46
ATOM     46  O   UNL     1      22.850  37.769   7.617  1.00  0.00    -0.381 OA
BRANCH  46  47
ATOM     47  C   UNL     1      21.805  37.376   8.421  1.00  0.00     0.156 C 
ATOM     48  C   UNL     1      21.478  35.908   8.241  1.00  0.00     0.035 C 
ENDBRANCH  46  47
ENDBRANCH  45  46
ENDBRANCH  44  45
ENDBRANCH  40  44
BRANCH  41  49
ATOM     49  N   UNL     1      29.348  37.727  11.723  1.00  0.00    -0.368 N 
ATOM     50  H   UNL     1      29.395  38.579  12.309  1.00  0.00     0.159 HD
ATOM     51  H   UNL     1      30.127  37.047  11.794  1.00  0.00     0.159 HD
ENDBRANCH  41  49
BRANCH  42  52
ATOM     52  C   UNL     1      27.408  38.141   7.357  1.00  0.00     0.001 A 
ATOM     53  C   UNL     1      27.096  39.355   6.865  1.00  0.00     0.010 A 
ATOM     54  C   UNL     1      27.950  37.213   6.439  1.00  0.00     0.010 A 
ATOM     55  C   UNL     1      27.305  39.665   5.508  1.00  0.00     0.001 A 
ATOM     56  C   UNL     1      28.158  37.502   5.119  1.00  0.00     0.001 A 
ATOM     57  C   UNL     1      27.833  38.753   4.625  1.00  0.00     0.000 A 
ENDBRANCH  42  52
ENDBRANCH  36  38
ENDBRANCH  32  33
ENDBRANCH   1  32
TORSDOF 21
BEGIN_RES LYS A 131
REMARK  4 active torsions:
REMARK  status: ('A' for Active; 'I' for Inactive)
REMARK    1  A    between atoms: CA   and  CB  
REMARK    2  A    between atoms: CB   and  CG  
REMARK    3  A    between atoms: CG   and  CD  
REMARK    4  A    between atoms: CD   and  CE  
ROOT
ATOM      1  CA  LYS A 131      29.867  25.555  16.977  1.00 20.52     0.186 C 
ENDROOT
BRANCH   1   2
ATOM      2  CB  LYS A 131      28.345  25.722  17.026  1.00 20.94     0.034 C 
BRANCH   2   3
ATOM      3  CG  LYS A 131      27.601  24.402  16.895  1.00 22.96     0.005 C 
BRANCH   3   4
ATOM      4  CD  LYS A 131      26.565  24.226  17.970  1.00 24.33     0.041 C 
BRANCH   4   5
ATOM      5  CE  LYS A 131      25.176  24.200  17.339  1.00 26.91     0.338 C 
ATOM      6  NZ  LYS A 131      24.631  22.821  17.342  1.00 27.40     0.618 N 
ENDBRANCH   4   5
ENDBRANCH   3   4
ENDBRANCH   2   3
ENDBRANCH   1   2
END_RES LYS A 131
BEGIN_RES LYS A 135
REMARK  4 active torsions:
REMARK  status: ('A' for Active; 'I' for Inactive)
REMARK    5  A    between atoms: CA   and  CB  
REMARK    6  A    between atoms: CB   and  CG  
REMARK    7  A    between atoms: CG   and  CD  
REMARK    8  A    between atoms: CD   and  CE  
ROOT
ATOM      7  CA  LYS A 135      33.193  34.663   9.290  1.00 25.02     0.186 C 
ENDROOT
BRANCH   7   8
ATOM      8  CB  LYS A 135      32.060  35.360  10.034  1.00 26.63     0.034 C 
BRANCH   8   9
ATOM      9  CG  LYS A 135      30.739  34.642   9.929  1.00 29.45     0.005 C 
BRANCH   9  10
ATOM     10  CD  LYS A 135      30.191  34.731   8.513  1.00 32.00     0.041 C 
BRANCH  10  11
ATOM     11  CE  LYS A 135      28.729  34.327   8.481  1.00 34.25     0.338 C 
ATOM     12  NZ  LYS A 135      28.243  33.965   9.842  1.00 35.99     0.618 N 
ENDBRANCH  10  11
ENDBRANCH   9  10
ENDBRANCH   8   9
ENDBRANCH   7   8
END_RES LYS A 135
