REMARK VINA RESULT:    -5.060      8.896     13.799
REMARK INTER + INTRA:         -13.919
REMARK INTER:                  -7.574
REMARK INTRA:                  -6.345
REMARK UNBOUND:                -5.161
REMARK SMILES CC(=O)N[C@@H]1[C@@H](O)C[C@](O)(C(=O)O)O[C@H]1C(O)[C@H](O)CNC(=O)OCc1cn(-c2ccc(Br)cc2)nn1
REMARK SMILES IDX 20 1 18 2 16 3 15 4 9 5 8 6 14 7 6 8 5 9 10 10 11 12 12 13
REMARK SMILES IDX 13 14 7 16 4 18 2 19 1 21 3 22 17 23 19 25 21 27 22 28 23 30
REMARK SMILES IDX 24 31 25 32 26 33 27 34 37 35 28 36 36 37 29 38 30 39 35 40
REMARK SMILES IDX 31 41 34 42 32 43 33 44
REMARK H PARENT 10 11 13 15 7 17 4 20 17 24 19 26 21 29
REMARK Flexibility Score: inf
ROOT
ATOM      1  C   UNL     1      24.129  37.964   7.227  1.00  0.00     0.154 C 
ENDROOT
BRANCH   1   2
ATOM      2  C   UNL     1      23.031  38.665   7.969  1.00  0.00     0.165 C 
BRANCH   2   3
ATOM      3  C   UNL     1      21.797  37.864   8.192  1.00  0.00     0.176 C 
BRANCH   3   4
ATOM      4  C   UNL     1      21.723  37.202   9.553  1.00  0.00     0.178 C 
ATOM      5  C   UNL     1      22.964  37.285  11.542  1.00  0.00     0.269 C 
ATOM      6  C   UNL     1      22.615  35.830  11.687  1.00  0.00     0.112 C 
ATOM      7  O   UNL     1      22.794  37.716  10.273  1.00  0.00    -0.332 OA
ATOM      8  C   UNL     1      22.873  35.155  10.360  1.00  0.00     0.145 C 
ATOM      9  C   UNL     1      21.849  35.716   9.363  1.00  0.00     0.142 C 
BRANCH   5  10
ATOM     10  O   UNL     1      24.343  37.456  11.851  1.00  0.00    -0.357 OA
ATOM     11  H   UNL     1      24.814  37.300  10.991  1.00  0.00     0.214 HD
ENDBRANCH   5  10
BRANCH   5  12
ATOM     12  C   UNL     1      22.169  38.134  12.471  1.00  0.00     0.364 C 
ATOM     13  O   UNL     1      21.151  37.735  13.063  1.00  0.00    -0.246 OA
BRANCH  12  14
ATOM     14  O   UNL     1      22.576  39.438  12.694  1.00  0.00    -0.477 OA
ATOM     15  H   UNL     1      22.669  40.126  11.946  1.00  0.00     0.296 HD
ENDBRANCH  12  14
ENDBRANCH   5  12
BRANCH   8  16
ATOM     16  O   UNL     1      24.122  35.579   9.911  1.00  0.00    -0.391 OA
ATOM     17  H   UNL     1      24.498  35.012   9.211  1.00  0.00     0.211 HD
ENDBRANCH   8  16
BRANCH   9  18
ATOM     18  N   UNL     1      20.605  35.086   9.705  1.00  0.00    -0.348 N 
ATOM     19  C   UNL     1      19.615  34.715   8.764  1.00  0.00     0.217 C 
ATOM     20  H   UNL     1      20.385  34.871  10.712  1.00  0.00     0.163 HD
ATOM     21  C   UNL     1      18.334  34.064   9.169  1.00  0.00     0.114 C 
ATOM     22  O   UNL     1      19.819  34.938   7.553  1.00  0.00    -0.275 OA
ENDBRANCH   9  18
ENDBRANCH   3   4
BRANCH   3  23
ATOM     23  O   UNL     1      21.727  36.878   7.177  1.00  0.00    -0.388 OA
ATOM     24  H   UNL     1      22.379  37.127   6.488  1.00  0.00     0.211 HD
ENDBRANCH   3  23
ENDBRANCH   2   3
BRANCH   2  25
ATOM     25  O   UNL     1      22.691  39.817   7.227  1.00  0.00    -0.388 OA
ATOM     26  H   UNL     1      22.805  40.633   7.774  1.00  0.00     0.211 HD
ENDBRANCH   2  25
ENDBRANCH   1   2
BRANCH   1  27
ATOM     27  N   UNL     1      25.339  37.767   7.955  1.00  0.00    -0.319 N 
ATOM     28  C   UNL     1      26.520  38.521   7.612  1.00  0.00     0.407 C 
ATOM     29  H   UNL     1      25.480  37.103   8.744  1.00  0.00     0.167 HD
ATOM     30  O   UNL     1      26.433  39.338   6.664  1.00  0.00    -0.225 OA
BRANCH  28  31
ATOM     31  O   UNL     1      27.710  38.351   8.303  1.00  0.00    -0.443 OA
BRANCH  31  32
ATOM     32  C   UNL     1      27.707  38.760   9.664  1.00  0.00     0.294 C 
BRANCH  32  33
ATOM     33  C   UNL     1      27.642  37.519  10.488  1.00  0.00     0.121 A 
ATOM     34  C   UNL     1      28.596  37.073  11.383  1.00  0.00     0.144 A 
ATOM     35  N   UNL     1      26.660  36.599  10.529  1.00  0.00    -0.131 NA
ATOM     36  N   UNL     1      28.174  35.920  11.929  1.00  0.00    -0.220 N 
ATOM     37  N   UNL     1      27.004  35.671  11.388  1.00  0.00    -0.062 NA
BRANCH  36  38
ATOM     38  C   UNL     1      28.807  35.088  12.897  1.00  0.00     0.066 A 
ATOM     39  C   UNL     1      30.166  34.840  12.883  1.00  0.00     0.029 A 
ATOM     40  C   UNL     1      28.075  34.489  13.902  1.00  0.00     0.029 A 
ATOM     41  C   UNL     1      30.767  34.031  13.829  1.00  0.00     0.018 A 
ATOM     42  C   UNL     1      28.674  33.675  14.856  1.00  0.00     0.018 A 
ATOM     43  C   UNL     1      30.027  33.433  14.835  1.00  0.00     0.018 A 
ATOM     44  Br  UNL     1      30.905  32.327  16.114  1.00  0.00    -0.051 Br
ENDBRANCH  36  38
ENDBRANCH  32  33
ENDBRANCH  31  32
ENDBRANCH  28  31
ENDBRANCH   1  27
TORSDOF 15
BEGIN_RES LYS A 131
REMARK  4 active torsions:
REMARK  status: ('A' for Active; 'I' for Inactive)
REMARK    1  A    between atoms: CA   and  CB  
REMARK    2  A    between atoms: CB   and  CG  
REMARK    3  A    between atoms: CG   and  CD  
REMARK    4  A    between atoms: CD   and  CE  
ROOT
ATOM      1  CA  LYS A 131      29.867  25.555  16.977  1.00 20.52     0.186 C 
ENDROOT
BRANCH   1   2
ATOM      2  CB  LYS A 131      28.345  25.722  17.026  1.00 20.94     0.034 C 
BRANCH   2   3
ATOM      3  CG  LYS A 131      27.602  24.399  16.919  1.00 22.96     0.005 C 
BRANCH   3   4
ATOM      4  CD  LYS A 131      26.411  24.343  17.835  1.00 24.33     0.041 C 
BRANCH   4   5
ATOM      5  CE  LYS A 131      26.450  25.529  18.794  1.00 26.91     0.338 C 
ATOM      6  NZ  LYS A 131      25.480  25.336  19.898  1.00 27.40     0.618 N 
ENDBRANCH   4   5
ENDBRANCH   3   4
ENDBRANCH   2   3
ENDBRANCH   1   2
END_RES LYS A 131
BEGIN_RES LYS A 135
REMARK  4 active torsions:
REMARK  status: ('A' for Active; 'I' for Inactive)
REMARK    5  A    between atoms: CA   and  CB  
REMARK    6  A    between atoms: CB   and  CG  
REMARK    7  A    between atoms: CG   and  CD  
REMARK    8  A    between atoms: CD   and  CE  
ROOT
ATOM      7  CA  LYS A 135      33.193  34.663   9.290  1.00 25.02     0.186 C 
ENDROOT
BRANCH   7   8
ATOM      8  CB  LYS A 135      32.060  35.360  10.034  1.00 26.63     0.034 C 
BRANCH   8   9
ATOM      9  CG  LYS A 135      30.825  35.566   9.195  1.00 29.45     0.005 C 
BRANCH   9  10
ATOM     10  CD  LYS A 135      30.094  34.249   8.984  1.00 32.00     0.041 C 
BRANCH  10  11
ATOM     11  CE  LYS A 135      28.701  34.495   8.436  1.00 34.25     0.338 C 
ATOM     12  NZ  LYS A 135      28.753  35.284   7.174  1.00 35.99     0.618 N 
ENDBRANCH  10  11
ENDBRANCH   9  10
ENDBRANCH   8   9
ENDBRANCH   7   8
END_RES LYS A 135
