REMARK VINA RESULT:    -4.707      4.859     10.288
REMARK INTER + INTRA:         -14.992
REMARK INTER:                  -7.754
REMARK INTRA:                  -7.238
REMARK UNBOUND:                -5.744
REMARK SMILES CC(=O)N[C@@H]1[C@@H](O)C[C@](O)(C(=O)O)O[C@H]1C(O)[C@H](O)CNC(=O)OCc1cn([C@@H](CC(=O)O)C(=O)O)nn1
REMARK SMILES IDX 21 1 22 2 23 3 20 5 18 6 16 7 15 8 9 9 8 10 14 11 6 12 5 13
REMARK SMILES IDX 10 14 11 16 12 17 13 18 7 20 4 22 2 23 1 25 3 26 17 27 19 29
REMARK SMILES IDX 24 31 25 32 26 33 27 34 38 35 28 36 37 37 29 38 30 39 31 40
REMARK SMILES IDX 32 41 33 42 34 44 35 45 36 46
REMARK H PARENT 21 4 10 15 13 19 7 21 4 24 17 28 19 30 33 43 36 47
REMARK Flexibility Score: inf
ROOT
ATOM      1  N   UNL     1      31.561  41.117   8.353  1.00  0.00    -0.319 N 
ATOM      2  C   UNL     1      31.074  41.972   9.386  1.00  0.00     0.407 C 
ATOM      3  O   UNL     1      29.893  42.334   9.348  1.00  0.00    -0.225 OA
ATOM      4  H   UNL     1      32.576  40.850   8.451  1.00  0.00     0.167 HD
ENDROOT
BRANCH   1   5
ATOM      5  C   UNL     1      30.779  40.636   7.258  1.00  0.00     0.154 C 
BRANCH   5   6
ATOM      6  C   UNL     1      30.651  39.128   7.304  1.00  0.00     0.165 C 
BRANCH   6   7
ATOM      7  C   UNL     1      29.308  38.708   7.872  1.00  0.00     0.176 C 
BRANCH   7   8
ATOM      8  C   UNL     1      28.138  39.162   7.075  1.00  0.00     0.178 C 
ATOM      9  C   UNL     1      26.743  37.497   7.899  1.00  0.00     0.269 C 
ATOM     10  C   UNL     1      27.234  36.563   6.874  1.00  0.00     0.112 C 
ATOM     11  O   UNL     1      26.925  38.839   7.692  1.00  0.00    -0.332 OA
ATOM     12  C   UNL     1      27.894  37.109   5.670  1.00  0.00     0.145 C 
ATOM     13  C   UNL     1      28.128  38.593   5.683  1.00  0.00     0.142 C 
BRANCH   9  14
ATOM     14  O   UNL     1      27.334  37.226   9.160  1.00  0.00    -0.357 OA
ATOM     15  H   UNL     1      27.968  37.977   9.308  1.00  0.00     0.214 HD
ENDBRANCH   9  14
BRANCH   9  16
ATOM     16  C   UNL     1      25.286  37.307   8.137  1.00  0.00     0.364 C 
ATOM     17  O   UNL     1      24.789  36.969   9.236  1.00  0.00    -0.246 OA
BRANCH  16  18
ATOM     18  O   UNL     1      24.428  37.520   7.070  1.00  0.00    -0.477 OA
ATOM     19  H   UNL     1      24.555  37.054   6.163  1.00  0.00     0.296 HD
ENDBRANCH  16  18
ENDBRANCH   9  16
BRANCH  12  20
ATOM     20  O   UNL     1      29.097  36.452   5.431  1.00  0.00    -0.391 OA
ATOM     21  H   UNL     1      29.581  36.764   4.648  1.00  0.00     0.211 HD
ENDBRANCH  12  20
BRANCH  13  22
ATOM     22  N   UNL     1      27.070  39.281   4.903  1.00  0.00    -0.348 N 
ATOM     23  C   UNL     1      27.369  40.424   4.126  1.00  0.00     0.217 C 
ATOM     24  H   UNL     1      26.085  38.943   4.907  1.00  0.00     0.163 HD
ATOM     25  C   UNL     1      26.338  41.148   3.327  1.00  0.00     0.114 C 
ATOM     26  O   UNL     1      28.546  40.841   4.112  1.00  0.00    -0.275 OA
ENDBRANCH  13  22
ENDBRANCH   7   8
BRANCH   7  27
ATOM     27  O   UNL     1      29.291  39.348   9.145  1.00  0.00    -0.388 OA
ATOM     28  H   UNL     1      28.363  39.507   9.437  1.00  0.00     0.211 HD
ENDBRANCH   7  27
ENDBRANCH   6   7
BRANCH   6  29
ATOM     29  O   UNL     1      31.736  38.622   8.008  1.00  0.00    -0.388 OA
ATOM     30  H   UNL     1      31.553  37.751   8.440  1.00  0.00     0.211 HD
ENDBRANCH   6  29
ENDBRANCH   5   6
ENDBRANCH   1   5
BRANCH   2  31
ATOM     31  O   UNL     1      31.875  42.409  10.428  1.00  0.00    -0.443 OA
BRANCH  31  32
ATOM     32  C   UNL     1      31.715  41.870  11.716  1.00  0.00     0.294 C 
BRANCH  32  33
ATOM     33  C   UNL     1      31.437  40.413  11.697  1.00  0.00     0.120 A 
ATOM     34  C   UNL     1      30.674  39.789  12.654  1.00  0.00     0.139 A 
ATOM     35  N   UNL     1      31.820  39.472  10.838  1.00  0.00    -0.132 NA
ATOM     36  N   UNL     1      30.616  38.469  12.342  1.00  0.00    -0.237 N 
ATOM     37  N   UNL     1      31.314  38.322  11.252  1.00  0.00    -0.066 NA
BRANCH  36  38
ATOM     38  C   UNL     1      29.881  37.501  13.151  1.00  0.00     0.229 C 
BRANCH  38  39
ATOM     39  C   UNL     1      29.036  36.637  12.255  1.00  0.00     0.161 C 
BRANCH  39  40
ATOM     40  C   UNL     1      27.629  36.593  12.679  1.00  0.00     0.306 C 
ATOM     41  O   UNL     1      27.365  36.379  13.889  1.00  0.00    -0.252 OA
BRANCH  40  42
ATOM     42  O   UNL     1      26.630  36.789  11.738  1.00  0.00    -0.481 OA
ATOM     43  H   UNL     1      26.895  37.065  10.780  1.00  0.00     0.296 HD
ENDBRANCH  40  42
ENDBRANCH  39  40
ENDBRANCH  38  39
BRANCH  38  44
ATOM     44  C   UNL     1      30.867  36.607  13.818  1.00  0.00     0.329 C 
ATOM     45  O   UNL     1      30.581  35.831  14.765  1.00  0.00    -0.250 OA
BRANCH  44  46
ATOM     46  O   UNL     1      32.177  36.633  13.373  1.00  0.00    -0.480 OA
ATOM     47  H   UNL     1      32.936  36.191  13.878  1.00  0.00     0.296 HD
ENDBRANCH  44  46
ENDBRANCH  38  44
ENDBRANCH  36  38
ENDBRANCH  32  33
ENDBRANCH  31  32
ENDBRANCH   2  31
TORSDOF 20
BEGIN_RES LYS A 131
REMARK  4 active torsions:
REMARK  status: ('A' for Active; 'I' for Inactive)
REMARK    1  A    between atoms: CA   and  CB  
REMARK    2  A    between atoms: CB   and  CG  
REMARK    3  A    between atoms: CG   and  CD  
REMARK    4  A    between atoms: CD   and  CE  
ROOT
ATOM      1  CA  LYS A 131      29.867  25.555  16.977  1.00 20.52     0.186 C 
ENDROOT
BRANCH   1   2
ATOM      2  CB  LYS A 131      28.345  25.722  17.026  1.00 20.94     0.034 C 
BRANCH   2   3
ATOM      3  CG  LYS A 131      27.601  24.403  16.888  1.00 22.96     0.005 C 
BRANCH   3   4
ATOM      4  CD  LYS A 131      26.152  24.526  17.271  1.00 24.33     0.041 C 
BRANCH   4   5
ATOM      5  CE  LYS A 131      25.640  23.178  17.766  1.00 26.91     0.338 C 
ATOM      6  NZ  LYS A 131      24.304  22.888  17.193  1.00 27.40     0.618 N 
ENDBRANCH   4   5
ENDBRANCH   3   4
ENDBRANCH   2   3
ENDBRANCH   1   2
END_RES LYS A 131
BEGIN_RES LYS A 135
REMARK  4 active torsions:
REMARK  status: ('A' for Active; 'I' for Inactive)
REMARK    5  A    between atoms: CA   and  CB  
REMARK    6  A    between atoms: CB   and  CG  
REMARK    7  A    between atoms: CG   and  CD  
REMARK    8  A    between atoms: CD   and  CE  
ROOT
ATOM      7  CA  LYS A 135      33.193  34.663   9.290  1.00 25.02     0.186 C 
ENDROOT
BRANCH   7   8
ATOM      8  CB  LYS A 135      32.060  35.360  10.034  1.00 26.63     0.034 C 
BRANCH   8   9
ATOM      9  CG  LYS A 135      30.775  35.425   9.250  1.00 29.45     0.005 C 
BRANCH   9  10
ATOM     10  CD  LYS A 135      30.166  34.039   9.101  1.00 32.00     0.041 C 
BRANCH  10  11
ATOM     11  CE  LYS A 135      28.697  34.138   8.737  1.00 34.25     0.338 C 
ATOM     12  NZ  LYS A 135      27.832  33.771   9.892  1.00 35.99     0.618 N 
ENDBRANCH  10  11
ENDBRANCH   9  10
ENDBRANCH   8   9
ENDBRANCH   7   8
END_RES LYS A 135
