REMARK VINA RESULT:    -4.116      2.361      6.998
REMARK INTER + INTRA:         -14.796
REMARK INTER:                  -8.638
REMARK INTRA:                  -6.158
REMARK UNBOUND:                -7.311
REMARK SMILES CC(=O)N[C@@H]1[C@@H](O)C[C@](O)(C(=O)O)O[C@H]1C(O)[C@H](O)CNC(=O)OCc1cn(-c2ccc(O)c([N+](=O)[O-])c2)nn1
REMARK SMILES IDX 21 1 22 2 23 3 20 5 18 6 16 7 15 8 9 9 8 10 14 11 6 12 5 13
REMARK SMILES IDX 10 14 11 16 12 17 13 18 7 20 4 22 2 23 1 25 3 26 17 27 19 29
REMARK SMILES IDX 24 31 25 32 26 33 27 34 40 35 28 36 39 37 29 38 30 39 38 40
REMARK SMILES IDX 31 41 34 42 32 43 35 44 36 45 37 46 33 47
REMARK H PARENT 21 4 10 15 13 19 7 21 4 24 17 28 19 30 33 48
REMARK Flexibility Score: inf
ROOT
ATOM      1  N   UNL     1      28.790  33.003  18.760  1.00  0.00    -0.319 N 
ATOM      2  C   UNL     1      29.159  31.685  19.141  1.00  0.00     0.407 C 
ATOM      3  O   UNL     1      30.361  31.387  19.448  1.00  0.00    -0.225 OA
ATOM      4  H   UNL     1      27.805  33.204  18.526  1.00  0.00     0.167 HD
ENDROOT
BRANCH   1   5
ATOM      5  C   UNL     1      29.792  34.027  18.721  1.00  0.00     0.154 C 
BRANCH   5   6
ATOM      6  C   UNL     1      30.446  34.269  17.408  1.00  0.00     0.165 C 
BRANCH   6   7
ATOM      7  C   UNL     1      29.533  34.226  16.210  1.00  0.00     0.176 C 
BRANCH   7   8
ATOM      8  C   UNL     1      30.139  34.753  14.947  1.00  0.00     0.178 C 
ATOM      9  C   UNL     1      32.003  35.705  14.002  1.00  0.00     0.269 C 
ATOM     10  C   UNL     1      31.269  35.251  12.761  1.00  0.00     0.112 C 
ATOM     11  O   UNL     1      31.352  35.378  15.179  1.00  0.00    -0.332 OA
ATOM     12  C   UNL     1      29.896  35.834  12.758  1.00  0.00     0.145 C 
ATOM     13  C   UNL     1      29.190  35.488  14.074  1.00  0.00     0.142 C 
BRANCH   9  14
ATOM     14  O   UNL     1      32.123  37.085  13.919  1.00  0.00    -0.357 OA
ATOM     15  H   UNL     1      32.821  37.354  14.577  1.00  0.00     0.214 HD
ENDBRANCH   9  14
BRANCH   9  16
ATOM     16  C   UNL     1      33.363  35.113  13.953  1.00  0.00     0.364 C 
ATOM     17  O   UNL     1      34.097  35.077  14.975  1.00  0.00    -0.246 OA
BRANCH  16  18
ATOM     18  O   UNL     1      33.852  34.584  12.775  1.00  0.00    -0.477 OA
ATOM     19  H   UNL     1      34.164  33.636  12.676  1.00  0.00     0.296 HD
ENDBRANCH  16  18
ENDBRANCH   9  16
BRANCH  12  20
ATOM     20  O   UNL     1      30.038  37.226  12.608  1.00  0.00    -0.391 OA
ATOM     21  H   UNL     1      30.952  37.366  12.214  1.00  0.00     0.211 HD
ENDBRANCH  12  20
BRANCH  13  22
ATOM     22  N   UNL     1      28.104  34.552  13.743  1.00  0.00    -0.348 N 
ATOM     23  C   UNL     1      26.779  34.973  13.505  1.00  0.00     0.217 C 
ATOM     24  H   UNL     1      28.330  33.531  13.682  1.00  0.00     0.163 HD
ATOM     25  C   UNL     1      25.713  33.996  13.175  1.00  0.00     0.114 C 
ATOM     26  O   UNL     1      26.497  36.176  13.572  1.00  0.00    -0.275 OA
ENDBRANCH  13  22
ENDBRANCH   7   8
BRANCH   7  27
ATOM     27  O   UNL     1      29.085  32.928  15.963  1.00  0.00    -0.388 OA
ATOM     28  H   UNL     1      29.315  32.294  16.662  1.00  0.00     0.211 HD
ENDBRANCH   7  27
ENDBRANCH   6   7
BRANCH   6  29
ATOM     29  O   UNL     1      31.449  33.297  17.275  1.00  0.00    -0.388 OA
ATOM     30  H   UNL     1      32.187  33.548  17.902  1.00  0.00     0.211 HD
ENDBRANCH   6  29
ENDBRANCH   5   6
ENDBRANCH   1   5
BRANCH   2  31
ATOM     31  O   UNL     1      28.180  30.720  19.170  1.00  0.00    -0.443 OA
BRANCH  31  32
ATOM     32  C   UNL     1      28.023  29.858  18.085  1.00  0.00     0.294 C 
BRANCH  32  33
ATOM     33  C   UNL     1      26.973  30.298  17.128  1.00  0.00     0.121 A 
ATOM     34  C   UNL     1      26.092  29.511  16.400  1.00  0.00     0.144 A 
ATOM     35  N   UNL     1      26.667  31.559  16.773  1.00  0.00    -0.131 NA
ATOM     36  N   UNL     1      25.298  30.286  15.646  1.00  0.00    -0.220 N 
ATOM     37  N   UNL     1      25.667  31.531  15.890  1.00  0.00    -0.062 NA
BRANCH  36  38
ATOM     38  C   UNL     1      24.259  29.902  14.753  1.00  0.00     0.073 A 
ATOM     39  C   UNL     1      24.261  30.360  13.452  1.00  0.00     0.033 A 
ATOM     40  C   UNL     1      23.221  29.073  15.125  1.00  0.00     0.118 A 
ATOM     41  C   UNL     1      23.259  29.999  12.565  1.00  0.00     0.056 A 
ATOM     42  C   UNL     1      22.199  28.685  14.275  1.00  0.00     0.312 A 
ATOM     43  C   UNL     1      22.240  29.171  12.971  1.00  0.00     0.194 A 
BRANCH  42  44
ATOM     44  N   UNL     1      21.145  27.838  14.672  1.00  0.00     0.066 N 
ATOM     45  O   UNL     1      19.987  28.256  14.651  1.00  0.00    -0.258 OA
ATOM     46  O   UNL     1      21.410  26.567  15.076  1.00  0.00    -0.258 OA
ENDBRANCH  42  44
BRANCH  43  47
ATOM     47  O   UNL     1      21.211  28.780  12.118  1.00  0.00    -0.502 OA
ATOM     48  H   UNL     1      21.424  28.689  11.114  1.00  0.00     0.293 HD
ENDBRANCH  43  47
ENDBRANCH  36  38
ENDBRANCH  32  33
ENDBRANCH  31  32
ENDBRANCH   2  31
TORSDOF 17
BEGIN_RES LYS A 131
REMARK  4 active torsions:
REMARK  status: ('A' for Active; 'I' for Inactive)
REMARK    1  A    between atoms: CA   and  CB  
REMARK    2  A    between atoms: CB   and  CG  
REMARK    3  A    between atoms: CG   and  CD  
REMARK    4  A    between atoms: CD   and  CE  
ROOT
ATOM      1  CA  LYS A 131      29.867  25.555  16.977  1.00 20.52     0.186 C 
ENDROOT
BRANCH   1   2
ATOM      2  CB  LYS A 131      28.345  25.722  17.026  1.00 20.94     0.034 C 
BRANCH   2   3
ATOM      3  CG  LYS A 131      27.601  24.402  16.891  1.00 22.96     0.005 C 
BRANCH   3   4
ATOM      4  CD  LYS A 131      26.156  24.523  17.289  1.00 24.33     0.041 C 
BRANCH   4   5
ATOM      5  CE  LYS A 131      26.063  25.085  18.704  1.00 26.91     0.338 C 
ATOM      6  NZ  LYS A 131      24.653  25.372  19.056  1.00 27.40     0.618 N 
ENDBRANCH   4   5
ENDBRANCH   3   4
ENDBRANCH   2   3
ENDBRANCH   1   2
END_RES LYS A 131
BEGIN_RES LYS A 135
REMARK  4 active torsions:
REMARK  status: ('A' for Active; 'I' for Inactive)
REMARK    5  A    between atoms: CA   and  CB  
REMARK    6  A    between atoms: CB   and  CG  
REMARK    7  A    between atoms: CG   and  CD  
REMARK    8  A    between atoms: CD   and  CE  
ROOT
ATOM      7  CA  LYS A 135      33.193  34.663   9.290  1.00 25.02     0.186 C 
ENDROOT
BRANCH   7   8
ATOM      8  CB  LYS A 135      32.060  35.360  10.034  1.00 26.63     0.034 C 
BRANCH   8   9
ATOM      9  CG  LYS A 135      30.801  35.501   9.218  1.00 29.45     0.005 C 
BRANCH   9  10
ATOM     10  CD  LYS A 135      30.140  34.147   9.013  1.00 32.00     0.041 C 
BRANCH  10  11
ATOM     11  CE  LYS A 135      28.660  34.314   8.724  1.00 34.25     0.338 C 
ATOM     12  NZ  LYS A 135      27.838  33.940   9.908  1.00 35.99     0.618 N 
ENDBRANCH  10  11
ENDBRANCH   9  10
ENDBRANCH   8   9
ENDBRANCH   7   8
END_RES LYS A 135
