REMARK VINA RESULT:    -5.129      5.193      7.902
REMARK INTER + INTRA:         -14.861
REMARK INTER:                  -9.097
REMARK INTRA:                  -5.764
REMARK UNBOUND:                -4.785
REMARK SMILES C=CCCCCn1cc(COC(=O)NC[C@@H](O)C(O)[C@@H]2O[C@@](O)(C(=O)O)C[C@H](O)[C@H]2NC(C)=O)nn1
REMARK SMILES IDX 11 1 12 2 14 3 13 5 15 6 16 7 18 8 20 9 22 10 27 11 21 12
REMARK SMILES IDX 28 13 30 14 23 15 24 17 25 18 26 19 29 21 31 23 32 24 33 26
REMARK SMILES IDX 34 27 19 28 17 30 10 32 9 33 8 34 35 35 7 36 36 37 6 38 5 39
REMARK SMILES IDX 4 40 3 41 2 42 1 43
REMARK H PARENT 14 4 23 16 26 20 29 22 31 25 19 29 17 31
REMARK Flexibility Score: inf
ROOT
ATOM      1  O   UNL     1      27.338  28.407  18.856  1.00  0.00    -0.443 OA
ENDROOT
BRANCH   1   2
ATOM      2  C   UNL     1      27.969  28.077  20.040  1.00  0.00     0.407 C 
ATOM      3  N   UNL     1      29.277  27.498  19.946  1.00  0.00    -0.319 N 
ATOM      4  H   UNL     1      29.687  27.354  19.003  1.00  0.00     0.167 HD
ATOM      5  O   UNL     1      27.420  28.277  21.172  1.00  0.00    -0.225 OA
BRANCH   3   6
ATOM      6  C   UNL     1      30.017  27.121  21.102  1.00  0.00     0.154 C 
BRANCH   6   7
ATOM      7  C   UNL     1      31.471  27.597  21.086  1.00  0.00     0.165 C 
BRANCH   7   8
ATOM      8  C   UNL     1      31.413  29.097  21.234  1.00  0.00     0.176 C 
BRANCH   8   9
ATOM      9  C   UNL     1      32.751  29.749  21.352  1.00  0.00     0.178 C 
ATOM     10  C   UNL     1      34.465  29.678  22.915  1.00  0.00     0.269 C 
ATOM     11  C   UNL     1      34.949  30.924  22.203  1.00  0.00     0.112 C 
ATOM     12  O   UNL     1      33.592  28.973  22.105  1.00  0.00    -0.332 OA
ATOM     13  C   UNL     1      33.790  31.893  22.152  1.00  0.00     0.145 C 
ATOM     14  C   UNL     1      32.503  31.116  22.004  1.00  0.00     0.142 C 
BRANCH  10  15
ATOM     15  O   UNL     1      33.908  29.990  24.151  1.00  0.00    -0.357 OA
ATOM     16  H   UNL     1      33.092  29.461  24.299  1.00  0.00     0.214 HD
ENDBRANCH  10  15
BRANCH  10  17
ATOM     17  C   UNL     1      35.663  28.840  23.178  1.00  0.00     0.364 C 
ATOM     18  O   UNL     1      36.750  29.329  23.579  1.00  0.00    -0.246 OA
BRANCH  17  19
ATOM     19  O   UNL     1      35.654  27.447  22.993  1.00  0.00    -0.477 OA
ATOM     20  H   UNL     1      35.171  27.088  22.173  1.00  0.00     0.296 HD
ENDBRANCH  17  19
ENDBRANCH  10  17
BRANCH  13  21
ATOM     21  O   UNL     1      33.729  32.583  23.349  1.00  0.00    -0.391 OA
ATOM     22  H   UNL     1      34.611  32.984  23.548  1.00  0.00     0.211 HD
ENDBRANCH  13  21
BRANCH  14  23
ATOM     23  N   UNL     1      31.539  31.826  21.182  1.00  0.00    -0.348 N 
ATOM     24  C   UNL     1      30.662  32.823  21.694  1.00  0.00     0.217 C 
ATOM     25  H   UNL     1      31.441  31.632  20.146  1.00  0.00     0.163 HD
ATOM     26  C   UNL     1      29.674  33.546  20.838  1.00  0.00     0.114 C 
ATOM     27  O   UNL     1      30.753  33.078  22.926  1.00  0.00    -0.275 OA
ENDBRANCH  14  23
ENDBRANCH   8   9
BRANCH   8  28
ATOM     28  O   UNL     1      30.592  29.345  22.347  1.00  0.00    -0.388 OA
ATOM     29  H   UNL     1      31.120  29.437  23.179  1.00  0.00     0.211 HD
ENDBRANCH   8  28
ENDBRANCH   7   8
BRANCH   7  30
ATOM     30  O   UNL     1      32.134  27.171  19.954  1.00  0.00    -0.388 OA
ATOM     31  H   UNL     1      31.680  26.488  19.433  1.00  0.00     0.211 HD
ENDBRANCH   7  30
ENDBRANCH   6   7
ENDBRANCH   3   6
ENDBRANCH   1   2
BRANCH   1  32
ATOM     32  C   UNL     1      27.065  29.748  18.546  1.00  0.00     0.294 C 
BRANCH  32  33
ATOM     33  C   UNL     1      28.376  30.382  18.187  1.00  0.00     0.120 A 
ATOM     34  C   UNL     1      28.711  30.791  16.906  1.00  0.00     0.138 A 
ATOM     35  N   UNL     1      29.431  30.674  18.948  1.00  0.00    -0.132 NA
ATOM     36  N   UNL     1      29.944  31.311  16.935  1.00  0.00    -0.252 N 
ATOM     37  N   UNL     1      30.357  31.227  18.185  1.00  0.00    -0.067 NA
BRANCH  36  38
ATOM     38  C   UNL     1      30.738  31.874  15.853  1.00  0.00     0.146 C 
BRANCH  38  39
ATOM     39  C   UNL     1      31.460  33.104  16.333  1.00  0.00     0.024 C 
BRANCH  39  40
ATOM     40  C   UNL     1      32.183  33.796  15.204  1.00  0.00     0.006 C 
BRANCH  40  41
ATOM     41  C   UNL     1      31.236  34.455  14.236  1.00  0.00     0.027 C 
BRANCH  41  42
ATOM     42  C   UNL     1      31.657  35.852  13.984  1.00  0.00    -0.035 C 
ATOM     43  C   UNL     1      32.281  36.222  12.888  1.00  0.00     0.004 C 
ENDBRANCH  41  42
ENDBRANCH  40  41
ENDBRANCH  39  40
ENDBRANCH  38  39
ENDBRANCH  36  38
ENDBRANCH  32  33
ENDBRANCH   1  32
TORSDOF 19
BEGIN_RES LYS A 131
REMARK  4 active torsions:
REMARK  status: ('A' for Active; 'I' for Inactive)
REMARK    1  A    between atoms: CA   and  CB  
REMARK    2  A    between atoms: CB   and  CG  
REMARK    3  A    between atoms: CG   and  CD  
REMARK    4  A    between atoms: CD   and  CE  
ROOT
ATOM      1  CA  LYS A 131      29.867  25.555  16.977  1.00 20.52     0.186 C 
ENDROOT
BRANCH   1   2
ATOM      2  CB  LYS A 131      28.345  25.722  17.026  1.00 20.94     0.034 C 
BRANCH   2   3
ATOM      3  CG  LYS A 131      27.602  24.399  16.923  1.00 22.96     0.005 C 
BRANCH   3   4
ATOM      4  CD  LYS A 131      26.155  24.531  17.309  1.00 24.33     0.041 C 
BRANCH   4   5
ATOM      5  CE  LYS A 131      25.855  23.608  18.486  1.00 26.91     0.338 C 
ATOM      6  NZ  LYS A 131      24.980  22.491  18.060  1.00 27.40     0.618 N 
ENDBRANCH   4   5
ENDBRANCH   3   4
ENDBRANCH   2   3
ENDBRANCH   1   2
END_RES LYS A 131
BEGIN_RES LYS A 135
REMARK  4 active torsions:
REMARK  status: ('A' for Active; 'I' for Inactive)
REMARK    5  A    between atoms: CA   and  CB  
REMARK    6  A    between atoms: CB   and  CG  
REMARK    7  A    between atoms: CG   and  CD  
REMARK    8  A    between atoms: CD   and  CE  
ROOT
ATOM      7  CA  LYS A 135      33.193  34.663   9.290  1.00 25.02     0.186 C 
ENDROOT
BRANCH   7   8
ATOM      8  CB  LYS A 135      32.060  35.360  10.034  1.00 26.63     0.034 C 
BRANCH   8   9
ATOM      9  CG  LYS A 135      30.720  34.696   9.849  1.00 29.45     0.005 C 
BRANCH   9  10
ATOM     10  CD  LYS A 135      30.405  34.525   8.371  1.00 32.00     0.041 C 
BRANCH  10  11
ATOM     11  CE  LYS A 135      29.382  35.551   7.922  1.00 34.25     0.338 C 
ATOM     12  NZ  LYS A 135      28.041  34.930   7.746  1.00 35.99     0.618 N 
ENDBRANCH  10  11
ENDBRANCH   9  10
ENDBRANCH   8   9
ENDBRANCH   7   8
END_RES LYS A 135
