REMARK VINA RESULT:    -5.097      3.852      7.196
REMARK INTER + INTRA:         -15.003
REMARK INTER:                  -8.658
REMARK INTRA:                  -6.346
REMARK UNBOUND:                -5.735
REMARK SMILES CC(=O)N[C@@H]1[C@@H](O)C[C@](O)(C(=O)O)O[C@H]1C(O)[C@H](O)CNC(=O)OCc1cn(-c2ccc(CO)cn2)nn1
REMARK SMILES IDX 21 1 22 2 23 3 20 5 18 6 16 7 15 8 9 9 8 10 14 11 6 12 5 13
REMARK SMILES IDX 10 14 11 16 12 17 13 18 7 20 4 22 2 23 1 25 3 26 17 27 19 29
REMARK SMILES IDX 24 31 25 32 26 33 27 34 38 35 28 36 37 37 29 38 30 39 36 40
REMARK SMILES IDX 31 41 35 42 32 43 33 44 34 45
REMARK H PARENT 21 4 10 15 13 19 7 21 4 24 17 28 19 30 34 46
REMARK Flexibility Score: inf
ROOT
ATOM      1  N   UNL     1      28.911  31.765  16.782  1.00  0.00    -0.319 N 
ATOM      2  C   UNL     1      28.182  30.836  15.967  1.00  0.00     0.407 C 
ATOM      3  O   UNL     1      28.830  29.864  15.517  1.00  0.00    -0.225 OA
ATOM      4  H   UNL     1      28.331  32.550  17.146  1.00  0.00     0.167 HD
ENDROOT
BRANCH   1   5
ATOM      5  C   UNL     1      30.308  31.570  17.063  1.00  0.00     0.154 C 
BRANCH   5   6
ATOM      6  C   UNL     1      31.133  32.558  16.254  1.00  0.00     0.165 C 
BRANCH   6   7
ATOM      7  C   UNL     1      30.290  33.794  16.124  1.00  0.00     0.176 C 
BRANCH   7   8
ATOM      8  C   UNL     1      30.840  34.913  15.288  1.00  0.00     0.178 C 
ATOM      9  C   UNL     1      31.179  35.184  12.969  1.00  0.00     0.269 C 
ATOM     10  C   UNL     1      32.513  35.859  13.170  1.00  0.00     0.112 C 
ATOM     11  O   UNL     1      30.823  34.405  14.015  1.00  0.00    -0.332 OA
ATOM     12  C   UNL     1      33.107  35.190  14.396  1.00  0.00     0.145 C 
ATOM     13  C   UNL     1      32.176  35.430  15.611  1.00  0.00     0.142 C 
BRANCH   9  14
ATOM     14  O   UNL     1      31.351  34.358  11.814  1.00  0.00    -0.357 OA
ATOM     15  H   UNL     1      30.787  33.549  11.908  1.00  0.00     0.214 HD
ENDBRANCH   9  14
BRANCH   9  16
ATOM     16  C   UNL     1      30.088  36.119  12.626  1.00  0.00     0.364 C 
ATOM     17  O   UNL     1      30.218  37.333  12.874  1.00  0.00    -0.246 OA
BRANCH  16  18
ATOM     18  O   UNL     1      28.924  35.672  12.032  1.00  0.00    -0.477 OA
ATOM     19  H   UNL     1      28.166  36.327  11.884  1.00  0.00     0.296 HD
ENDBRANCH  16  18
ENDBRANCH   9  16
BRANCH  12  20
ATOM     20  O   UNL     1      33.359  33.854  14.205  1.00  0.00    -0.391 OA
ATOM     21  H   UNL     1      32.617  33.315  14.603  1.00  0.00     0.211 HD
ENDBRANCH  12  20
BRANCH  13  22
ATOM     22  N   UNL     1      32.271  36.834  15.851  1.00  0.00    -0.348 N 
ATOM     23  C   UNL     1      32.136  37.388  17.134  1.00  0.00     0.217 C 
ATOM     24  H   UNL     1      32.441  37.466  15.050  1.00  0.00     0.163 HD
ATOM     25  C   UNL     1      32.236  38.846  17.384  1.00  0.00     0.114 C 
ATOM     26  O   UNL     1      31.925  36.633  18.104  1.00  0.00    -0.275 OA
ENDBRANCH  13  22
ENDBRANCH   7   8
BRANCH   7  27
ATOM     27  O   UNL     1      30.125  34.333  17.413  1.00  0.00    -0.388 OA
ATOM     28  H   UNL     1      30.320  35.309  17.429  1.00  0.00     0.211 HD
ENDBRANCH   7  27
ENDBRANCH   6   7
BRANCH   6  29
ATOM     29  O   UNL     1      31.235  31.923  14.986  1.00  0.00    -0.388 OA
ATOM     30  H   UNL     1      30.356  31.915  14.574  1.00  0.00     0.211 HD
ENDBRANCH   6  29
ENDBRANCH   5   6
ENDBRANCH   1   5
BRANCH   2  31
ATOM     31  O   UNL     1      26.852  30.973  15.680  1.00  0.00    -0.443 OA
BRANCH  31  32
ATOM     32  C   UNL     1      26.090  32.102  15.984  1.00  0.00     0.294 C 
BRANCH  32  33
ATOM     33  C   UNL     1      26.242  33.207  15.004  1.00  0.00     0.121 A 
ATOM     34  C   UNL     1      25.388  33.412  13.917  1.00  0.00     0.146 A 
ATOM     35  N   UNL     1      27.136  34.183  14.913  1.00  0.00    -0.131 NA
ATOM     36  N   UNL     1      25.802  34.480  13.237  1.00  0.00    -0.202 N 
ATOM     37  N   UNL     1      26.866  34.942  13.849  1.00  0.00    -0.061 NA
BRANCH  36  38
ATOM     38  C   UNL     1      25.197  35.013  12.049  1.00  0.00     0.155 A 
ATOM     39  C   UNL     1      23.836  34.985  11.824  1.00  0.00     0.049 A 
ATOM     40  N   UNL     1      25.967  35.558  11.095  1.00  0.00    -0.237 NA
ATOM     41  C   UNL     1      23.253  35.481  10.688  1.00  0.00     0.011 A 
ATOM     42  C   UNL     1      25.442  36.058   9.966  1.00  0.00     0.119 A 
ATOM     43  C   UNL     1      24.072  36.037   9.724  1.00  0.00    -0.004 A 
BRANCH  43  44
ATOM     44  C   UNL     1      23.542  36.607   8.452  1.00  0.00     0.193 C 
BRANCH  44  45
ATOM     45  O   UNL     1      23.012  37.865   8.709  1.00  0.00    -0.392 OA
ATOM     46  H   UNL     1      23.309  38.180   9.601  1.00  0.00     0.211 HD
ENDBRANCH  44  45
ENDBRANCH  43  44
ENDBRANCH  36  38
ENDBRANCH  32  33
ENDBRANCH  31  32
ENDBRANCH   2  31
TORSDOF 17
BEGIN_RES LYS A 131
REMARK  4 active torsions:
REMARK  status: ('A' for Active; 'I' for Inactive)
REMARK    1  A    between atoms: CA   and  CB  
REMARK    2  A    between atoms: CB   and  CG  
REMARK    3  A    between atoms: CG   and  CD  
REMARK    4  A    between atoms: CD   and  CE  
ROOT
ATOM      1  CA  LYS A 131      29.867  25.555  16.977  1.00 20.52     0.186 C 
ENDROOT
BRANCH   1   2
ATOM      2  CB  LYS A 131      28.345  25.722  17.026  1.00 20.94     0.034 C 
BRANCH   2   3
ATOM      3  CG  LYS A 131      27.599  24.441  16.686  1.00 22.96     0.005 C 
BRANCH   3   4
ATOM      4  CD  LYS A 131      27.199  23.675  17.916  1.00 24.33     0.041 C 
BRANCH   4   5
ATOM      5  CE  LYS A 131      25.679  23.681  18.048  1.00 26.91     0.338 C 
ATOM      6  NZ  LYS A 131      25.065  24.444  16.935  1.00 27.40     0.618 N 
ENDBRANCH   4   5
ENDBRANCH   3   4
ENDBRANCH   2   3
ENDBRANCH   1   2
END_RES LYS A 131
BEGIN_RES LYS A 135
REMARK  4 active torsions:
REMARK  status: ('A' for Active; 'I' for Inactive)
REMARK    5  A    between atoms: CA   and  CB  
REMARK    6  A    between atoms: CB   and  CG  
REMARK    7  A    between atoms: CG   and  CD  
REMARK    8  A    between atoms: CD   and  CE  
ROOT
ATOM      7  CA  LYS A 135      33.193  34.663   9.290  1.00 25.02     0.186 C 
ENDROOT
BRANCH   7   8
ATOM      8  CB  LYS A 135      32.060  35.360  10.034  1.00 26.63     0.034 C 
BRANCH   8   9
ATOM      9  CG  LYS A 135      30.906  35.748   9.147  1.00 29.45     0.005 C 
BRANCH   9  10
ATOM     10  CD  LYS A 135      30.247  34.513   8.552  1.00 32.00     0.041 C 
BRANCH  10  11
ATOM     11  CE  LYS A 135      28.899  34.865   7.953  1.00 34.25     0.338 C 
ATOM     12  NZ  LYS A 135      28.646  36.331   8.025  1.00 35.99     0.618 N 
ENDBRANCH  10  11
ENDBRANCH   9  10
ENDBRANCH   8   9
ENDBRANCH   7   8
END_RES LYS A 135
