REMARK VINA RESULT:    -5.687      4.856     12.666
REMARK INTER + INTRA:         -14.667
REMARK INTER:                 -10.511
REMARK INTRA:                  -4.156
REMARK UNBOUND:                -3.993
REMARK SMILES CC(=O)N[C@@H]1[C@@H](O)C[C@](O)(C(=O)O)O[C@H]1C(O)[C@H](O)CNC(=O)OCc1cn(Cc2ccc(C(=O)O)cc2)nn1
REMARK SMILES IDX 21 1 22 2 23 3 20 5 18 6 16 7 15 8 9 9 8 10 14 11 6 12 5 13
REMARK SMILES IDX 10 14 11 16 12 17 13 18 7 20 4 22 2 23 1 25 3 26 17 27 19 29
REMARK SMILES IDX 24 31 25 32 26 33 27 34 40 35 28 36 39 37 29 38 30 39 31 40
REMARK SMILES IDX 38 41 32 42 37 43 33 44 34 45 35 46 36 47
REMARK H PARENT 21 4 10 15 13 19 7 21 4 24 17 28 19 30 36 48
REMARK Flexibility Score: inf
ROOT
ATOM      1  N   UNL     1      27.063  35.429   8.685  1.00  0.00    -0.319 N 
ATOM      2  C   UNL     1      27.427  34.530   9.702  1.00  0.00     0.407 C 
ATOM      3  O   UNL     1      28.080  33.511   9.424  1.00  0.00    -0.225 OA
ATOM      4  H   UNL     1      26.501  36.275   9.007  1.00  0.00     0.167 HD
ENDROOT
BRANCH   1   5
ATOM      5  C   UNL     1      27.408  35.256   7.299  1.00  0.00     0.154 C 
BRANCH   5   6
ATOM      6  C   UNL     1      27.614  36.603   6.660  1.00  0.00     0.165 C 
BRANCH   6   7
ATOM      7  C   UNL     1      26.966  37.733   7.394  1.00  0.00     0.176 C 
BRANCH   7   8
ATOM      8  C   UNL     1      27.674  39.060   7.064  1.00  0.00     0.178 C 
ATOM      9  C   UNL     1      29.708  39.795   6.248  1.00  0.00     0.269 C 
ATOM     10  C   UNL     1      30.165  40.366   7.582  1.00  0.00     0.112 C 
ATOM     11  O   UNL     1      28.899  38.722   6.531  1.00  0.00    -0.332 OA
ATOM     12  C   UNL     1      28.985  40.756   8.411  1.00  0.00     0.145 C 
ATOM     13  C   UNL     1      27.847  39.775   8.356  1.00  0.00     0.142 C 
BRANCH   9  14
ATOM     14  O   UNL     1      30.904  39.275   5.672  1.00  0.00    -0.357 OA
ATOM     15  H   UNL     1      30.941  39.591   4.716  1.00  0.00     0.214 HD
ENDBRANCH   9  14
BRANCH   9  16
ATOM     16  C   UNL     1      29.143  40.826   5.373  1.00  0.00     0.364 C 
ATOM     17  O   UNL     1      28.457  40.464   4.357  1.00  0.00    -0.246 OA
BRANCH  16  18
ATOM     18  O   UNL     1      29.270  42.193   5.521  1.00  0.00    -0.477 OA
ATOM     19  H   UNL     1      30.188  42.548   5.751  1.00  0.00     0.296 HD
ENDBRANCH  16  18
ENDBRANCH   9  16
BRANCH  12  20
ATOM     20  O   UNL     1      29.428  40.794   9.755  1.00  0.00    -0.391 OA
ATOM     21  H   UNL     1      28.786  40.241  10.264  1.00  0.00     0.211 HD
ENDBRANCH  12  20
BRANCH  13  22
ATOM     22  N   UNL     1      26.637  40.417   8.824  1.00  0.00    -0.348 N 
ATOM     23  C   UNL     1      26.142  40.223  10.138  1.00  0.00     0.217 C 
ATOM     24  H   UNL     1      26.089  41.049   8.202  1.00  0.00     0.163 HD
ATOM     25  C   UNL     1      24.880  40.902  10.605  1.00  0.00     0.114 C 
ATOM     26  O   UNL     1      26.772  39.475  10.910  1.00  0.00    -0.275 OA
ENDBRANCH  13  22
ENDBRANCH   7   8
BRANCH   7  27
ATOM     27  O   UNL     1      25.606  37.830   7.225  1.00  0.00    -0.388 OA
ATOM     28  H   UNL     1      25.352  37.494   6.327  1.00  0.00     0.211 HD
ENDBRANCH   7  27
ENDBRANCH   6   7
BRANCH   6  29
ATOM     29  O   UNL     1      27.216  36.620   5.316  1.00  0.00    -0.388 OA
ATOM     30  H   UNL     1      27.737  35.930   4.815  1.00  0.00     0.211 HD
ENDBRANCH   6  29
ENDBRANCH   5   6
ENDBRANCH   1   5
BRANCH   2  31
ATOM     31  O   UNL     1      27.093  34.713  11.038  1.00  0.00    -0.443 OA
BRANCH  31  32
ATOM     32  C   UNL     1      27.220  35.938  11.719  1.00  0.00     0.294 C 
BRANCH  32  33
ATOM     33  C   UNL     1      28.292  35.841  12.731  1.00  0.00     0.120 A 
ATOM     34  C   UNL     1      29.418  35.021  12.640  1.00  0.00     0.138 A 
ATOM     35  N   UNL     1      28.432  36.474  13.912  1.00  0.00    -0.132 NA
ATOM     36  N   UNL     1      30.166  35.190  13.738  1.00  0.00    -0.248 N 
ATOM     37  N   UNL     1      29.550  36.071  14.489  1.00  0.00    -0.067 NA
BRANCH  36  38
ATOM     38  C   UNL     1      31.431  34.508  14.046  1.00  0.00     0.181 C 
BRANCH  38  39
ATOM     39  C   UNL     1      31.137  33.646  15.236  1.00  0.00    -0.026 A 
ATOM     40  C   UNL     1      30.538  32.431  15.053  1.00  0.00     0.006 A 
ATOM     41  C   UNL     1      31.449  34.047  16.511  1.00  0.00     0.006 A 
ATOM     42  C   UNL     1      30.246  31.606  16.143  1.00  0.00     0.016 A 
ATOM     43  C   UNL     1      31.158  33.227  17.596  1.00  0.00     0.016 A 
ATOM     44  C   UNL     1      30.554  31.998  17.424  1.00  0.00     0.059 A 
BRANCH  44  45
ATOM     45  C   UNL     1      30.257  31.146  18.567  1.00  0.00     0.335 C 
ATOM     46  O   UNL     1      30.792  31.297  19.687  1.00  0.00    -0.246 OA
BRANCH  45  47
ATOM     47  O   UNL     1      29.338  30.113  18.424  1.00  0.00    -0.478 OA
ATOM     48  H   UNL     1      29.471  29.227  18.880  1.00  0.00     0.297 HD
ENDBRANCH  45  47
ENDBRANCH  44  45
ENDBRANCH  38  39
ENDBRANCH  36  38
ENDBRANCH  32  33
ENDBRANCH  31  32
ENDBRANCH   2  31
TORSDOF 18
BEGIN_RES LYS A 131
REMARK  4 active torsions:
REMARK  status: ('A' for Active; 'I' for Inactive)
REMARK    1  A    between atoms: CA   and  CB  
REMARK    2  A    between atoms: CB   and  CG  
REMARK    3  A    between atoms: CG   and  CD  
REMARK    4  A    between atoms: CD   and  CE  
ROOT
ATOM      1  CA  LYS A 131      29.867  25.555  16.977  1.00 20.52     0.186 C 
ENDROOT
BRANCH   1   2
ATOM      2  CB  LYS A 131      28.345  25.722  17.026  1.00 20.94     0.034 C 
BRANCH   2   3
ATOM      3  CG  LYS A 131      27.602  24.397  16.943  1.00 22.96     0.005 C 
BRANCH   3   4
ATOM      4  CD  LYS A 131      26.157  24.533  17.334  1.00 24.33     0.041 C 
BRANCH   4   5
ATOM      5  CE  LYS A 131      25.776  23.397  18.278  1.00 26.91     0.338 C 
ATOM      6  NZ  LYS A 131      25.148  22.286  17.526  1.00 27.40     0.618 N 
ENDBRANCH   4   5
ENDBRANCH   3   4
ENDBRANCH   2   3
ENDBRANCH   1   2
END_RES LYS A 131
BEGIN_RES LYS A 135
REMARK  4 active torsions:
REMARK  status: ('A' for Active; 'I' for Inactive)
REMARK    5  A    between atoms: CA   and  CB  
REMARK    6  A    between atoms: CB   and  CG  
REMARK    7  A    between atoms: CG   and  CD  
REMARK    8  A    between atoms: CD   and  CE  
ROOT
ATOM      7  CA  LYS A 135      33.193  34.663   9.290  1.00 25.02     0.186 C 
ENDROOT
BRANCH   7   8
ATOM      8  CB  LYS A 135      32.060  35.360  10.034  1.00 26.63     0.034 C 
BRANCH   8   9
ATOM      9  CG  LYS A 135      30.852  35.631   9.175  1.00 29.45     0.005 C 
BRANCH   9  10
ATOM     10  CD  LYS A 135      30.309  37.027   9.438  1.00 32.00     0.041 C 
BRANCH  10  11
ATOM     11  CE  LYS A 135      31.310  37.848  10.228  1.00 34.25     0.338 C 
ATOM     12  NZ  LYS A 135      30.764  38.218  11.563  1.00 35.99     0.618 N 
ENDBRANCH  10  11
ENDBRANCH   9  10
ENDBRANCH   8   9
ENDBRANCH   7   8
END_RES LYS A 135
