REMARK VINA RESULT:    -4.732      8.866     14.287
REMARK INTER + INTRA:         -13.693
REMARK INTER:                  -7.018
REMARK INTRA:                  -6.675
REMARK UNBOUND:                -5.226
REMARK SMILES COc1ccc(-n2cc(COC(=O)NC[C@@H](O)C(O)[C@@H]3O[C@@](O)(C(=O)O)C[C@H](O)[C@H]3NC(C)=O)nn2)cc1
REMARK SMILES IDX 14 1 12 2 13 3 15 5 16 6 18 7 20 8 22 9 27 10 21 11 28 12
REMARK SMILES IDX 30 13 23 14 24 16 25 17 26 18 29 20 31 22 32 23 33 25 34 26
REMARK SMILES IDX 19 27 17 29 11 31 10 32 9 33 8 34 35 35 7 36 36 37 6 38 5 39
REMARK SMILES IDX 37 40 4 41 38 42 3 43 2 44 1 45
REMARK H PARENT 14 4 23 15 26 19 29 21 31 24 19 28 17 30
REMARK Flexibility Score: inf
ROOT
ATOM      1  N   UNL     1      19.461  36.882   8.803  1.00  0.00    -0.319 N 
ATOM      2  C   UNL     1      18.843  35.647   8.507  1.00  0.00     0.407 C 
ATOM      3  O   UNL     1      19.327  34.839   7.701  1.00  0.00    -0.225 OA
ATOM      4  H   UNL     1      18.919  37.492   9.496  1.00  0.00     0.167 HD
ENDROOT
BRANCH   1   5
ATOM      5  C   UNL     1      20.673  37.404   8.316  1.00  0.00     0.154 C 
BRANCH   5   6
ATOM      6  C   UNL     1      21.912  37.206   9.064  1.00  0.00     0.165 C 
BRANCH   6   7
ATOM      7  C   UNL     1      22.667  35.983   8.911  1.00  0.00     0.176 C 
BRANCH   7   8
ATOM      8  C   UNL     1      24.045  35.939   9.606  1.00  0.00     0.178 C 
ATOM      9  C   UNL     1      24.557  35.987  11.908  1.00  0.00     0.269 C 
ATOM     10  C   UNL     1      24.901  37.483  11.827  1.00  0.00     0.112 C 
ATOM     11  O   UNL     1      23.687  35.732  10.927  1.00  0.00    -0.332 OA
ATOM     12  C   UNL     1      25.635  37.663  10.555  1.00  0.00     0.145 C 
ATOM     13  C   UNL     1      24.907  37.081   9.330  1.00  0.00     0.142 C 
BRANCH   9  14
ATOM     14  O   UNL     1      23.807  35.901  13.113  1.00  0.00    -0.357 OA
ATOM     15  H   UNL     1      23.715  34.962  13.406  1.00  0.00     0.214 HD
ENDBRANCH   9  14
BRANCH   9  16
ATOM     16  C   UNL     1      25.716  35.127  12.047  1.00  0.00     0.364 C 
ATOM     17  O   UNL     1      25.658  33.922  11.695  1.00  0.00    -0.246 OA
BRANCH  16  18
ATOM     18  O   UNL     1      26.956  35.513  12.556  1.00  0.00    -0.477 OA
ATOM     19  H   UNL     1      27.052  36.014  13.443  1.00  0.00     0.296 HD
ENDBRANCH  16  18
ENDBRANCH   9  16
BRANCH  12  20
ATOM     20  O   UNL     1      25.909  39.005  10.246  1.00  0.00    -0.391 OA
ATOM     21  H   UNL     1      25.001  39.438  10.169  1.00  0.00     0.211 HD
ENDBRANCH  12  20
BRANCH  13  22
ATOM     22  N   UNL     1      25.984  36.896   8.406  1.00  0.00    -0.348 N 
ATOM     23  C   UNL     1      26.341  37.715   7.335  1.00  0.00     0.217 C 
ATOM     24  H   UNL     1      26.571  36.024   8.572  1.00  0.00     0.163 HD
ATOM     25  C   UNL     1      27.499  37.386   6.447  1.00  0.00     0.114 C 
ATOM     26  O   UNL     1      25.659  38.729   7.147  1.00  0.00    -0.275 OA
ENDBRANCH  13  22
ENDBRANCH   7   8
BRANCH   7  27
ATOM     27  O   UNL     1      21.896  34.889   9.290  1.00  0.00    -0.388 OA
ATOM     28  H   UNL     1      22.426  34.053   9.335  1.00  0.00     0.211 HD
ENDBRANCH   7  27
ENDBRANCH   6   7
BRANCH   6  29
ATOM     29  O   UNL     1      21.710  37.574  10.425  1.00  0.00    -0.388 OA
ATOM     30  H   UNL     1      20.744  37.524  10.648  1.00  0.00     0.211 HD
ENDBRANCH   6  29
ENDBRANCH   5   6
ENDBRANCH   1   5
BRANCH   2  31
ATOM     31  O   UNL     1      17.632  35.274   9.125  1.00  0.00    -0.443 OA
BRANCH  31  32
ATOM     32  C   UNL     1      17.518  35.338  10.525  1.00  0.00     0.294 C 
BRANCH  32  33
ATOM     33  C   UNL     1      18.797  34.961  11.146  1.00  0.00     0.121 A 
ATOM     34  C   UNL     1      19.190  33.635  11.364  1.00  0.00     0.144 A 
ATOM     35  N   UNL     1      19.803  35.697  11.611  1.00  0.00    -0.131 NA
ATOM     36  N   UNL     1      20.405  33.642  11.944  1.00  0.00    -0.220 N 
ATOM     37  N   UNL     1      20.744  34.922  12.077  1.00  0.00    -0.062 NA
BRANCH  36  38
ATOM     38  C   UNL     1      21.178  32.517  12.337  1.00  0.00     0.067 A 
ATOM     39  C   UNL     1      20.677  31.236  12.367  1.00  0.00     0.032 A 
ATOM     40  C   UNL     1      22.513  32.675  12.716  1.00  0.00     0.032 A 
ATOM     41  C   UNL     1      21.450  30.147  12.752  1.00  0.00     0.048 A 
ATOM     42  C   UNL     1      23.279  31.592  13.099  1.00  0.00     0.048 A 
ATOM     43  C   UNL     1      22.763  30.317  13.123  1.00  0.00     0.119 A 
BRANCH  43  44
ATOM     44  O   UNL     1      23.516  29.247  13.500  1.00  0.00    -0.497 OA
ATOM     45  C   UNL     1      23.295  28.635  14.753  1.00  0.00     0.278 C 
ENDBRANCH  43  44
ENDBRANCH  36  38
ENDBRANCH  32  33
ENDBRANCH  31  32
ENDBRANCH   2  31
TORSDOF 16
BEGIN_RES LYS A 131
REMARK  4 active torsions:
REMARK  status: ('A' for Active; 'I' for Inactive)
REMARK    1  A    between atoms: CA   and  CB  
REMARK    2  A    between atoms: CB   and  CG  
REMARK    3  A    between atoms: CG   and  CD  
REMARK    4  A    between atoms: CD   and  CE  
ROOT
ATOM      1  CA  LYS A 131      29.867  25.555  16.977  1.00 20.52     0.186 C 
ENDROOT
BRANCH   1   2
ATOM      2  CB  LYS A 131      28.345  25.722  17.026  1.00 20.94     0.034 C 
BRANCH   2   3
ATOM      3  CG  LYS A 131      27.601  24.404  16.878  1.00 22.96     0.005 C 
BRANCH   3   4
ATOM      4  CD  LYS A 131      26.151  24.526  17.258  1.00 24.33     0.041 C 
BRANCH   4   5
ATOM      5  CE  LYS A 131      26.037  24.754  18.762  1.00 26.91     0.338 C 
ATOM      6  NZ  LYS A 131      25.516  23.540  19.433  1.00 27.40     0.618 N 
ENDBRANCH   4   5
ENDBRANCH   3   4
ENDBRANCH   2   3
ENDBRANCH   1   2
END_RES LYS A 131
BEGIN_RES LYS A 135
REMARK  4 active torsions:
REMARK  status: ('A' for Active; 'I' for Inactive)
REMARK    5  A    between atoms: CA   and  CB  
REMARK    6  A    between atoms: CB   and  CG  
REMARK    7  A    between atoms: CG   and  CD  
REMARK    8  A    between atoms: CD   and  CE  
ROOT
ATOM      7  CA  LYS A 135      33.193  34.663   9.290  1.00 25.02     0.186 C 
ENDROOT
BRANCH   7   8
ATOM      8  CB  LYS A 135      32.060  35.360  10.034  1.00 26.63     0.034 C 
BRANCH   8   9
ATOM      9  CG  LYS A 135      30.720  34.695   9.851  1.00 29.45     0.005 C 
BRANCH   9  10
ATOM     10  CD  LYS A 135      30.291  34.746   8.393  1.00 32.00     0.041 C 
BRANCH  10  11
ATOM     11  CE  LYS A 135      28.802  34.484   8.266  1.00 34.25     0.338 C 
ATOM     12  NZ  LYS A 135      28.263  33.846   9.499  1.00 35.99     0.618 N 
ENDBRANCH  10  11
ENDBRANCH   9  10
ENDBRANCH   8   9
ENDBRANCH   7   8
END_RES LYS A 135
