REMARK VINA RESULT:    -5.362      0.000      0.000
REMARK INTER + INTRA:         -15.714
REMARK INTER:                  -9.637
REMARK INTRA:                  -6.078
REMARK UNBOUND:                -5.964
REMARK SMILES CC(=O)N[C@@H]1[C@@H](O)C[C@](O)(C(=O)O)O[C@H]1C(O)[C@H](O)CNC(=O)OCc1cn(-c2ccc(S(N)(=O)=O)cc2)nn1
REMARK SMILES IDX 21 1 22 2 23 3 20 5 18 6 16 7 15 8 9 9 8 10 14 11 6 12 5 13
REMARK SMILES IDX 10 14 11 16 12 17 13 18 7 20 4 22 2 23 1 25 3 26 17 27 19 29
REMARK SMILES IDX 24 31 25 32 26 33 27 34 40 35 28 36 39 37 29 38 30 39 38 40
REMARK SMILES IDX 31 41 37 42 32 43 33 44 35 45 36 46 34 47
REMARK H PARENT 21 4 10 15 13 19 7 21 4 24 17 28 19 30 34 48 34 49
REMARK Flexibility Score: inf
ROOT
ATOM      1  N   UNL     1      29.122  27.813  19.786  1.00  0.00    -0.319 N 
ATOM      2  C   UNL     1      27.806  27.406  19.527  1.00  0.00     0.407 C 
ATOM      3  O   UNL     1      27.183  26.705  20.342  1.00  0.00    -0.225 OA
ATOM      4  H   UNL     1      29.595  28.411  19.054  1.00  0.00     0.167 HD
ENDROOT
BRANCH   1   5
ATOM      5  C   UNL     1      29.812  27.453  20.974  1.00  0.00     0.154 C 
BRANCH   5   6
ATOM      6  C   UNL     1      31.301  27.776  20.924  1.00  0.00     0.165 C 
BRANCH   6   7
ATOM      7  C   UNL     1      31.459  29.259  20.749  1.00  0.00     0.176 C 
BRANCH   7   8
ATOM      8  C   UNL     1      32.647  29.839  21.415  1.00  0.00     0.178 C 
ATOM      9  C   UNL     1      33.949  29.505  23.318  1.00  0.00     0.269 C 
ATOM     10  C   UNL     1      34.821  30.459  22.540  1.00  0.00     0.112 C 
ATOM     11  O   UNL     1      32.779  29.203  22.678  1.00  0.00    -0.332 OA
ATOM     12  C   UNL     1      34.086  31.668  22.052  1.00  0.00     0.145 C 
ATOM     13  C   UNL     1      32.668  31.294  21.698  1.00  0.00     0.142 C 
BRANCH   9  14
ATOM     14  O   UNL     1      33.727  29.978  24.634  1.00  0.00    -0.357 OA
ATOM     15  H   UNL     1      34.084  29.339  25.301  1.00  0.00     0.214 HD
ENDBRANCH   9  14
BRANCH   9  16
ATOM     16  C   UNL     1      34.722  28.244  23.478  1.00  0.00     0.364 C 
ATOM     17  O   UNL     1      34.105  27.154  23.365  1.00  0.00    -0.246 OA
BRANCH  16  18
ATOM     18  O   UNL     1      36.077  28.194  23.744  1.00  0.00    -0.477 OA
ATOM     19  H   UNL     1      36.423  28.189  24.700  1.00  0.00     0.296 HD
ENDBRANCH  16  18
ENDBRANCH   9  16
BRANCH  12  20
ATOM     20  O   UNL     1      34.159  32.650  23.031  1.00  0.00    -0.391 OA
ATOM     21  H   UNL     1      33.952  32.204  23.891  1.00  0.00     0.211 HD
ENDBRANCH  12  20
BRANCH  13  22
ATOM     22  N   UNL     1      32.060  32.169  20.769  1.00  0.00    -0.348 N 
ATOM     23  C   UNL     1      31.344  33.322  21.163  1.00  0.00     0.217 C 
ATOM     24  H   UNL     1      32.144  31.991  19.748  1.00  0.00     0.163 HD
ATOM     25  C   UNL     1      30.703  34.242  20.161  1.00  0.00     0.114 C 
ATOM     26  O   UNL     1      31.254  33.562  22.380  1.00  0.00    -0.275 OA
ENDBRANCH  13  22
ENDBRANCH   7   8
BRANCH   7  27
ATOM     27  O   UNL     1      31.113  29.757  19.521  1.00  0.00    -0.388 OA
ATOM     28  H   UNL     1      31.922  30.078  19.063  1.00  0.00     0.211 HD
ENDBRANCH   7  27
ENDBRANCH   6   7
BRANCH   6  29
ATOM     29  O   UNL     1      31.892  26.997  19.965  1.00  0.00    -0.388 OA
ATOM     30  H   UNL     1      32.623  26.451  20.365  1.00  0.00     0.211 HD
ENDBRANCH   6  29
ENDBRANCH   5   6
ENDBRANCH   1   5
BRANCH   2  31
ATOM     31  O   UNL     1      27.127  27.759  18.351  1.00  0.00    -0.443 OA
BRANCH  31  32
ATOM     32  C   UNL     1      26.542  29.015  18.208  1.00  0.00     0.294 C 
BRANCH  32  33
ATOM     33  C   UNL     1      27.550  30.086  18.047  1.00  0.00     0.121 A 
ATOM     34  C   UNL     1      28.062  30.658  16.907  1.00  0.00     0.144 A 
ATOM     35  N   UNL     1      28.168  30.718  19.078  1.00  0.00    -0.131 NA
ATOM     36  N   UNL     1      28.958  31.602  17.244  1.00  0.00    -0.220 N 
ATOM     37  N   UNL     1      28.996  31.609  18.561  1.00  0.00    -0.062 NA
BRANCH  36  38
ATOM     38  C   UNL     1      29.730  32.442  16.392  1.00  0.00     0.066 A 
ATOM     39  C   UNL     1      31.091  32.586  16.554  1.00  0.00     0.030 A 
ATOM     40  C   UNL     1      29.142  33.153  15.362  1.00  0.00     0.030 A 
ATOM     41  C   UNL     1      31.851  33.395  15.739  1.00  0.00     0.024 A 
ATOM     42  C   UNL     1      29.899  33.964  14.544  1.00  0.00     0.024 A 
ATOM     43  C   UNL     1      31.261  34.117  14.696  1.00  0.00     0.082 A 
BRANCH  43  44
ATOM     44  S   UNL     1      32.231  35.144  13.664  1.00  0.00     0.238 S 
ATOM     45  O   UNL     1      31.459  35.350  12.391  1.00  0.00    -0.207 OA
ATOM     46  O   UNL     1      32.357  36.500  14.319  1.00  0.00    -0.207 OA
BRANCH  44  47
ATOM     47  N   UNL     1      33.774  34.482  13.329  1.00  0.00    -0.225 NA
ATOM     48  H   UNL     1      34.048  34.492  12.340  1.00  0.00     0.137 HD
ATOM     49  H   UNL     1      34.516  34.870  13.953  1.00  0.00     0.137 HD
ENDBRANCH  44  47
ENDBRANCH  43  44
ENDBRANCH  36  38
ENDBRANCH  32  33
ENDBRANCH  31  32
ENDBRANCH   2  31
TORSDOF 17
BEGIN_RES LYS A 131
REMARK  4 active torsions:
REMARK  status: ('A' for Active; 'I' for Inactive)
REMARK    1  A    between atoms: CA   and  CB  
REMARK    2  A    between atoms: CB   and  CG  
REMARK    3  A    between atoms: CG   and  CD  
REMARK    4  A    between atoms: CD   and  CE  
ROOT
ATOM      1  CA  LYS A 131      29.867  25.555  16.977  1.00 20.52     0.186 C 
ENDROOT
BRANCH   1   2
ATOM      2  CB  LYS A 131      28.345  25.722  17.026  1.00 20.94     0.034 C 
BRANCH   2   3
ATOM      3  CG  LYS A 131      27.600  24.409  16.841  1.00 22.96     0.005 C 
BRANCH   3   4
ATOM      4  CD  LYS A 131      26.667  24.121  17.983  1.00 24.33     0.041 C 
BRANCH   4   5
ATOM      5  CE  LYS A 131      25.761  22.949  17.618  1.00 26.91     0.338 C 
ATOM      6  NZ  LYS A 131      24.704  22.772  18.641  1.00 27.40     0.618 N 
ENDBRANCH   4   5
ENDBRANCH   3   4
ENDBRANCH   2   3
ENDBRANCH   1   2
END_RES LYS A 131
BEGIN_RES LYS A 135
REMARK  4 active torsions:
REMARK  status: ('A' for Active; 'I' for Inactive)
REMARK    5  A    between atoms: CA   and  CB  
REMARK    6  A    between atoms: CB   and  CG  
REMARK    7  A    between atoms: CG   and  CD  
REMARK    8  A    between atoms: CD   and  CE  
ROOT
ATOM      7  CA  LYS A 135      33.193  34.663   9.290  1.00 25.02     0.186 C 
ENDROOT
BRANCH   7   8
ATOM      8  CB  LYS A 135      32.060  35.360  10.034  1.00 26.63     0.034 C 
BRANCH   8   9
ATOM      9  CG  LYS A 135      30.876  35.686   9.160  1.00 29.45     0.005 C 
BRANCH   9  10
ATOM     10  CD  LYS A 135      30.352  34.432   8.477  1.00 32.00     0.041 C 
BRANCH  10  11
ATOM     11  CE  LYS A 135      28.837  34.451   8.419  1.00 34.25     0.338 C 
ATOM     12  NZ  LYS A 135      28.245  33.791   9.615  1.00 35.99     0.618 N 
ENDBRANCH  10  11
ENDBRANCH   9  10
ENDBRANCH   8   9
ENDBRANCH   7   8
END_RES LYS A 135
