REMARK VINA RESULT:    -5.041      2.502      4.537
REMARK INTER + INTRA:         -14.727
REMARK INTER:                  -9.528
REMARK INTRA:                  -5.199
REMARK UNBOUND:                -5.118
REMARK SMILES COc1ccc(Cn2cc(COC(=O)NC[C@@H](O)C(O)[C@@H]3O[C@@](O)(C(=O)O)C[C@H](O)[C@H]3NC(C)=O)nn2)cc1OC
REMARK SMILES IDX 15 1 13 2 14 3 16 5 17 6 19 7 21 8 23 9 28 10 22 11 29 12
REMARK SMILES IDX 31 13 24 14 25 16 26 17 27 18 30 20 32 22 33 23 34 25 35 26
REMARK SMILES IDX 20 27 18 29 12 31 11 32 10 33 9 34 36 35 8 36 37 37 7 38
REMARK SMILES IDX 6 39 38 40 5 41 39 42 4 43 3 44 40 45 41 46 2 47 1 48
REMARK H PARENT 15 4 24 15 27 19 30 21 32 24 20 28 18 30
REMARK Flexibility Score: inf
ROOT
ATOM      1  N   UNL     1      30.747  32.319  14.987  1.00  0.00    -0.319 N 
ATOM      2  C   UNL     1      31.694  33.237  15.460  1.00  0.00     0.407 C 
ATOM      3  O   UNL     1      31.703  33.607  16.655  1.00  0.00    -0.225 OA
ATOM      4  H   UNL     1      30.803  32.065  13.954  1.00  0.00     0.167 HD
ENDROOT
BRANCH   1   5
ATOM      5  C   UNL     1      29.705  31.686  15.776  1.00  0.00     0.154 C 
BRANCH   5   6
ATOM      6  C   UNL     1      28.577  32.624  16.015  1.00  0.00     0.165 C 
BRANCH   6   7
ATOM      7  C   UNL     1      27.297  31.960  16.461  1.00  0.00     0.176 C 
BRANCH   7   8
ATOM      8  C   UNL     1      27.397  30.486  16.670  1.00  0.00     0.178 C 
ATOM      9  C   UNL     1      25.224  29.661  16.480  1.00  0.00     0.269 C 
ATOM     10  C   UNL     1      25.429  28.501  17.445  1.00  0.00     0.112 C 
ATOM     11  O   UNL     1      26.421  29.879  15.854  1.00  0.00    -0.332 OA
ATOM     12  C   UNL     1      26.864  28.477  17.885  1.00  0.00     0.145 C 
ATOM     13  C   UNL     1      27.416  29.943  18.033  1.00  0.00     0.142 C 
BRANCH   9  14
ATOM     14  O   UNL     1      24.686  30.767  17.129  1.00  0.00    -0.357 OA
ATOM     15  H   UNL     1      25.027  30.868  18.056  1.00  0.00     0.214 HD
ENDBRANCH   9  14
BRANCH   9  16
ATOM     16  C   UNL     1      24.232  29.256  15.442  1.00  0.00     0.364 C 
ATOM     17  O   UNL     1      24.255  29.829  14.327  1.00  0.00    -0.246 OA
BRANCH  16  18
ATOM     18  O   UNL     1      23.281  28.270  15.659  1.00  0.00    -0.477 OA
ATOM     19  H   UNL     1      23.435  27.292  15.385  1.00  0.00     0.296 HD
ENDBRANCH  16  18
ENDBRANCH   9  16
BRANCH  12  20
ATOM     20  O   UNL     1      27.034  27.823  19.100  1.00  0.00    -0.391 OA
ATOM     21  H   UNL     1      26.259  27.949  19.688  1.00  0.00     0.211 HD
ENDBRANCH  12  20
BRANCH  13  22
ATOM     22  N   UNL     1      28.787  29.707  18.509  1.00  0.00    -0.348 N 
ATOM     23  C   UNL     1      29.492  30.589  19.361  1.00  0.00     0.217 C 
ATOM     24  H   UNL     1      29.310  28.830  18.215  1.00  0.00     0.163 HD
ATOM     25  C   UNL     1      30.879  30.326  19.822  1.00  0.00     0.114 C 
ATOM     26  O   UNL     1      28.937  31.646  19.753  1.00  0.00    -0.275 OA
ENDBRANCH  13  22
ENDBRANCH   7   8
BRANCH   7  27
ATOM     27  O   UNL     1      26.352  32.111  15.367  1.00  0.00    -0.388 OA
ATOM     28  H   UNL     1      25.451  32.004  15.755  1.00  0.00     0.211 HD
ENDBRANCH   7  27
ENDBRANCH   6   7
BRANCH   6  29
ATOM     29  O   UNL     1      28.417  33.629  15.098  1.00  0.00    -0.388 OA
ATOM     30  H   UNL     1      29.240  34.101  14.869  1.00  0.00     0.211 HD
ENDBRANCH   6  29
ENDBRANCH   5   6
ENDBRANCH   1   5
BRANCH   2  31
ATOM     31  O   UNL     1      32.673  33.779  14.599  1.00  0.00    -0.443 OA
BRANCH  31  32
ATOM     32  C   UNL     1      32.474  35.120  14.126  1.00  0.00     0.294 C 
BRANCH  32  33
ATOM     33  C   UNL     1      31.132  35.299  13.576  1.00  0.00     0.120 A 
ATOM     34  C   UNL     1      30.304  36.375  13.772  1.00  0.00     0.138 A 
ATOM     35  N   UNL     1      30.489  34.437  12.773  1.00  0.00    -0.132 NA
ATOM     36  N   UNL     1      29.183  36.150  13.094  1.00  0.00    -0.248 N 
ATOM     37  N   UNL     1      29.311  34.982  12.500  1.00  0.00    -0.067 NA
BRANCH  36  38
ATOM     38  C   UNL     1      28.012  37.014  13.012  1.00  0.00     0.181 C 
BRANCH  38  39
ATOM     39  C   UNL     1      27.664  37.195  11.568  1.00  0.00    -0.023 A 
ATOM     40  C   UNL     1      26.484  36.640  11.076  1.00  0.00     0.056 A 
ATOM     41  C   UNL     1      28.463  37.901  10.694  1.00  0.00     0.010 A 
ATOM     42  C   UNL     1      26.124  36.789   9.759  1.00  0.00     0.161 A 
ATOM     43  C   UNL     1      28.129  38.069   9.365  1.00  0.00     0.051 A 
ATOM     44  C   UNL     1      26.956  37.506   8.919  1.00  0.00     0.160 A 
BRANCH  42  45
ATOM     45  O   UNL     1      24.949  36.240   9.254  1.00  0.00    -0.493 OA
ATOM     46  C   UNL     1      23.718  36.850   9.600  1.00  0.00     0.278 C 
ENDBRANCH  42  45
BRANCH  44  47
ATOM     47  O   UNL     1      26.584  37.652   7.591  1.00  0.00    -0.493 OA
ATOM     48  C   UNL     1      26.685  38.891   6.916  1.00  0.00     0.278 C 
ENDBRANCH  44  47
ENDBRANCH  38  39
ENDBRANCH  36  38
ENDBRANCH  32  33
ENDBRANCH  31  32
ENDBRANCH   2  31
TORSDOF 18
BEGIN_RES LYS A 131
REMARK  4 active torsions:
REMARK  status: ('A' for Active; 'I' for Inactive)
REMARK    1  A    between atoms: CA   and  CB  
REMARK    2  A    between atoms: CB   and  CG  
REMARK    3  A    between atoms: CG   and  CD  
REMARK    4  A    between atoms: CD   and  CE  
ROOT
ATOM      1  CA  LYS A 131      29.867  25.555  16.977  1.00 20.52     0.186 C 
ENDROOT
BRANCH   1   2
ATOM      2  CB  LYS A 131      28.345  25.722  17.026  1.00 20.94     0.034 C 
BRANCH   2   3
ATOM      3  CG  LYS A 131      27.602  24.399  16.925  1.00 22.96     0.005 C 
BRANCH   3   4
ATOM      4  CD  LYS A 131      26.517  24.278  17.959  1.00 24.33     0.041 C 
BRANCH   4   5
ATOM      5  CE  LYS A 131      25.190  24.734  17.361  1.00 26.91     0.338 C 
ATOM      6  NZ  LYS A 131      24.358  23.565  16.993  1.00 27.40     0.618 N 
ENDBRANCH   4   5
ENDBRANCH   3   4
ENDBRANCH   2   3
ENDBRANCH   1   2
END_RES LYS A 131
BEGIN_RES LYS A 135
REMARK  4 active torsions:
REMARK  status: ('A' for Active; 'I' for Inactive)
REMARK    5  A    between atoms: CA   and  CB  
REMARK    6  A    between atoms: CB   and  CG  
REMARK    7  A    between atoms: CG   and  CD  
REMARK    8  A    between atoms: CD   and  CE  
ROOT
ATOM      7  CA  LYS A 135      33.193  34.663   9.290  1.00 25.02     0.186 C 
ENDROOT
BRANCH   7   8
ATOM      8  CB  LYS A 135      32.060  35.360  10.034  1.00 26.63     0.034 C 
BRANCH   8   9
ATOM      9  CG  LYS A 135      30.799  35.496   9.220  1.00 29.45     0.005 C 
BRANCH   9  10
ATOM     10  CD  LYS A 135      30.127  34.143   9.041  1.00 32.00     0.041 C 
BRANCH  10  11
ATOM     11  CE  LYS A 135      28.674  34.319   8.645  1.00 34.25     0.338 C 
ATOM     12  NZ  LYS A 135      27.771  33.600   9.586  1.00 35.99     0.618 N 
ENDBRANCH  10  11
ENDBRANCH   9  10
ENDBRANCH   8   9
ENDBRANCH   7   8
END_RES LYS A 135
