REMARK VINA RESULT:    -5.332      2.027      2.842
REMARK INTER + INTRA:         -15.491
REMARK INTER:                  -8.236
REMARK INTRA:                  -7.255
REMARK UNBOUND:                -5.794
REMARK SMILES CC(=O)N[C@@H]1[C@@H](O)C[C@](O)(C(=O)O)O[C@H]1C(O)[C@H](O)CNC(=O)OCc1cn(Cc2cc(Br)cc(Br)c2O)nn1
REMARK SMILES IDX 21 1 22 2 23 3 20 5 18 6 16 7 15 8 9 9 8 10 14 11 6 12 5 13
REMARK SMILES IDX 10 14 11 16 12 17 13 18 7 20 4 22 2 23 1 25 3 26 17 27 19 29
REMARK SMILES IDX 24 31 25 32 26 33 27 34 40 35 28 36 39 37 29 38 30 39 31 40
REMARK SMILES IDX 37 41 32 42 35 43 33 44 34 45 36 46 38 47
REMARK H PARENT 21 4 10 15 13 19 7 21 4 24 17 28 19 30 38 48
REMARK Flexibility Score: inf
ROOT
ATOM      1  N   UNL     1      24.932  27.999  18.863  1.00  0.00    -0.319 N 
ATOM      2  C   UNL     1      24.055  29.096  18.628  1.00  0.00     0.407 C 
ATOM      3  O   UNL     1      23.339  29.512  19.567  1.00  0.00    -0.225 OA
ATOM      4  H   UNL     1      25.513  27.673  18.070  1.00  0.00     0.167 HD
ENDROOT
BRANCH   1   5
ATOM      5  C   UNL     1      25.019  27.352  20.144  1.00  0.00     0.154 C 
BRANCH   5   6
ATOM      6  C   UNL     1      26.397  27.489  20.726  1.00  0.00     0.165 C 
BRANCH   6   7
ATOM      7  C   UNL     1      27.330  28.253  19.813  1.00  0.00     0.176 C 
BRANCH   7   8
ATOM      8  C   UNL     1      28.505  28.810  20.637  1.00  0.00     0.178 C 
ATOM      9  C   UNL     1      30.185  27.501  21.638  1.00  0.00     0.269 C 
ATOM     10  C   UNL     1      30.232  28.593  22.717  1.00  0.00     0.112 C 
ATOM     11  O   UNL     1      29.506  27.928  20.547  1.00  0.00    -0.332 OA
ATOM     12  C   UNL     1      28.778  28.728  23.144  1.00  0.00     0.145 C 
ATOM     13  C   UNL     1      28.033  29.261  21.954  1.00  0.00     0.142 C 
BRANCH   9  14
ATOM     14  O   UNL     1      29.655  26.388  22.259  1.00  0.00    -0.357 OA
ATOM     15  H   UNL     1      30.071  26.180  23.131  1.00  0.00     0.214 HD
ENDBRANCH   9  14
BRANCH   9  16
ATOM     16  C   UNL     1      31.572  27.184  21.216  1.00  0.00     0.364 C 
ATOM     17  O   UNL     1      32.433  26.948  22.100  1.00  0.00    -0.246 OA
BRANCH  16  18
ATOM     18  O   UNL     1      31.952  27.140  19.878  1.00  0.00    -0.477 OA
ATOM     19  H   UNL     1      32.639  26.411  19.640  1.00  0.00     0.296 HD
ENDBRANCH  16  18
ENDBRANCH   9  16
BRANCH  12  20
ATOM     20  O   UNL     1      28.275  27.504  23.579  1.00  0.00    -0.391 OA
ATOM     21  H   UNL     1      28.932  27.116  24.194  1.00  0.00     0.211 HD
ENDBRANCH  12  20
BRANCH  13  22
ATOM     22  N   UNL     1      28.009  30.717  22.089  1.00  0.00    -0.348 N 
ATOM     23  C   UNL     1      26.849  31.499  21.862  1.00  0.00     0.217 C 
ATOM     24  H   UNL     1      28.878  31.251  22.369  1.00  0.00     0.163 HD
ATOM     25  C   UNL     1      26.870  32.986  22.012  1.00  0.00     0.114 C 
ATOM     26  O   UNL     1      25.777  30.935  21.526  1.00  0.00    -0.275 OA
ENDBRANCH  13  22
ENDBRANCH   7   8
BRANCH   7  27
ATOM     27  O   UNL     1      27.750  27.541  18.717  1.00  0.00    -0.388 OA
ATOM     28  H   UNL     1      27.243  26.713  18.586  1.00  0.00     0.211 HD
ENDBRANCH   7  27
ENDBRANCH   6   7
BRANCH   6  29
ATOM     29  O   UNL     1      26.875  26.258  21.118  1.00  0.00    -0.388 OA
ATOM     30  H   UNL     1      27.818  26.250  21.367  1.00  0.00     0.211 HD
ENDBRANCH   6  29
ENDBRANCH   5   6
ENDBRANCH   1   5
BRANCH   2  31
ATOM     31  O   UNL     1      23.992  29.693  17.393  1.00  0.00    -0.443 OA
BRANCH  31  32
ATOM     32  C   UNL     1      24.741  30.854  17.082  1.00  0.00     0.294 C 
BRANCH  32  33
ATOM     33  C   UNL     1      26.125  30.446  16.721  1.00  0.00     0.120 A 
ATOM     34  C   UNL     1      27.235  31.273  16.611  1.00  0.00     0.138 A 
ATOM     35  N   UNL     1      26.601  29.222  16.429  1.00  0.00    -0.132 NA
ATOM     36  N   UNL     1      28.304  30.538  16.268  1.00  0.00    -0.248 N 
ATOM     37  N   UNL     1      27.886  29.265  16.160  1.00  0.00    -0.067 NA
BRANCH  36  38
ATOM     38  C   UNL     1      29.651  30.985  16.050  1.00  0.00     0.185 C 
BRANCH  38  39
ATOM     39  C   UNL     1      30.121  31.941  17.086  1.00  0.00     0.018 A 
ATOM     40  C   UNL     1      30.213  33.276  16.746  1.00  0.00     0.025 A 
ATOM     41  C   UNL     1      30.468  31.563  18.361  1.00  0.00     0.134 A 
ATOM     42  C   UNL     1      30.637  34.247  17.626  1.00  0.00     0.019 A 
ATOM     43  C   UNL     1      30.903  32.529  19.274  1.00  0.00     0.061 A 
ATOM     44  Br  UNL     1      30.753  36.079  17.131  1.00  0.00    -0.051 Br
ATOM     45  C   UNL     1      30.986  33.851  18.910  1.00  0.00     0.035 A 
ATOM     46  Br  UNL     1      31.368  31.914  21.032  1.00  0.00    -0.047 Br
BRANCH  41  47
ATOM     47  O   UNL     1      30.386  30.234  18.733  1.00  0.00    -0.506 OA
ATOM     48  H   UNL     1      30.776  29.945  19.620  1.00  0.00     0.293 HD
ENDBRANCH  41  47
ENDBRANCH  38  39
ENDBRANCH  36  38
ENDBRANCH  32  33
ENDBRANCH  31  32
ENDBRANCH   2  31
TORSDOF 17
BEGIN_RES LYS A 131
REMARK  4 active torsions:
REMARK  status: ('A' for Active; 'I' for Inactive)
REMARK    1  A    between atoms: CA   and  CB  
REMARK    2  A    between atoms: CB   and  CG  
REMARK    3  A    between atoms: CG   and  CD  
REMARK    4  A    between atoms: CD   and  CE  
ROOT
ATOM      1  CA  LYS A 131      29.867  25.555  16.977  1.00 20.52     0.186 C 
ENDROOT
BRANCH   1   2
ATOM      2  CB  LYS A 131      28.345  25.722  17.026  1.00 20.94     0.034 C 
BRANCH   2   3
ATOM      3  CG  LYS A 131      27.599  24.476  16.574  1.00 22.96     0.005 C 
BRANCH   3   4
ATOM      4  CD  LYS A 131      27.146  23.635  17.735  1.00 24.33     0.041 C 
BRANCH   4   5
ATOM      5  CE  LYS A 131      25.907  24.262  18.366  1.00 26.91     0.338 C 
ATOM      6  NZ  LYS A 131      25.492  23.499  19.566  1.00 27.40     0.618 N 
ENDBRANCH   4   5
ENDBRANCH   3   4
ENDBRANCH   2   3
ENDBRANCH   1   2
END_RES LYS A 131
BEGIN_RES LYS A 135
REMARK  4 active torsions:
REMARK  status: ('A' for Active; 'I' for Inactive)
REMARK    5  A    between atoms: CA   and  CB  
REMARK    6  A    between atoms: CB   and  CG  
REMARK    7  A    between atoms: CG   and  CD  
REMARK    8  A    between atoms: CD   and  CE  
ROOT
ATOM      7  CA  LYS A 135      33.193  34.663   9.290  1.00 25.02     0.186 C 
ENDROOT
BRANCH   7   8
ATOM      8  CB  LYS A 135      32.060  35.360  10.034  1.00 26.63     0.034 C 
BRANCH   8   9
ATOM      9  CG  LYS A 135      30.780  35.441   9.243  1.00 29.45     0.005 C 
BRANCH   9  10
ATOM     10  CD  LYS A 135      30.184  34.056   9.043  1.00 32.00     0.041 C 
BRANCH  10  11
ATOM     11  CE  LYS A 135      28.669  34.127   9.017  1.00 34.25     0.338 C 
ATOM     12  NZ  LYS A 135      28.190  34.972   7.889  1.00 35.99     0.618 N 
ENDBRANCH  10  11
ENDBRANCH   9  10
ENDBRANCH   8   9
ENDBRANCH   7   8
END_RES LYS A 135
