REMARK VINA RESULT:    -4.057      3.559      8.091
REMARK INTER + INTRA:         -14.384
REMARK INTER:                  -7.817
REMARK INTRA:                  -6.566
REMARK UNBOUND:                -5.938
REMARK SMILES CCOC(CCn1cc(COC(=O)NC[C@@H](O)C(O)[C@@H]2O[C@@](O)(C(=O)O)C[C@H](O)[C@H]2NC(C)=O)nn1)OCC
REMARK SMILES IDX 11 1 12 2 14 3 13 5 15 6 16 7 18 8 20 9 22 10 27 11 21 12
REMARK SMILES IDX 28 13 30 14 23 15 24 17 25 18 26 19 29 21 31 23 32 24 33 26
REMARK SMILES IDX 34 27 19 28 17 30 10 32 9 33 8 34 35 35 7 36 36 37 6 38 5 39
REMARK SMILES IDX 4 40 3 41 2 42 1 43 37 44 38 45 39 46
REMARK H PARENT 14 4 23 16 26 20 29 22 31 25 19 29 17 31
REMARK Flexibility Score: inf
ROOT
ATOM      1  O   UNL     1      26.507  30.786  18.929  1.00  0.00    -0.443 OA
ENDROOT
BRANCH   1   2
ATOM      2  C   UNL     1      27.669  31.511  18.627  1.00  0.00     0.407 C 
ATOM      3  N   UNL     1      28.905  30.870  18.393  1.00  0.00    -0.319 N 
ATOM      4  H   UNL     1      28.881  29.803  18.450  1.00  0.00     0.167 HD
ATOM      5  O   UNL     1      27.578  32.739  18.573  1.00  0.00    -0.225 OA
BRANCH   3   6
ATOM      6  C   UNL     1      30.160  31.481  18.092  1.00  0.00     0.154 C 
BRANCH   6   7
ATOM      7  C   UNL     1      30.640  31.103  16.719  1.00  0.00     0.165 C 
BRANCH   7   8
ATOM      8  C   UNL     1      31.047  32.409  16.042  1.00  0.00     0.176 C 
BRANCH   8   9
ATOM      9  C   UNL     1      29.961  33.437  16.111  1.00  0.00     0.178 C 
ATOM     10  C   UNL     1      28.154  34.171  14.857  1.00  0.00     0.269 C 
ATOM     11  C   UNL     1      28.174  35.432  15.658  1.00  0.00     0.112 C 
ATOM     12  O   UNL     1      28.826  33.104  15.434  1.00  0.00    -0.332 OA
ATOM     13  C   UNL     1      29.519  35.813  16.204  1.00  0.00     0.145 C 
ATOM     14  C   UNL     1      30.519  34.795  15.699  1.00  0.00     0.142 C 
BRANCH  10  15
ATOM     15  O   UNL     1      28.588  34.412  13.551  1.00  0.00    -0.357 OA
ATOM     16  H   UNL     1      29.575  34.585  13.605  1.00  0.00     0.214 HD
ENDBRANCH  10  15
BRANCH  10  17
ATOM     17  C   UNL     1      26.726  33.750  14.767  1.00  0.00     0.364 C 
ATOM     18  O   UNL     1      26.077  33.892  13.709  1.00  0.00    -0.246 OA
BRANCH  17  19
ATOM     19  O   UNL     1      26.115  33.188  15.904  1.00  0.00    -0.477 OA
ATOM     20  H   UNL     1      26.629  33.300  16.776  1.00  0.00     0.296 HD
ENDBRANCH  17  19
ENDBRANCH  10  17
BRANCH  13  21
ATOM     21  O   UNL     1      29.888  37.118  15.903  1.00  0.00    -0.391 OA
ATOM     22  H   UNL     1      30.461  37.426  16.650  1.00  0.00     0.211 HD
ENDBRANCH  13  21
BRANCH  14  23
ATOM     23  N   UNL     1      31.815  34.944  16.328  1.00  0.00    -0.348 N 
ATOM     24  C   UNL     1      32.830  35.684  15.664  1.00  0.00     0.217 C 
ATOM     25  H   UNL     1      32.059  34.540  17.248  1.00  0.00     0.163 HD
ATOM     26  C   UNL     1      34.179  35.887  16.229  1.00  0.00     0.114 C 
ATOM     27  O   UNL     1      32.567  36.192  14.539  1.00  0.00    -0.275 OA
ENDBRANCH  14  23
ENDBRANCH   8   9
BRANCH   8  28
ATOM     28  O   UNL     1      31.427  32.128  14.739  1.00  0.00    -0.388 OA
ATOM     29  H   UNL     1      31.300  32.902  14.125  1.00  0.00     0.211 HD
ENDBRANCH   8  28
ENDBRANCH   7   8
BRANCH   7  30
ATOM     30  O   UNL     1      29.621  30.569  15.974  1.00  0.00    -0.388 OA
ATOM     31  H   UNL     1      28.747  31.010  16.132  1.00  0.00     0.211 HD
ENDBRANCH   7  30
ENDBRANCH   6   7
ENDBRANCH   3   6
ENDBRANCH   1   2
BRANCH   1  32
ATOM     32  C   UNL     1      26.211  29.580  18.230  1.00  0.00     0.294 C 
BRANCH  32  33
ATOM     33  C   UNL     1      25.695  29.908  16.889  1.00  0.00     0.120 A 
ATOM     34  C   UNL     1      24.325  29.963  16.613  1.00  0.00     0.138 A 
ATOM     35  N   UNL     1      26.290  30.200  15.741  1.00  0.00    -0.132 NA
ATOM     36  N   UNL     1      24.162  30.285  15.313  1.00  0.00    -0.252 N 
ATOM     37  N   UNL     1      25.354  30.422  14.809  1.00  0.00    -0.067 NA
BRANCH  36  38
ATOM     38  C   UNL     1      22.882  30.426  14.678  1.00  0.00     0.151 C 
BRANCH  38  39
ATOM     39  C   UNL     1      22.668  29.441  13.553  1.00  0.00     0.086 C 
BRANCH  39  40
ATOM     40  C   UNL     1      21.887  28.234  13.972  1.00  0.00     0.251 C 
BRANCH  40  41
ATOM     41  O   UNL     1      20.628  28.305  13.385  1.00  0.00    -0.353 OA
BRANCH  41  42
ATOM     42  C   UNL     1      20.704  28.970  12.156  1.00  0.00     0.160 C 
ATOM     43  C   UNL     1      19.352  29.457  11.704  1.00  0.00     0.035 C 
ENDBRANCH  41  42
ENDBRANCH  40  41
BRANCH  40  44
ATOM     44  O   UNL     1      21.741  28.139  15.331  1.00  0.00    -0.353 OA
BRANCH  44  45
ATOM     45  C   UNL     1      21.077  26.973  15.713  1.00  0.00     0.160 C 
ATOM     46  C   UNL     1      22.057  25.807  15.641  1.00  0.00     0.035 C 
ENDBRANCH  44  45
ENDBRANCH  40  44
ENDBRANCH  39  40
ENDBRANCH  38  39
ENDBRANCH  36  38
ENDBRANCH  32  33
ENDBRANCH   1  32
TORSDOF 21
BEGIN_RES LYS A 131
REMARK  4 active torsions:
REMARK  status: ('A' for Active; 'I' for Inactive)
REMARK    1  A    between atoms: CA   and  CB  
REMARK    2  A    between atoms: CB   and  CG  
REMARK    3  A    between atoms: CG   and  CD  
REMARK    4  A    between atoms: CD   and  CE  
ROOT
ATOM      1  CA  LYS A 131      29.867  25.555  16.977  1.00 20.52     0.186 C 
ENDROOT
BRANCH   1   2
ATOM      2  CB  LYS A 131      28.345  25.722  17.026  1.00 20.94     0.034 C 
BRANCH   2   3
ATOM      3  CG  LYS A 131      27.601  24.402  16.891  1.00 22.96     0.005 C 
BRANCH   3   4
ATOM      4  CD  LYS A 131      26.157  24.523  17.290  1.00 24.33     0.041 C 
BRANCH   4   5
ATOM      5  CE  LYS A 131      25.981  24.024  18.721  1.00 26.91     0.338 C 
ATOM      6  NZ  LYS A 131      25.124  22.815  18.747  1.00 27.40     0.618 N 
ENDBRANCH   4   5
ENDBRANCH   3   4
ENDBRANCH   2   3
ENDBRANCH   1   2
END_RES LYS A 131
BEGIN_RES LYS A 135
REMARK  4 active torsions:
REMARK  status: ('A' for Active; 'I' for Inactive)
REMARK    5  A    between atoms: CA   and  CB  
REMARK    6  A    between atoms: CB   and  CG  
REMARK    7  A    between atoms: CG   and  CD  
REMARK    8  A    between atoms: CD   and  CE  
ROOT
ATOM      7  CA  LYS A 135      33.193  34.663   9.290  1.00 25.02     0.186 C 
ENDROOT
BRANCH   7   8
ATOM      8  CB  LYS A 135      32.060  35.360  10.034  1.00 26.63     0.034 C 
BRANCH   8   9
ATOM      9  CG  LYS A 135      30.709  34.735   9.797  1.00 29.45     0.005 C 
BRANCH   9  10
ATOM     10  CD  LYS A 135      30.514  34.423   8.321  1.00 32.00     0.041 C 
BRANCH  10  11
ATOM     11  CE  LYS A 135      29.160  34.917   7.847  1.00 34.25     0.338 C 
ATOM     12  NZ  LYS A 135      28.061  34.336   8.667  1.00 35.99     0.618 N 
ENDBRANCH  10  11
ENDBRANCH   9  10
ENDBRANCH   8   9
ENDBRANCH   7   8
END_RES LYS A 135
