REMARK VINA RESULT:    -4.177      5.828     11.219
REMARK INTER + INTRA:         -14.632
REMARK INTER:                  -8.355
REMARK INTRA:                  -6.278
REMARK UNBOUND:                -5.938
REMARK SMILES CCOC(CCn1cc(COC(=O)NC[C@@H](O)C(O)[C@@H]2O[C@@](O)(C(=O)O)C[C@H](O)[C@H]2NC(C)=O)nn1)OCC
REMARK SMILES IDX 11 1 12 2 14 3 13 5 15 6 16 7 18 8 20 9 22 10 27 11 21 12
REMARK SMILES IDX 28 13 30 14 23 15 24 17 25 18 26 19 29 21 31 23 32 24 33 26
REMARK SMILES IDX 34 27 19 28 17 30 10 32 9 33 8 34 35 35 7 36 36 37 6 38 5 39
REMARK SMILES IDX 4 40 3 41 2 42 1 43 37 44 38 45 39 46
REMARK H PARENT 14 4 23 16 26 20 29 22 31 25 19 29 17 31
REMARK Flexibility Score: inf
ROOT
ATOM      1  O   UNL     1      29.705  40.043   7.721  1.00  0.00    -0.443 OA
ENDROOT
BRANCH   1   2
ATOM      2  C   UNL     1      30.068  40.680   8.917  1.00  0.00     0.407 C 
ATOM      3  N   UNL     1      29.878  40.067  10.173  1.00  0.00    -0.319 N 
ATOM      4  H   UNL     1      29.454  39.085  10.140  1.00  0.00     0.167 HD
ATOM      5  O   UNL     1      30.562  41.807   8.836  1.00  0.00    -0.225 OA
BRANCH   3   6
ATOM      6  C   UNL     1      30.186  40.603  11.461  1.00  0.00     0.154 C 
BRANCH   6   7
ATOM      7  C   UNL     1      31.331  39.870  12.101  1.00  0.00     0.165 C 
BRANCH   7   8
ATOM      8  C   UNL     1      31.202  38.416  11.655  1.00  0.00     0.176 C 
BRANCH   8   9
ATOM      9  C   UNL     1      31.257  37.469  12.813  1.00  0.00     0.178 C 
ATOM     10  C   UNL     1      32.141  35.392  13.343  1.00  0.00     0.269 C 
ATOM     11  C   UNL     1      31.185  35.333  14.488  1.00  0.00     0.112 C 
ATOM     12  O   UNL     1      32.356  36.662  12.828  1.00  0.00    -0.332 OA
ATOM     13  C   UNL     1      29.914  36.108  14.292  1.00  0.00     0.145 C 
ATOM     14  C   UNL     1      29.949  36.691  12.896  1.00  0.00     0.142 C 
BRANCH  10  15
ATOM     15  O   UNL     1      31.771  34.484  12.347  1.00  0.00    -0.357 OA
ATOM     16  H   UNL     1      31.509  35.029  11.546  1.00  0.00     0.214 HD
ENDBRANCH  10  15
BRANCH  10  17
ATOM     17  C   UNL     1      33.461  34.940  13.870  1.00  0.00     0.364 C 
ATOM     18  O   UNL     1      33.848  35.273  15.011  1.00  0.00    -0.246 OA
BRANCH  17  19
ATOM     19  O   UNL     1      34.272  34.128  13.056  1.00  0.00    -0.477 OA
ATOM     20  H   UNL     1      35.275  34.225  13.204  1.00  0.00     0.296 HD
ENDBRANCH  17  19
ENDBRANCH  10  17
BRANCH  13  21
ATOM     21  O   UNL     1      28.769  35.358  14.529  1.00  0.00    -0.391 OA
ATOM     22  H   UNL     1      28.731  35.208  15.508  1.00  0.00     0.211 HD
ENDBRANCH  13  21
BRANCH  14  23
ATOM     23  N   UNL     1      28.868  37.627  12.668  1.00  0.00    -0.348 N 
ATOM     24  C   UNL     1      27.689  37.183  12.013  1.00  0.00     0.217 C 
ATOM     25  H   UNL     1      28.896  38.621  12.955  1.00  0.00     0.163 HD
ATOM     26  C   UNL     1      26.538  38.067  11.739  1.00  0.00     0.114 C 
ATOM     27  O   UNL     1      27.621  35.977  11.649  1.00  0.00    -0.275 OA
ENDBRANCH  14  23
ENDBRANCH   8   9
BRANCH   8  28
ATOM     28  O   UNL     1      32.185  38.157  10.713  1.00  0.00    -0.388 OA
ATOM     29  H   UNL     1      32.357  38.932  10.111  1.00  0.00     0.211 HD
ENDBRANCH   8  28
ENDBRANCH   7   8
BRANCH   7  30
ATOM     30  O   UNL     1      31.217  39.880  13.467  1.00  0.00    -0.388 OA
ATOM     31  H   UNL     1      31.507  40.735  13.878  1.00  0.00     0.211 HD
ENDBRANCH   7  30
ENDBRANCH   6   7
ENDBRANCH   3   6
ENDBRANCH   1   2
BRANCH   1  32
ATOM     32  C   UNL     1      29.993  38.661   7.528  1.00  0.00     0.294 C 
BRANCH  32  33
ATOM     33  C   UNL     1      28.740  37.936   7.252  1.00  0.00     0.120 A 
ATOM     34  C   UNL     1      27.786  37.697   8.246  1.00  0.00     0.138 A 
ATOM     35  N   UNL     1      28.238  37.391   6.153  1.00  0.00    -0.132 NA
ATOM     36  N   UNL     1      26.757  37.018   7.698  1.00  0.00    -0.252 N 
ATOM     37  N   UNL     1      27.049  36.846   6.441  1.00  0.00    -0.067 NA
BRANCH  36  38
ATOM     38  C   UNL     1      25.596  36.597   8.430  1.00  0.00     0.151 C 
BRANCH  38  39
ATOM     39  C   UNL     1      24.316  37.214   7.915  1.00  0.00     0.086 C 
BRANCH  39  40
ATOM     40  C   UNL     1      24.214  38.679   8.204  1.00  0.00     0.251 C 
BRANCH  40  41
ATOM     41  O   UNL     1      22.982  38.921   8.801  1.00  0.00    -0.353 OA
BRANCH  41  42
ATOM     42  C   UNL     1      23.156  39.265  10.147  1.00  0.00     0.160 C 
ATOM     43  C   UNL     1      22.312  40.453  10.529  1.00  0.00     0.035 C 
ENDBRANCH  41  42
ENDBRANCH  40  41
BRANCH  40  44
ATOM     44  O   UNL     1      24.324  39.453   7.078  1.00  0.00    -0.353 OA
BRANCH  44  45
ATOM     45  C   UNL     1      25.372  40.369   7.164  1.00  0.00     0.160 C 
ATOM     46  C   UNL     1      26.130  40.370   5.842  1.00  0.00     0.035 C 
ENDBRANCH  44  45
ENDBRANCH  40  44
ENDBRANCH  39  40
ENDBRANCH  38  39
ENDBRANCH  36  38
ENDBRANCH  32  33
ENDBRANCH   1  32
TORSDOF 21
BEGIN_RES LYS A 131
REMARK  4 active torsions:
REMARK  status: ('A' for Active; 'I' for Inactive)
REMARK    1  A    between atoms: CA   and  CB  
REMARK    2  A    between atoms: CB   and  CG  
REMARK    3  A    between atoms: CG   and  CD  
REMARK    4  A    between atoms: CD   and  CE  
ROOT
ATOM      1  CA  LYS A 131      29.867  25.555  16.977  1.00 20.52     0.186 C 
ENDROOT
BRANCH   1   2
ATOM      2  CB  LYS A 131      28.345  25.722  17.026  1.00 20.94     0.034 C 
BRANCH   2   3
ATOM      3  CG  LYS A 131      27.602  24.399  16.921  1.00 22.96     0.005 C 
BRANCH   3   4
ATOM      4  CD  LYS A 131      26.181  24.508  17.401  1.00 24.33     0.041 C 
BRANCH   4   5
ATOM      5  CE  LYS A 131      25.980  23.592  18.605  1.00 26.91     0.338 C 
ATOM      6  NZ  LYS A 131      25.210  24.288  19.663  1.00 27.40     0.618 N 
ENDBRANCH   4   5
ENDBRANCH   3   4
ENDBRANCH   2   3
ENDBRANCH   1   2
END_RES LYS A 131
BEGIN_RES LYS A 135
REMARK  4 active torsions:
REMARK  status: ('A' for Active; 'I' for Inactive)
REMARK    5  A    between atoms: CA   and  CB  
REMARK    6  A    between atoms: CB   and  CG  
REMARK    7  A    between atoms: CG   and  CD  
REMARK    8  A    between atoms: CD   and  CE  
ROOT
ATOM      7  CA  LYS A 135      33.193  34.663   9.290  1.00 25.02     0.186 C 
ENDROOT
BRANCH   7   8
ATOM      8  CB  LYS A 135      32.060  35.360  10.034  1.00 26.63     0.034 C 
BRANCH   8   9
ATOM      9  CG  LYS A 135      30.784  35.453   9.238  1.00 29.45     0.005 C 
BRANCH   9  10
ATOM     10  CD  LYS A 135      30.135  34.084   9.103  1.00 32.00     0.041 C 
BRANCH  10  11
ATOM     11  CE  LYS A 135      28.716  34.217   8.584  1.00 34.25     0.338 C 
ATOM     12  NZ  LYS A 135      27.738  33.620   9.536  1.00 35.99     0.618 N 
ENDBRANCH  10  11
ENDBRANCH   9  10
ENDBRANCH   8   9
ENDBRANCH   7   8
END_RES LYS A 135
