REMARK VINA RESULT:    -5.841      1.800      2.963
REMARK INTER + INTRA:         -16.586
REMARK INTER:                 -10.593
REMARK INTRA:                  -5.993
REMARK UNBOUND:                -5.110
REMARK SMILES CC(=O)N[C@@H]1[C@@H](O)C[C@](O)(C(=O)O)O[C@H]1C(O)[C@H](O)CNC(=O)OCc1cn([C@@H](C)C(=O)OCc2ccccc2)nn1
REMARK SMILES IDX 24 1 22 2 21 3 23 5 20 6 18 7 16 8 15 9 9 10 8 11 14 12 6 13
REMARK SMILES IDX 5 14 10 15 11 17 12 18 13 19 7 21 4 23 2 24 1 26 3 27 17 28
REMARK SMILES IDX 19 30 25 32 26 33 27 34 42 35 28 36 41 37 29 38 30 39 31 40
REMARK SMILES IDX 32 41 33 42 34 43 35 44 36 45 40 46 37 47 39 48 38 49
REMARK H PARENT 21 4 10 16 13 20 7 22 4 25 17 29 19 31
REMARK Flexibility Score: inf
ROOT
ATOM      1  O   UNL     1      27.774  37.803  12.722  1.00  0.00    -0.443 OA
ENDROOT
BRANCH   1   2
ATOM      2  C   UNL     1      26.580  37.203  13.187  1.00  0.00     0.407 C 
ATOM      3  N   UNL     1      25.517  36.944  12.296  1.00  0.00    -0.319 N 
ATOM      4  H   UNL     1      25.684  37.245  11.284  1.00  0.00     0.167 HD
ATOM      5  O   UNL     1      26.552  36.934  14.402  1.00  0.00    -0.225 OA
BRANCH   3   6
ATOM      6  C   UNL     1      24.291  36.326  12.690  1.00  0.00     0.154 C 
BRANCH   6   7
ATOM      7  C   UNL     1      23.422  35.997  11.523  1.00  0.00     0.165 C 
BRANCH   7   8
ATOM      8  C   UNL     1      22.180  36.885  11.528  1.00  0.00     0.176 C 
BRANCH   8   9
ATOM      9  C   UNL     1      21.995  37.660  10.261  1.00  0.00     0.178 C 
ATOM     10  C   UNL     1      21.158  35.929   8.922  1.00  0.00     0.269 C 
ATOM     11  C   UNL     1      22.507  35.801   8.290  1.00  0.00     0.112 C 
ATOM     12  O   UNL     1      20.923  37.148   9.510  1.00  0.00    -0.332 OA
ATOM     13  C   UNL     1      23.071  37.187   8.051  1.00  0.00     0.145 C 
ATOM     14  C   UNL     1      23.216  37.836   9.419  1.00  0.00     0.142 C 
BRANCH  10  15
ATOM     15  O   UNL     1      20.941  34.894   9.803  1.00  0.00    -0.357 OA
ATOM     16  H   UNL     1      21.694  34.763  10.443  1.00  0.00     0.214 HD
ENDBRANCH  10  15
BRANCH  10  17
ATOM     17  C   UNL     1      20.123  35.803   7.832  1.00  0.00     0.364 C 
ATOM     18  O   UNL     1      19.467  36.806   7.450  1.00  0.00    -0.246 OA
BRANCH  17  19
ATOM     19  O   UNL     1      19.852  34.592   7.212  1.00  0.00    -0.477 OA
ATOM     20  H   UNL     1      20.139  33.692   7.628  1.00  0.00     0.296 HD
ENDBRANCH  17  19
ENDBRANCH  10  17
BRANCH  13  21
ATOM     21  O   UNL     1      24.276  37.117   7.381  1.00  0.00    -0.391 OA
ATOM     22  H   UNL     1      24.200  36.703   6.485  1.00  0.00     0.211 HD
ENDBRANCH  13  21
BRANCH  14  23
ATOM     23  N   UNL     1      23.587  39.244   9.242  1.00  0.00    -0.348 N 
ATOM     24  C   UNL     1      24.279  39.988  10.243  1.00  0.00     0.217 C 
ATOM     25  H   UNL     1      23.348  39.758   8.354  1.00  0.00     0.163 HD
ATOM     26  C   UNL     1      24.630  41.421  10.004  1.00  0.00     0.114 C 
ATOM     27  O   UNL     1      24.591  39.431  11.322  1.00  0.00    -0.275 OA
ENDBRANCH  14  23
ENDBRANCH   8   9
BRANCH   8  28
ATOM     28  O   UNL     1      22.284  37.793  12.588  1.00  0.00    -0.388 OA
ATOM     29  H   UNL     1      22.956  37.455  13.239  1.00  0.00     0.211 HD
ENDBRANCH   8  28
ENDBRANCH   7   8
BRANCH   7  30
ATOM     30  O   UNL     1      23.037  34.658  11.585  1.00  0.00    -0.388 OA
ATOM     31  H   UNL     1      22.521  34.374  10.775  1.00  0.00     0.211 HD
ENDBRANCH   7  30
ENDBRANCH   6   7
ENDBRANCH   3   6
ENDBRANCH   1   2
BRANCH   1  32
ATOM     32  C   UNL     1      28.581  37.086  11.811  1.00  0.00     0.294 C 
BRANCH  32  33
ATOM     33  C   UNL     1      28.566  37.687  10.464  1.00  0.00     0.120 A 
ATOM     34  C   UNL     1      27.490  38.088   9.708  1.00  0.00     0.139 A 
ATOM     35  N   UNL     1      29.650  37.957   9.719  1.00  0.00    -0.132 NA
ATOM     36  N   UNL     1      27.939  38.586   8.532  1.00  0.00    -0.238 N 
ATOM     37  N   UNL     1      29.240  38.495   8.566  1.00  0.00    -0.066 NA
BRANCH  36  38
ATOM     38  C   UNL     1      27.117  39.107   7.472  1.00  0.00     0.215 C 
ATOM     39  C   UNL     1      27.365  40.590   7.302  1.00  0.00     0.046 C 
BRANCH  38  40
ATOM     40  C   UNL     1      27.364  38.343   6.241  1.00  0.00     0.331 C 
ATOM     41  O   UNL     1      27.824  38.936   5.220  1.00  0.00    -0.250 OA
BRANCH  40  42
ATOM     42  O   UNL     1      27.114  36.991   6.142  1.00  0.00    -0.459 OA
BRANCH  42  43
ATOM     43  C   UNL     1      28.060  35.977   6.012  1.00  0.00     0.268 C 
BRANCH  43  44
ATOM     44  C   UNL     1      28.163  35.238   7.301  1.00  0.00    -0.011 A 
ATOM     45  C   UNL     1      27.028  34.906   8.006  1.00  0.00     0.007 A 
ATOM     46  C   UNL     1      29.391  34.882   7.790  1.00  0.00     0.007 A 
ATOM     47  C   UNL     1      27.118  34.221   9.194  1.00  0.00     0.000 A 
ATOM     48  C   UNL     1      29.511  34.201   8.969  1.00  0.00     0.000 A 
ATOM     49  C   UNL     1      28.375  33.872   9.669  1.00  0.00     0.000 A 
ENDBRANCH  43  44
ENDBRANCH  42  43
ENDBRANCH  40  42
ENDBRANCH  38  40
ENDBRANCH  36  38
ENDBRANCH  32  33
ENDBRANCH   1  32
TORSDOF 19
BEGIN_RES LYS A 131
REMARK  4 active torsions:
REMARK  status: ('A' for Active; 'I' for Inactive)
REMARK    1  A    between atoms: CA   and  CB  
REMARK    2  A    between atoms: CB   and  CG  
REMARK    3  A    between atoms: CG   and  CD  
REMARK    4  A    between atoms: CD   and  CE  
ROOT
ATOM      1  CA  LYS A 131      29.867  25.555  16.977  1.00 20.52     0.186 C 
ENDROOT
BRANCH   1   2
ATOM      2  CB  LYS A 131      28.345  25.722  17.026  1.00 20.94     0.034 C 
BRANCH   2   3
ATOM      3  CG  LYS A 131      27.602  24.400  16.915  1.00 22.96     0.005 C 
BRANCH   3   4
ATOM      4  CD  LYS A 131      26.596  24.221  18.019  1.00 24.33     0.041 C 
BRANCH   4   5
ATOM      5  CE  LYS A 131      25.630  25.401  18.023  1.00 26.91     0.338 C 
ATOM      6  NZ  LYS A 131      24.818  25.402  19.263  1.00 27.40     0.618 N 
ENDBRANCH   4   5
ENDBRANCH   3   4
ENDBRANCH   2   3
ENDBRANCH   1   2
END_RES LYS A 131
BEGIN_RES LYS A 135
REMARK  4 active torsions:
REMARK  status: ('A' for Active; 'I' for Inactive)
REMARK    5  A    between atoms: CA   and  CB  
REMARK    6  A    between atoms: CB   and  CG  
REMARK    7  A    between atoms: CG   and  CD  
REMARK    8  A    between atoms: CD   and  CE  
ROOT
ATOM      7  CA  LYS A 135      33.193  34.663   9.290  1.00 25.02     0.186 C 
ENDROOT
BRANCH   7   8
ATOM      8  CB  LYS A 135      32.060  35.360  10.034  1.00 26.63     0.034 C 
BRANCH   8   9
ATOM      9  CG  LYS A 135      32.507  36.065  11.288  1.00 29.45     0.005 C 
BRANCH   9  10
ATOM     10  CD  LYS A 135      31.875  35.428  12.516  1.00 32.00     0.041 C 
BRANCH  10  11
ATOM     11  CE  LYS A 135      32.894  35.297  13.632  1.00 34.25     0.338 C 
ATOM     12  NZ  LYS A 135      32.300  34.634  14.826  1.00 35.99     0.618 N 
ENDBRANCH  10  11
ENDBRANCH   9  10
ENDBRANCH   8   9
ENDBRANCH   7   8
END_RES LYS A 135
