REMARK VINA RESULT:    -5.491      2.023      3.091
REMARK INTER + INTRA:         -16.834
REMARK INTER:                  -9.458
REMARK INTRA:                  -7.376
REMARK UNBOUND:                -6.527
REMARK SMILES CC(=O)N[C@@H]1[C@@H](O)C[C@](O)(C(=O)O)O[C@H]1C(O)[C@H](O)CNC(=O)OCc1cn(-c2ccc(S(=O)(=O)c3ccc(N)cc3)cc2)nn1
REMARK SMILES IDX 21 1 22 2 23 3 20 5 18 6 16 7 15 8 9 9 8 10 14 11 6 12 5 13
REMARK SMILES IDX 10 14 11 16 12 17 13 18 7 20 4 22 2 23 1 25 3 26 17 27 19 29
REMARK SMILES IDX 24 31 25 32 26 33 27 34 46 35 28 36 45 37 29 38 30 39 44 40
REMARK SMILES IDX 31 41 43 42 32 43 33 44 34 45 35 46 36 47 37 48 42 49 38 50
REMARK SMILES IDX 41 51 39 52 40 53
REMARK H PARENT 21 4 10 15 13 19 7 21 4 24 17 28 19 30 40 54 40 55
REMARK Flexibility Score: inf
ROOT
ATOM      1  N   UNL     1      25.084  29.869  18.765  1.00  0.00    -0.319 N 
ATOM      2  C   UNL     1      24.703  31.009  18.019  1.00  0.00     0.407 C 
ATOM      3  O   UNL     1      24.847  32.139  18.498  1.00  0.00    -0.225 OA
ATOM      4  H   UNL     1      24.927  28.936  18.270  1.00  0.00     0.167 HD
ENDROOT
BRANCH   1   5
ATOM      5  C   UNL     1      25.647  29.891  20.095  1.00  0.00     0.154 C 
BRANCH   5   6
ATOM      6  C   UNL     1      27.091  29.528  20.026  1.00  0.00     0.165 C 
BRANCH   6   7
ATOM      7  C   UNL     1      28.006  30.733  20.078  1.00  0.00     0.176 C 
BRANCH   7   8
ATOM      8  C   UNL     1      29.453  30.408  20.231  1.00  0.00     0.178 C 
ATOM      9  C   UNL     1      30.760  28.799  21.266  1.00  0.00     0.269 C 
ATOM     10  C   UNL     1      31.965  29.654  21.027  1.00  0.00     0.112 C 
ATOM     11  O   UNL     1      29.713  29.068  20.403  1.00  0.00    -0.332 OA
ATOM     12  C   UNL     1      31.678  31.104  20.872  1.00  0.00     0.145 C 
ATOM     13  C   UNL     1      30.187  31.319  21.183  1.00  0.00     0.142 C 
BRANCH   9  14
ATOM     14  O   UNL     1      30.346  28.858  22.617  1.00  0.00    -0.357 OA
ATOM     15  H   UNL     1      31.094  29.170  23.154  1.00  0.00     0.214 HD
ENDBRANCH   9  14
BRANCH   9  16
ATOM     16  C   UNL     1      31.163  27.381  21.033  1.00  0.00     0.364 C 
ATOM     17  O   UNL     1      30.733  26.490  21.830  1.00  0.00    -0.246 OA
BRANCH  16  18
ATOM     18  O   UNL     1      31.974  26.971  20.006  1.00  0.00    -0.477 OA
ATOM     19  H   UNL     1      32.865  27.432  19.835  1.00  0.00     0.296 HD
ENDBRANCH  16  18
ENDBRANCH   9  16
BRANCH  12  20
ATOM     20  O   UNL     1      32.467  31.920  21.668  1.00  0.00    -0.391 OA
ATOM     21  H   UNL     1      33.207  31.368  22.075  1.00  0.00     0.211 HD
ENDBRANCH  12  20
BRANCH  13  22
ATOM     22  N   UNL     1      29.843  32.692  20.833  1.00  0.00    -0.348 N 
ATOM     23  C   UNL     1      29.812  33.694  21.835  1.00  0.00     0.217 C 
ATOM     24  H   UNL     1      29.613  32.977  19.858  1.00  0.00     0.163 HD
ATOM     25  C   UNL     1      29.458  35.121  21.507  1.00  0.00     0.114 C 
ATOM     26  O   UNL     1      30.072  33.459  23.034  1.00  0.00    -0.275 OA
ENDBRANCH  13  22
ENDBRANCH   7   8
BRANCH   7  27
ATOM     27  O   UNL     1      27.748  31.453  18.905  1.00  0.00    -0.388 OA
ATOM     28  H   UNL     1      26.972  32.030  19.071  1.00  0.00     0.211 HD
ENDBRANCH   7  27
ENDBRANCH   6   7
BRANCH   6  29
ATOM     29  O   UNL     1      27.347  28.695  18.946  1.00  0.00    -0.388 OA
ATOM     30  H   UNL     1      26.519  28.197  18.729  1.00  0.00     0.211 HD
ENDBRANCH   6  29
ENDBRANCH   5   6
ENDBRANCH   1   5
BRANCH   2  31
ATOM     31  O   UNL     1      24.161  30.927  16.740  1.00  0.00    -0.443 OA
BRANCH  31  32
ATOM     32  C   UNL     1      24.861  30.321  15.664  1.00  0.00     0.294 C 
BRANCH  32  33
ATOM     33  C   UNL     1      26.337  30.458  15.816  1.00  0.00     0.121 A 
ATOM     34  C   UNL     1      27.044  31.580  15.477  1.00  0.00     0.144 A 
ATOM     35  N   UNL     1      27.216  29.562  16.287  1.00  0.00    -0.131 NA
ATOM     36  N   UNL     1      28.348  31.343  15.750  1.00  0.00    -0.220 N 
ATOM     37  N   UNL     1      28.403  30.131  16.230  1.00  0.00    -0.062 NA
BRANCH  36  38
ATOM     38  C   UNL     1      29.377  32.292  15.524  1.00  0.00     0.066 A 
ATOM     39  C   UNL     1      30.696  31.943  15.709  1.00  0.00     0.030 A 
ATOM     40  C   UNL     1      29.114  33.582  15.116  1.00  0.00     0.030 A 
ATOM     41  C   UNL     1      31.732  32.838  15.499  1.00  0.00     0.023 A 
ATOM     42  C   UNL     1      30.152  34.494  14.901  1.00  0.00     0.023 A 
ATOM     43  C   UNL     1      31.460  34.121  15.093  1.00  0.00     0.072 A 
BRANCH  43  44
ATOM     44  S   UNL     1      32.753  35.238  14.830  1.00  0.00     0.206 S 
ATOM     45  O   UNL     1      32.242  36.454  14.135  1.00  0.00    -0.219 OA
ATOM     46  O   UNL     1      33.856  34.658  13.994  1.00  0.00    -0.219 OA
BRANCH  44  47
ATOM     47  C   UNL     1      33.439  35.640  16.401  1.00  0.00     0.072 A 
ATOM     48  C   UNL     1      32.637  35.571  17.509  1.00  0.00     0.023 A 
ATOM     49  C   UNL     1      34.770  36.022  16.536  1.00  0.00     0.023 A 
ATOM     50  C   UNL     1      33.137  35.878  18.768  1.00  0.00     0.027 A 
ATOM     51  C   UNL     1      35.301  36.337  17.778  1.00  0.00     0.027 A 
ATOM     52  C   UNL     1      34.463  36.255  18.865  1.00  0.00     0.031 A 
BRANCH  52  53
ATOM     53  N   UNL     1      34.983  36.571  20.140  1.00  0.00    -0.399 N 
ATOM     54  H   UNL     1      35.808  36.070  20.508  1.00  0.00     0.156 HD
ATOM     55  H   UNL     1      34.530  37.310  20.705  1.00  0.00     0.156 HD
ENDBRANCH  52  53
ENDBRANCH  44  47
ENDBRANCH  43  44
ENDBRANCH  36  38
ENDBRANCH  32  33
ENDBRANCH  31  32
ENDBRANCH   2  31
TORSDOF 18
BEGIN_RES LYS A 131
REMARK  4 active torsions:
REMARK  status: ('A' for Active; 'I' for Inactive)
REMARK    1  A    between atoms: CA   and  CB  
REMARK    2  A    between atoms: CB   and  CG  
REMARK    3  A    between atoms: CG   and  CD  
REMARK    4  A    between atoms: CD   and  CE  
ROOT
ATOM      1  CA  LYS A 131      29.867  25.555  16.977  1.00 20.52     0.186 C 
ENDROOT
BRANCH   1   2
ATOM      2  CB  LYS A 131      28.345  25.722  17.026  1.00 20.94     0.034 C 
BRANCH   2   3
ATOM      3  CG  LYS A 131      27.599  24.418  16.785  1.00 22.96     0.005 C 
BRANCH   3   4
ATOM      4  CD  LYS A 131      26.171  24.489  17.248  1.00 24.33     0.041 C 
BRANCH   4   5
ATOM      5  CE  LYS A 131      26.078  23.994  18.688  1.00 26.91     0.338 C 
ATOM      6  NZ  LYS A 131      24.730  23.441  18.961  1.00 27.40     0.618 N 
ENDBRANCH   4   5
ENDBRANCH   3   4
ENDBRANCH   2   3
ENDBRANCH   1   2
END_RES LYS A 131
BEGIN_RES LYS A 135
REMARK  4 active torsions:
REMARK  status: ('A' for Active; 'I' for Inactive)
REMARK    5  A    between atoms: CA   and  CB  
REMARK    6  A    between atoms: CB   and  CG  
REMARK    7  A    between atoms: CG   and  CD  
REMARK    8  A    between atoms: CD   and  CE  
ROOT
ATOM      7  CA  LYS A 135      33.193  34.663   9.290  1.00 25.02     0.186 C 
ENDROOT
BRANCH   7   8
ATOM      8  CB  LYS A 135      32.060  35.360  10.034  1.00 26.63     0.034 C 
BRANCH   8   9
ATOM      9  CG  LYS A 135      30.745  34.629   9.950  1.00 29.45     0.005 C 
BRANCH   9  10
ATOM     10  CD  LYS A 135      30.318  34.458   8.501  1.00 32.00     0.041 C 
BRANCH  10  11
ATOM     11  CE  LYS A 135      28.807  34.520   8.379  1.00 34.25     0.338 C 
ATOM     12  NZ  LYS A 135      28.149  33.800   9.505  1.00 35.99     0.618 N 
ENDBRANCH  10  11
ENDBRANCH   9  10
ENDBRANCH   8   9
ENDBRANCH   7   8
END_RES LYS A 135
