REMARK VINA RESULT:    -4.076      1.761      3.627
REMARK INTER + INTRA:         -14.523
REMARK INTER:                  -7.851
REMARK INTRA:                  -6.672
REMARK UNBOUND:                -6.753
REMARK SMILES COCC(C(N)=O)n1cc(COC(=O)NC[C@@H](O)C(O)[C@@H]2O[C@@](O)(C(=O)O)C[C@H](O)[C@H]2NC(C)=O)nn1
REMARK SMILES IDX 15 1 13 2 14 3 16 5 17 6 19 7 21 8 23 9 28 10 22 11 29 12
REMARK SMILES IDX 31 13 24 14 25 16 26 17 27 18 30 20 32 22 33 23 34 25 35 26
REMARK SMILES IDX 20 27 18 29 12 31 11 32 10 33 9 34 36 35 8 36 37 37 4 38
REMARK SMILES IDX 3 39 2 40 1 41 5 42 7 43 6 44
REMARK H PARENT 15 4 24 15 27 19 30 21 32 24 20 28 18 30 6 45 6 46
REMARK Flexibility Score: inf
ROOT
ATOM      1  N   UNL     1      31.346  33.198  19.849  1.00  0.00    -0.319 N 
ATOM      2  C   UNL     1      30.592  34.367  20.080  1.00  0.00     0.407 C 
ATOM      3  O   UNL     1      30.050  34.601  21.184  1.00  0.00    -0.225 OA
ATOM      4  H   UNL     1      31.767  33.094  18.891  1.00  0.00     0.167 HD
ENDROOT
BRANCH   1   5
ATOM      5  C   UNL     1      31.587  32.155  20.785  1.00  0.00     0.154 C 
BRANCH   5   6
ATOM      6  C   UNL     1      30.707  30.961  20.728  1.00  0.00     0.165 C 
BRANCH   6   7
ATOM      7  C   UNL     1      29.672  31.037  19.626  1.00  0.00     0.176 C 
BRANCH   7   8
ATOM      8  C   UNL     1      28.575  30.025  19.721  1.00  0.00     0.178 C 
ATOM      9  C   UNL     1      28.255  27.827  20.369  1.00  0.00     0.269 C 
ATOM     10  C   UNL     1      26.837  28.299  20.182  1.00  0.00     0.112 C 
ATOM     11  O   UNL     1      29.185  28.832  20.165  1.00  0.00    -0.332 OA
ATOM     12  C   UNL     1      26.586  28.944  18.866  1.00  0.00     0.145 C 
ATOM     13  C   UNL     1      27.858  29.704  18.455  1.00  0.00     0.142 C 
BRANCH   9  14
ATOM     14  O   UNL     1      28.467  26.721  19.566  1.00  0.00    -0.357 OA
ATOM     15  H   UNL     1      28.761  25.920  20.067  1.00  0.00     0.214 HD
ENDBRANCH   9  14
BRANCH   9  16
ATOM     16  C   UNL     1      28.388  27.384  21.784  1.00  0.00     0.364 C 
ATOM     17  O   UNL     1      29.248  27.884  22.560  1.00  0.00    -0.246 OA
BRANCH  16  18
ATOM     18  O   UNL     1      27.568  26.390  22.330  1.00  0.00    -0.477 OA
ATOM     19  H   UNL     1      27.056  25.744  21.744  1.00  0.00     0.296 HD
ENDBRANCH  16  18
ENDBRANCH   9  16
BRANCH  12  20
ATOM     20  O   UNL     1      26.216  28.042  17.871  1.00  0.00    -0.391 OA
ATOM     21  H   UNL     1      26.866  27.288  17.917  1.00  0.00     0.211 HD
ENDBRANCH  12  20
BRANCH  13  22
ATOM     22  N   UNL     1      27.420  30.793  17.653  1.00  0.00    -0.348 N 
ATOM     23  C   UNL     1      27.941  31.046  16.328  1.00  0.00     0.217 C 
ATOM     24  H   UNL     1      26.690  31.469  17.962  1.00  0.00     0.163 HD
ATOM     25  C   UNL     1      27.454  32.194  15.528  1.00  0.00     0.114 C 
ATOM     26  O   UNL     1      28.803  30.296  15.855  1.00  0.00    -0.275 OA
ENDBRANCH  13  22
ENDBRANCH   7   8
BRANCH   7  27
ATOM     27  O   UNL     1      30.404  30.673  18.453  1.00  0.00    -0.388 OA
ATOM     28  H   UNL     1      30.172  31.247  17.705  1.00  0.00     0.211 HD
ENDBRANCH   7  27
ENDBRANCH   6   7
BRANCH   6  29
ATOM     29  O   UNL     1      29.992  30.835  21.917  1.00  0.00    -0.388 OA
ATOM     30  H   UNL     1      30.430  30.174  22.504  1.00  0.00     0.211 HD
ENDBRANCH   6  29
ENDBRANCH   5   6
ENDBRANCH   1   5
BRANCH   2  31
ATOM     31  O   UNL     1      30.419  35.318  19.079  1.00  0.00    -0.443 OA
BRANCH  31  32
ATOM     32  C   UNL     1      29.434  35.178  18.090  1.00  0.00     0.294 C 
BRANCH  32  33
ATOM     33  C   UNL     1      30.009  34.637  16.845  1.00  0.00     0.120 A 
ATOM     34  C   UNL     1      29.984  35.206  15.587  1.00  0.00     0.139 A 
ATOM     35  N   UNL     1      30.668  33.463  16.746  1.00  0.00    -0.132 NA
ATOM     36  N   UNL     1      30.622  34.369  14.778  1.00  0.00    -0.237 N 
ATOM     37  N   UNL     1      31.025  33.339  15.465  1.00  0.00    -0.066 NA
BRANCH  36  38
ATOM     38  C   UNL     1      30.843  34.557  13.346  1.00  0.00     0.223 C 
BRANCH  38  39
ATOM     39  C   UNL     1      29.789  35.489  12.819  1.00  0.00     0.197 C 
BRANCH  39  40
ATOM     40  O   UNL     1      28.762  34.787  12.232  1.00  0.00    -0.382 OA
ATOM     41  C   UNL     1      27.661  35.547  11.898  1.00  0.00     0.195 C 
ENDBRANCH  39  40
ENDBRANCH  38  39
BRANCH  38  42
ATOM     42  C   UNL     1      32.185  35.196  13.147  1.00  0.00     0.244 C 
ATOM     43  O   UNL     1      32.310  36.199  12.429  1.00  0.00    -0.273 OA
ATOM     44  N   UNL     1      33.298  34.610  13.807  1.00  0.00    -0.368 N 
ATOM     45  H   UNL     1      34.130  35.210  14.011  1.00  0.00     0.159 HD
ATOM     46  H   UNL     1      33.290  33.621  14.082  1.00  0.00     0.159 HD
ENDBRANCH  38  42
ENDBRANCH  36  38
ENDBRANCH  32  33
ENDBRANCH  31  32
ENDBRANCH   2  31
TORSDOF 18
BEGIN_RES LYS A 131
REMARK  4 active torsions:
REMARK  status: ('A' for Active; 'I' for Inactive)
REMARK    1  A    between atoms: CA   and  CB  
REMARK    2  A    between atoms: CB   and  CG  
REMARK    3  A    between atoms: CG   and  CD  
REMARK    4  A    between atoms: CD   and  CE  
ROOT
ATOM      1  CA  LYS A 131      29.867  25.555  16.977  1.00 20.52     0.186 C 
ENDROOT
BRANCH   1   2
ATOM      2  CB  LYS A 131      28.345  25.722  17.026  1.00 20.94     0.034 C 
BRANCH   2   3
ATOM      3  CG  LYS A 131      27.601  24.406  16.857  1.00 22.96     0.005 C 
BRANCH   3   4
ATOM      4  CD  LYS A 131      26.470  24.266  17.838  1.00 24.33     0.041 C 
BRANCH   4   5
ATOM      5  CE  LYS A 131      25.139  24.379  17.101  1.00 26.91     0.338 C 
ATOM      6  NZ  LYS A 131      24.319  23.164  17.320  1.00 27.40     0.618 N 
ENDBRANCH   4   5
ENDBRANCH   3   4
ENDBRANCH   2   3
ENDBRANCH   1   2
END_RES LYS A 131
BEGIN_RES LYS A 135
REMARK  4 active torsions:
REMARK  status: ('A' for Active; 'I' for Inactive)
REMARK    5  A    between atoms: CA   and  CB  
REMARK    6  A    between atoms: CB   and  CG  
REMARK    7  A    between atoms: CG   and  CD  
REMARK    8  A    between atoms: CD   and  CE  
ROOT
ATOM      7  CA  LYS A 135      33.193  34.663   9.290  1.00 25.02     0.186 C 
ENDROOT
BRANCH   7   8
ATOM      8  CB  LYS A 135      32.060  35.360  10.034  1.00 26.63     0.034 C 
BRANCH   8   9
ATOM      9  CG  LYS A 135      30.799  35.496   9.220  1.00 29.45     0.005 C 
BRANCH   9  10
ATOM     10  CD  LYS A 135      30.161  34.135   8.987  1.00 32.00     0.041 C 
BRANCH  10  11
ATOM     11  CE  LYS A 135      28.704  34.289   8.595  1.00 34.25     0.338 C 
ATOM     12  NZ  LYS A 135      28.553  35.236   7.456  1.00 35.99     0.618 N 
ENDBRANCH  10  11
ENDBRANCH   9  10
ENDBRANCH   8   9
ENDBRANCH   7   8
END_RES LYS A 135
