REMARK VINA RESULT:    -5.040      4.224      7.894
REMARK INTER + INTRA:         -14.686
REMARK INTER:                  -9.700
REMARK INTRA:                  -4.987
REMARK UNBOUND:                -4.785
REMARK SMILES C=CCCCCn1cc(COC(=O)NC[C@@H](O)C(O)[C@@H]2O[C@@](O)(C(=O)O)C[C@H](O)[C@H]2NC(C)=O)nn1
REMARK SMILES IDX 11 1 12 2 14 3 13 5 15 6 16 7 18 8 20 9 22 10 27 11 21 12
REMARK SMILES IDX 28 13 30 14 23 15 24 17 25 18 26 19 29 21 31 23 32 24 33 26
REMARK SMILES IDX 34 27 19 28 17 30 10 32 9 33 8 34 35 35 7 36 36 37 6 38 5 39
REMARK SMILES IDX 4 40 3 41 2 42 1 43
REMARK H PARENT 14 4 23 16 26 20 29 22 31 25 19 29 17 31
REMARK Flexibility Score: inf
ROOT
ATOM      1  O   UNL     1      27.208  35.336  11.956  1.00  0.00    -0.443 OA
ENDROOT
BRANCH   1   2
ATOM      2  C   UNL     1      26.580  36.356  11.267  1.00  0.00     0.407 C 
ATOM      3  N   UNL     1      25.262  36.093  10.766  1.00  0.00    -0.319 N 
ATOM      4  H   UNL     1      24.844  35.159  10.942  1.00  0.00     0.167 HD
ATOM      5  O   UNL     1      27.139  37.484  11.080  1.00  0.00    -0.225 OA
BRANCH   3   6
ATOM      6  C   UNL     1      24.525  37.072  10.042  1.00  0.00     0.154 C 
BRANCH   6   7
ATOM      7  C   UNL     1      24.309  36.716   8.569  1.00  0.00     0.165 C 
BRANCH   7   8
ATOM      8  C   UNL     1      25.323  37.525   7.799  1.00  0.00     0.176 C 
BRANCH   8   9
ATOM      9  C   UNL     1      26.434  36.713   7.218  1.00  0.00     0.178 C 
ATOM     10  C   UNL     1      28.360  35.741   8.072  1.00  0.00     0.269 C 
ATOM     11  C   UNL     1      28.760  35.637   6.615  1.00  0.00     0.112 C 
ATOM     12  O   UNL     1      26.992  35.914   8.180  1.00  0.00    -0.332 OA
ATOM     13  C   UNL     1      28.616  37.013   6.008  1.00  0.00     0.145 C 
ATOM     14  C   UNL     1      27.447  37.719   6.656  1.00  0.00     0.142 C 
BRANCH  10  15
ATOM     15  O   UNL     1      29.075  36.745   8.719  1.00  0.00    -0.357 OA
ATOM     16  H   UNL     1      30.003  36.457   8.870  1.00  0.00     0.214 HD
ENDBRANCH  10  15
BRANCH  10  17
ATOM     17  C   UNL     1      28.737  34.457   8.715  1.00  0.00     0.364 C 
ATOM     18  O   UNL     1      29.909  34.001   8.671  1.00  0.00    -0.246 OA
BRANCH  17  19
ATOM     19  O   UNL     1      27.805  33.670   9.412  1.00  0.00    -0.477 OA
ATOM     20  H   UNL     1      26.820  33.866   9.256  1.00  0.00     0.296 HD
ENDBRANCH  17  19
ENDBRANCH  10  17
BRANCH  13  21
ATOM     21  O   UNL     1      29.755  37.747   6.283  1.00  0.00    -0.391 OA
ATOM     22  H   UNL     1      29.538  38.712   6.285  1.00  0.00     0.211 HD
ENDBRANCH  13  21
BRANCH  14  23
ATOM     23  N   UNL     1      26.744  38.571   5.713  1.00  0.00    -0.348 N 
ATOM     24  C   UNL     1      26.738  39.992   5.801  1.00  0.00     0.217 C 
ATOM     25  H   UNL     1      26.194  38.169   4.903  1.00  0.00     0.163 HD
ATOM     26  C   UNL     1      26.009  40.857   4.825  1.00  0.00     0.114 C 
ATOM     27  O   UNL     1      27.384  40.503   6.757  1.00  0.00    -0.275 OA
ENDBRANCH  14  23
ENDBRANCH   8   9
BRANCH   8  28
ATOM     28  O   UNL     1      25.783  38.514   8.684  1.00  0.00    -0.388 OA
ATOM     29  H   UNL     1      25.708  39.420   8.293  1.00  0.00     0.211 HD
ENDBRANCH   8  28
ENDBRANCH   7   8
BRANCH   7  30
ATOM     30  O   UNL     1      23.005  36.935   8.179  1.00  0.00    -0.388 OA
ATOM     31  H   UNL     1      22.374  36.232   8.409  1.00  0.00     0.211 HD
ENDBRANCH   7  30
ENDBRANCH   6   7
ENDBRANCH   3   6
ENDBRANCH   1   2
BRANCH   1  32
ATOM     32  C   UNL     1      28.412  35.575  12.636  1.00  0.00     0.294 C 
BRANCH  32  33
ATOM     33  C   UNL     1      28.490  34.565  13.742  1.00  0.00     0.120 A 
ATOM     34  C   UNL     1      29.618  33.808  14.018  1.00  0.00     0.138 A 
ATOM     35  N   UNL     1      27.575  34.193  14.637  1.00  0.00    -0.132 NA
ATOM     36  N   UNL     1      29.349  33.013  15.060  1.00  0.00    -0.252 N 
ATOM     37  N   UNL     1      28.105  33.266  15.415  1.00  0.00    -0.067 NA
BRANCH  36  38
ATOM     38  C   UNL     1      30.202  32.037  15.725  1.00  0.00     0.146 C 
BRANCH  38  39
ATOM     39  C   UNL     1      31.491  32.689  16.148  1.00  0.00     0.024 C 
BRANCH  39  40
ATOM     40  C   UNL     1      31.314  33.492  17.412  1.00  0.00     0.006 C 
BRANCH  40  41
ATOM     41  C   UNL     1      31.566  34.962  17.197  1.00  0.00     0.027 C 
BRANCH  41  42
ATOM     42  C   UNL     1      30.319  35.729  17.413  1.00  0.00    -0.035 C 
ATOM     43  C   UNL     1      29.846  36.585  16.535  1.00  0.00     0.004 C 
ENDBRANCH  41  42
ENDBRANCH  40  41
ENDBRANCH  39  40
ENDBRANCH  38  39
ENDBRANCH  36  38
ENDBRANCH  32  33
ENDBRANCH   1  32
TORSDOF 19
BEGIN_RES LYS A 131
REMARK  4 active torsions:
REMARK  status: ('A' for Active; 'I' for Inactive)
REMARK    1  A    between atoms: CA   and  CB  
REMARK    2  A    between atoms: CB   and  CG  
REMARK    3  A    between atoms: CG   and  CD  
REMARK    4  A    between atoms: CD   and  CE  
ROOT
ATOM      1  CA  LYS A 131      29.867  25.555  16.977  1.00 20.52     0.186 C 
ENDROOT
BRANCH   1   2
ATOM      2  CB  LYS A 131      28.345  25.722  17.026  1.00 20.94     0.034 C 
BRANCH   2   3
ATOM      3  CG  LYS A 131      27.601  24.403  16.887  1.00 22.96     0.005 C 
BRANCH   3   4
ATOM      4  CD  LYS A 131      26.542  24.236  17.941  1.00 24.33     0.041 C 
BRANCH   4   5
ATOM      5  CE  LYS A 131      25.249  24.896  17.472  1.00 26.91     0.338 C 
ATOM      6  NZ  LYS A 131      24.355  23.896  16.841  1.00 27.40     0.618 N 
ENDBRANCH   4   5
ENDBRANCH   3   4
ENDBRANCH   2   3
ENDBRANCH   1   2
END_RES LYS A 131
BEGIN_RES LYS A 135
REMARK  4 active torsions:
REMARK  status: ('A' for Active; 'I' for Inactive)
REMARK    5  A    between atoms: CA   and  CB  
REMARK    6  A    between atoms: CB   and  CG  
REMARK    7  A    between atoms: CG   and  CD  
REMARK    8  A    between atoms: CD   and  CE  
ROOT
ATOM      7  CA  LYS A 135      33.193  34.663   9.290  1.00 25.02     0.186 C 
ENDROOT
BRANCH   7   8
ATOM      8  CB  LYS A 135      32.060  35.360  10.034  1.00 26.63     0.034 C 
BRANCH   8   9
ATOM      9  CG  LYS A 135      32.536  36.330  11.085  1.00 29.45     0.005 C 
BRANCH   9  10
ATOM     10  CD  LYS A 135      32.268  35.785  12.479  1.00 32.00     0.041 C 
BRANCH  10  11
ATOM     11  CE  LYS A 135      31.889  36.907  13.426  1.00 34.25     0.338 C 
ATOM     12  NZ  LYS A 135      31.176  37.999  12.706  1.00 35.99     0.618 N 
ENDBRANCH  10  11
ENDBRANCH   9  10
ENDBRANCH   8   9
ENDBRANCH   7   8
END_RES LYS A 135
