REMARK VINA RESULT:    -9.294      5.325      7.740
REMARK INTER + INTRA:         -13.705
REMARK INTER:                  -7.853
REMARK INTRA:                  -5.852
REMARK UNBOUND:                 4.555
REMARK SMILES CC(=O)N[C@@H]1[C@@H](O)C[C@](O)(C(=O)O)O[C@H]1C(O)[C@H](O)CNC(=O)OCc1cn(C2CCc3ccccc3NC2=O)nn1
REMARK SMILES IDX 24 1 22 2 21 3 23 5 20 6 18 7 16 8 15 9 9 10 8 11 14 12 6 13
REMARK SMILES IDX 5 14 10 15 11 17 12 18 13 19 7 21 4 23 2 24 1 26 3 27 17 28
REMARK SMILES IDX 19 30 25 32 26 33 27 34 42 35 28 36 41 37 29 38 39 40 38 41
REMARK SMILES IDX 40 42 37 44 32 45 36 46 33 47 35 48 34 49 31 50 30 51
REMARK H PARENT 21 4 10 16 13 20 7 22 4 25 17 29 19 31 38 43
REMARK Flexibility Score: 80.00
ROOT
ATOM      1  O   UNL     1      24.893  41.073   8.778  1.00  0.00    -0.443 OA
ENDROOT
BRANCH   1   2
ATOM      2  C   UNL     1      25.230  40.511   7.571  1.00  0.00     0.407 C 
ATOM      3  N   UNL     1      26.591  40.144   7.304  1.00  0.00    -0.319 N 
ATOM      4  H   UNL     1      27.277  40.329   8.073  1.00  0.00     0.167 HD
ATOM      5  O   UNL     1      24.381  40.301   6.668  1.00  0.00    -0.225 OA
BRANCH   3   6
ATOM      6  C   UNL     1      26.991  39.550   6.041  1.00  0.00     0.154 C 
BRANCH   6   7
ATOM      7  C   UNL     1      27.601  38.199   6.324  1.00  0.00     0.165 C 
BRANCH   7   8
ATOM      8  C   UNL     1      29.103  38.190   6.139  1.00  0.00     0.176 C 
BRANCH   8   9
ATOM      9  C   UNL     1      29.812  38.416   7.484  1.00  0.00     0.178 C 
ATOM     10  C   UNL     1      29.114  38.902   9.670  1.00  0.00     0.269 C 
ATOM     11  C   UNL     1      30.390  39.676   9.794  1.00  0.00     0.112 C 
ATOM     12  O   UNL     1      28.881  38.336   8.447  1.00  0.00    -0.332 OA
ATOM     13  C   UNL     1      30.455  40.583   8.576  1.00  0.00     0.145 C 
ATOM     14  C   UNL     1      30.564  39.700   7.359  1.00  0.00     0.142 C 
BRANCH  10  15
ATOM     15  O   UNL     1      28.042  39.793   9.891  1.00  0.00    -0.357 OA
ATOM     16  H   UNL     1      27.690  39.552  10.786  1.00  0.00     0.214 HD
ENDBRANCH  10  15
BRANCH  10  17
ATOM     17  C   UNL     1      29.000  37.833  10.693  1.00  0.00     0.364 C 
ATOM     18  O   UNL     1      29.913  37.690  11.534  1.00  0.00    -0.246 OA
BRANCH  17  19
ATOM     19  O   UNL     1      27.904  36.976  10.754  1.00  0.00    -0.477 OA
ATOM     20  H   UNL     1      27.073  37.264  10.217  1.00  0.00     0.296 HD
ENDBRANCH  17  19
ENDBRANCH  10  17
BRANCH  13  21
ATOM     21  O   UNL     1      29.252  41.278   8.517  1.00  0.00    -0.391 OA
ATOM     22  H   UNL     1      29.258  41.946   9.244  1.00  0.00     0.211 HD
ENDBRANCH  13  21
BRANCH  14  23
ATOM     23  N   UNL     1      31.971  39.377   7.199  1.00  0.00    -0.348 N 
ATOM     24  C   UNL     1      32.743  39.768   6.073  1.00  0.00     0.217 C 
ATOM     25  H   UNL     1      32.455  38.816   7.965  1.00  0.00     0.163 HD
ATOM     26  C   UNL     1      34.171  39.376   6.023  1.00  0.00     0.114 C 
ATOM     27  O   UNL     1      32.181  40.430   5.162  1.00  0.00    -0.275 OA
ENDBRANCH  14  23
ENDBRANCH   8   9
BRANCH   8  28
ATOM     28  O   UNL     1      29.404  39.276   5.309  1.00  0.00    -0.388 OA
ATOM     29  H   UNL     1      28.624  39.629   4.832  1.00  0.00     0.211 HD
ENDBRANCH   8  28
ENDBRANCH   7   8
BRANCH   7  30
ATOM     30  O   UNL     1      27.005  37.204   5.558  1.00  0.00    -0.388 OA
ATOM     31  H   UNL     1      26.151  36.899   5.929  1.00  0.00     0.211 HD
ENDBRANCH   7  30
ENDBRANCH   6   7
ENDBRANCH   3   6
ENDBRANCH   1   2
BRANCH   1  32
ATOM     32  C   UNL     1      24.745  40.289   9.951  1.00  0.00     0.294 C 
BRANCH  32  33
ATOM     33  C   UNL     1      24.637  38.846   9.622  1.00  0.00     0.120 A 
ATOM     34  C   UNL     1      23.430  38.142   9.542  1.00  0.00     0.139 A 
ATOM     35  N   UNL     1      25.590  37.937   9.347  1.00  0.00    -0.132 NA
ATOM     36  N   UNL     1      23.694  36.862   9.231  1.00  0.00    -0.240 N 
ATOM     37  N   UNL     1      25.002  36.776   9.121  1.00  0.00    -0.066 NA
BRANCH  36  38
ATOM     38  C   UNL     1      22.733  35.794   9.060  1.00  0.00     0.198 CG0
ATOM     39  G   UNL     1      21.598  36.293   8.227  1.00  0.00     0.000 G0
BRANCH  38  40
ATOM     40  C   UNL     1      22.287  35.251  10.374  1.00  0.00     0.249 C 
ATOM     41  N   UNL     1      21.002  35.021  10.921  1.00  0.00    -0.324 N 
ATOM     42  O   UNL     1      23.255  34.948  11.115  1.00  0.00    -0.272 OA
ATOM     43  H   UNL     1      20.910  34.875  11.949  1.00  0.00     0.170 HD
BRANCH  41  44
ATOM     44  C   UNL     1      19.751  34.961  10.212  1.00  0.00     0.044 A 
ATOM     45  C   UNL     1      19.562  35.042   8.845  1.00  0.00    -0.024 A 
ATOM     46  C   UNL     1      18.698  34.803  11.092  1.00  0.00     0.026 A 
ATOM     47  C   UNL     1      18.292  34.962   8.362  1.00  0.00     0.006 A 
ATOM     48  C   UNL     1      17.413  34.721  10.600  1.00  0.00     0.002 A 
ATOM     49  C   UNL     1      17.226  34.802   9.238  1.00  0.00     0.000 A 
BRANCH  45  50
ATOM     50  C   UNL     1      20.616  35.212   7.809  1.00  0.00     0.040 C 
BRANCH  50  51
ATOM     51  C   UNL     1      21.610  36.302   8.171  1.00  0.00     0.042 CG0
ATOM     52  G   UNL     1      22.711  35.798   9.046  1.00  0.00     0.000 G0
ENDBRANCH  50  51
ENDBRANCH  45  50
ENDBRANCH  41  44
ENDBRANCH  38  40
ENDBRANCH  36  38
ENDBRANCH  32  33
ENDBRANCH   1  32
TORSDOF 15
BEGIN_RES LYS A 131
REMARK  4 active torsions:
REMARK  status: ('A' for Active; 'I' for Inactive)
REMARK    1  A    between atoms: CA   and  CB  
REMARK    2  A    between atoms: CB   and  CG  
REMARK    3  A    between atoms: CG   and  CD  
REMARK    4  A    between atoms: CD   and  CE  
ROOT
ATOM      1  CA  LYS A 131      29.867  25.555  16.977  1.00 20.52     0.186 C 
ENDROOT
BRANCH   1   2
ATOM      2  CB  LYS A 131      28.345  25.722  17.026  1.00 20.94     0.034 C 
BRANCH   2   3
ATOM      3  CG  LYS A 131      27.602  24.398  16.935  1.00 22.96     0.005 C 
BRANCH   3   4
ATOM      4  CD  LYS A 131      26.176  24.516  17.397  1.00 24.33     0.041 C 
BRANCH   4   5
ATOM      5  CE  LYS A 131      25.564  23.124  17.518  1.00 26.91     0.338 C 
ATOM      6  NZ  LYS A 131      24.138  23.148  17.114  1.00 27.40     0.618 N 
ENDBRANCH   4   5
ENDBRANCH   3   4
ENDBRANCH   2   3
ENDBRANCH   1   2
END_RES LYS A 131
BEGIN_RES LYS A 135
REMARK  4 active torsions:
REMARK  status: ('A' for Active; 'I' for Inactive)
REMARK    5  A    between atoms: CA   and  CB  
REMARK    6  A    between atoms: CB   and  CG  
REMARK    7  A    between atoms: CG   and  CD  
REMARK    8  A    between atoms: CD   and  CE  
ROOT
ATOM      7  CA  LYS A 135      33.193  34.663   9.290  1.00 25.02     0.186 C 
ENDROOT
BRANCH   7   8
ATOM      8  CB  LYS A 135      32.060  35.360  10.034  1.00 26.63     0.034 C 
BRANCH   8   9
ATOM      9  CG  LYS A 135      30.711  34.730   9.804  1.00 29.45     0.005 C 
BRANCH   9  10
ATOM     10  CD  LYS A 135      30.470  34.505   8.319  1.00 32.00     0.041 C 
BRANCH  10  11
ATOM     11  CE  LYS A 135      29.038  34.847   7.954  1.00 34.25     0.338 C 
ATOM     12  NZ  LYS A 135      28.076  34.182   8.876  1.00 35.99     0.618 N 
ENDBRANCH  10  11
ENDBRANCH   9  10
ENDBRANCH   8   9
ENDBRANCH   7   8
END_RES LYS A 135
