REMARK VINA RESULT:    -3.997      7.267     12.405
REMARK INTER + INTRA:         -13.962
REMARK INTER:                  -8.416
REMARK INTRA:                  -5.546
REMARK UNBOUND:                -5.875
REMARK SMILES CC[N+](C)(CC)CCCn1cc(COC(=O)NC[C@@H](O)C(O)[C@@H]2O[C@@](O)(C(=O)O)C[C@H](O)[C@H]2NC(C)=O)nn1
REMARK SMILES IDX 14 1 15 2 17 3 16 5 18 6 19 7 21 8 23 9 25 10 30 11 24 12
REMARK SMILES IDX 31 13 33 14 26 15 27 17 28 18 29 19 32 21 34 23 35 24 36 26
REMARK SMILES IDX 37 27 22 28 20 30 13 32 12 33 11 34 38 35 10 36 39 37 9 38
REMARK SMILES IDX 8 39 7 40 3 41 4 42 2 43 1 44 5 45 6 46
REMARK H PARENT 17 4 26 16 29 20 32 22 34 25 22 29 20 31
REMARK Flexibility Score: inf
ROOT
ATOM      1  O   UNL     1      26.885  34.373  15.349  1.00  0.00    -0.443 OA
ENDROOT
BRANCH   1   2
ATOM      2  C   UNL     1      25.922  34.401  14.360  1.00  0.00     0.407 C 
ATOM      3  N   UNL     1      26.258  34.409  12.969  1.00  0.00    -0.319 N 
ATOM      4  H   UNL     1      27.259  34.382  12.748  1.00  0.00     0.167 HD
ATOM      5  O   UNL     1      24.715  34.422  14.696  1.00  0.00    -0.225 OA
BRANCH   3   6
ATOM      6  C   UNL     1      25.213  34.438  12.014  1.00  0.00     0.154 C 
BRANCH   6   7
ATOM      7  C   UNL     1      24.932  35.752  11.363  1.00  0.00     0.165 C 
BRANCH   7   8
ATOM      8  C   UNL     1      24.659  35.703   9.892  1.00  0.00     0.176 C 
BRANCH   8   9
ATOM      9  C   UNL     1      23.496  36.532   9.435  1.00  0.00     0.178 C 
ATOM     10  C   UNL     1      21.609  36.449   8.125  1.00  0.00     0.269 C 
ATOM     11  C   UNL     1      21.372  37.743   8.881  1.00  0.00     0.112 C 
ATOM     12  O   UNL     1      22.731  35.791   8.568  1.00  0.00    -0.332 OA
ATOM     13  C   UNL     1      22.541  38.666   8.730  1.00  0.00     0.145 C 
ATOM     14  C   UNL     1      23.834  37.855   8.842  1.00  0.00     0.142 C 
BRANCH  10  15
ATOM     15  O   UNL     1      21.803  36.793   6.774  1.00  0.00    -0.357 OA
ATOM     16  H   UNL     1      22.715  36.475   6.544  1.00  0.00     0.214 HD
ENDBRANCH  10  15
BRANCH  10  17
ATOM     17  C   UNL     1      20.420  35.589   8.223  1.00  0.00     0.364 C 
ATOM     18  O   UNL     1      19.461  35.910   8.979  1.00  0.00    -0.246 OA
BRANCH  17  19
ATOM     19  O   UNL     1      20.313  34.417   7.502  1.00  0.00    -0.477 OA
ATOM     20  H   UNL     1      20.036  33.559   7.941  1.00  0.00     0.296 HD
ENDBRANCH  17  19
ENDBRANCH  10  17
BRANCH  13  21
ATOM     21  O   UNL     1      22.462  39.288   7.477  1.00  0.00    -0.391 OA
ATOM     22  H   UNL     1      23.248  39.861   7.346  1.00  0.00     0.211 HD
ENDBRANCH  13  21
BRANCH  14  23
ATOM     23  N   UNL     1      24.682  38.652   9.734  1.00  0.00    -0.348 N 
ATOM     24  C   UNL     1      25.481  39.700   9.218  1.00  0.00     0.217 C 
ATOM     25  H   UNL     1      24.687  38.434  10.757  1.00  0.00     0.163 HD
ATOM     26  C   UNL     1      26.344  40.503  10.141  1.00  0.00     0.114 C 
ATOM     27  O   UNL     1      25.510  40.010   7.987  1.00  0.00    -0.275 OA
ENDBRANCH  14  23
ENDBRANCH   8   9
BRANCH   8  28
ATOM     28  O   UNL     1      25.823  36.071   9.202  1.00  0.00    -0.388 OA
ATOM     29  H   UNL     1      26.331  35.233   9.018  1.00  0.00     0.211 HD
ENDBRANCH   8  28
ENDBRANCH   7   8
BRANCH   7  30
ATOM     30  O   UNL     1      26.051  36.575  11.617  1.00  0.00    -0.388 OA
ATOM     31  H   UNL     1      26.898  36.116  11.447  1.00  0.00     0.211 HD
ENDBRANCH   7  30
ENDBRANCH   6   7
ENDBRANCH   3   6
ENDBRANCH   1   2
BRANCH   1  32
ATOM     32  C   UNL     1      27.728  35.504  15.519  1.00  0.00     0.294 C 
BRANCH  32  33
ATOM     33  C   UNL     1      28.937  35.363  14.676  1.00  0.00     0.120 A 
ATOM     34  C   UNL     1      29.803  36.325  14.204  1.00  0.00     0.138 A 
ATOM     35  N   UNL     1      29.427  34.200  14.194  1.00  0.00    -0.132 NA
ATOM     36  N   UNL     1      30.773  35.751  13.466  1.00  0.00    -0.252 N 
ATOM     37  N   UNL     1      30.507  34.461  13.486  1.00  0.00    -0.067 NA
BRANCH  36  38
ATOM     38  C   UNL     1      31.869  36.358  12.785  1.00  0.00     0.152 C 
BRANCH  38  39
ATOM     39  C   UNL     1      31.587  37.717  12.268  1.00  0.00     0.085 C 
BRANCH  39  40
ATOM     40  C   UNL     1      32.001  38.053  10.896  1.00  0.00     0.265 C 
BRANCH  40  41
ATOM     41  N   UNL     1      31.138  38.743  10.028  1.00  0.00    -0.326 N 
ATOM     42  C   UNL     1      30.950  38.188   8.714  1.00  0.00     0.334 C 
BRANCH  41  43
ATOM     43  C   UNL     1      29.801  38.674  10.651  1.00  0.00     0.260 C 
ATOM     44  C   UNL     1      28.790  37.943   9.855  1.00  0.00     0.071 C 
ENDBRANCH  41  43
BRANCH  41  45
ATOM     45  C   UNL     1      31.439  40.140   9.890  1.00  0.00     0.260 C 
ATOM     46  C   UNL     1      31.401  40.923  11.152  1.00  0.00     0.071 C 
ENDBRANCH  41  45
ENDBRANCH  40  41
ENDBRANCH  39  40
ENDBRANCH  38  39
ENDBRANCH  36  38
ENDBRANCH  32  33
ENDBRANCH   1  32
TORSDOF 20
BEGIN_RES LYS A 131
REMARK  4 active torsions:
REMARK  status: ('A' for Active; 'I' for Inactive)
REMARK    1  A    between atoms: CA   and  CB  
REMARK    2  A    between atoms: CB   and  CG  
REMARK    3  A    between atoms: CG   and  CD  
REMARK    4  A    between atoms: CD   and  CE  
ROOT
ATOM      1  CA  LYS A 131      29.867  25.555  16.977  1.00 20.52     0.186 C 
ENDROOT
BRANCH   1   2
ATOM      2  CB  LYS A 131      28.345  25.722  17.026  1.00 20.94     0.034 C 
BRANCH   2   3
ATOM      3  CG  LYS A 131      27.599  24.442  16.683  1.00 22.96     0.005 C 
BRANCH   3   4
ATOM      4  CD  LYS A 131      26.704  23.990  17.804  1.00 24.33     0.041 C 
BRANCH   4   5
ATOM      5  CE  LYS A 131      25.251  24.031  17.343  1.00 26.91     0.338 C 
ATOM      6  NZ  LYS A 131      24.635  22.687  17.445  1.00 27.40     0.618 N 
ENDBRANCH   4   5
ENDBRANCH   3   4
ENDBRANCH   2   3
ENDBRANCH   1   2
END_RES LYS A 131
BEGIN_RES LYS A 135
REMARK  4 active torsions:
REMARK  status: ('A' for Active; 'I' for Inactive)
REMARK    5  A    between atoms: CA   and  CB  
REMARK    6  A    between atoms: CB   and  CG  
REMARK    7  A    between atoms: CG   and  CD  
REMARK    8  A    between atoms: CD   and  CE  
ROOT
ATOM      7  CA  LYS A 135      33.193  34.663   9.290  1.00 25.02     0.186 C 
ENDROOT
BRANCH   7   8
ATOM      8  CB  LYS A 135      32.060  35.360  10.034  1.00 26.63     0.034 C 
BRANCH   8   9
ATOM      9  CG  LYS A 135      30.713  34.722   9.814  1.00 29.45     0.005 C 
BRANCH   9  10
ATOM     10  CD  LYS A 135      30.451  34.519   8.330  1.00 32.00     0.041 C 
BRANCH  10  11
ATOM     11  CE  LYS A 135      28.996  34.797   8.002  1.00 34.25     0.338 C 
ATOM     12  NZ  LYS A 135      28.867  35.524   6.709  1.00 35.99     0.618 N 
ENDBRANCH  10  11
ENDBRANCH   9  10
ENDBRANCH   8   9
ENDBRANCH   7   8
END_RES LYS A 135
