REMARK VINA RESULT:    -5.546      0.000      0.000
REMARK INTER + INTRA:         -14.625
REMARK INTER:                  -9.027
REMARK INTRA:                  -5.597
REMARK UNBOUND:                -5.026
REMARK SMILES CC(=O)N[C@@H]1[C@@H](O)C[C@](O)(C(=O)O)O[C@H]1C(O)[C@H](O)CNC(=O)OCc1cn(C2CCCC2)nn1
REMARK SMILES IDX 20 1 18 2 16 3 15 4 9 5 8 6 14 7 6 8 5 9 10 10 11 12 12 13
REMARK SMILES IDX 13 14 7 16 4 18 2 19 1 21 3 22 17 23 19 25 21 27 22 28 23 30
REMARK SMILES IDX 24 31 25 32 26 33 27 34 35 35 28 36 34 37 29 38 30 39 33 40
REMARK SMILES IDX 31 41 32 42
REMARK H PARENT 10 11 13 15 7 17 4 20 17 24 19 26 21 29
REMARK Flexibility Score: inf
ROOT
ATOM      1  C   UNL     1      30.377  31.392  17.806  1.00  0.00     0.154 C 
ENDROOT
BRANCH   1   2
ATOM      2  C   UNL     1      30.555  31.937  16.417  1.00  0.00     0.165 C 
BRANCH   2   3
ATOM      3  C   UNL     1      29.769  33.232  16.361  1.00  0.00     0.176 C 
BRANCH   3   4
ATOM      4  C   UNL     1      30.422  34.264  15.499  1.00  0.00     0.178 C 
ATOM      5  C   UNL     1      30.744  34.803  13.268  1.00  0.00     0.269 C 
ATOM      6  C   UNL     1      31.514  35.940  13.922  1.00  0.00     0.112 C 
ATOM      7  O   UNL     1      30.569  33.793  14.216  1.00  0.00    -0.332 OA
ATOM      8  C   UNL     1      32.523  35.307  14.858  1.00  0.00     0.145 C 
ATOM      9  C   UNL     1      31.732  34.764  16.042  1.00  0.00     0.142 C 
BRANCH   5  10
ATOM     10  O   UNL     1      31.521  34.357  12.206  1.00  0.00    -0.357 OA
ATOM     11  H   UNL     1      31.053  33.554  11.819  1.00  0.00     0.214 HD
ENDBRANCH   5  10
BRANCH   5  12
ATOM     12  C   UNL     1      29.442  35.243  12.753  1.00  0.00     0.364 C 
ATOM     13  O   UNL     1      28.408  34.543  12.895  1.00  0.00    -0.246 OA
BRANCH  12  14
ATOM     14  O   UNL     1      29.315  36.452  12.089  1.00  0.00    -0.477 OA
ATOM     15  H   UNL     1      29.977  37.227  12.226  1.00  0.00     0.296 HD
ENDBRANCH  12  14
ENDBRANCH   5  12
BRANCH   8  16
ATOM     16  O   UNL     1      33.110  34.238  14.159  1.00  0.00    -0.391 OA
ATOM     17  H   UNL     1      33.964  34.576  13.780  1.00  0.00     0.211 HD
ENDBRANCH   8  16
BRANCH   9  18
ATOM     18  N   UNL     1      31.554  35.830  17.007  1.00  0.00    -0.348 N 
ATOM     19  C   UNL     1      31.822  35.620  18.378  1.00  0.00     0.217 C 
ATOM     20  H   UNL     1      31.228  36.763  16.697  1.00  0.00     0.163 HD
ATOM     21  C   UNL     1      31.662  36.665  19.419  1.00  0.00     0.114 C 
ATOM     22  O   UNL     1      32.217  34.487  18.736  1.00  0.00    -0.275 OA
ENDBRANCH   9  18
ENDBRANCH   3   4
BRANCH   3  23
ATOM     23  O   UNL     1      28.532  32.920  15.793  1.00  0.00    -0.388 OA
ATOM     24  H   UNL     1      27.829  33.566  16.002  1.00  0.00     0.211 HD
ENDBRANCH   3  23
ENDBRANCH   2   3
BRANCH   2  25
ATOM     25  O   UNL     1      30.093  31.069  15.456  1.00  0.00    -0.388 OA
ATOM     26  H   UNL     1      29.809  31.585  14.655  1.00  0.00     0.211 HD
ENDBRANCH   2  25
ENDBRANCH   1   2
BRANCH   1  27
ATOM     27  N   UNL     1      29.368  30.393  17.960  1.00  0.00    -0.319 N 
ATOM     28  C   UNL     1      28.263  30.460  18.816  1.00  0.00     0.407 C 
ATOM     29  H   UNL     1      29.479  29.516  17.358  1.00  0.00     0.167 HD
ATOM     30  O   UNL     1      28.091  31.461  19.547  1.00  0.00    -0.225 OA
BRANCH  28  31
ATOM     31  O   UNL     1      27.335  29.403  18.862  1.00  0.00    -0.443 OA
BRANCH  31  32
ATOM     32  C   UNL     1      27.184  28.621  17.692  1.00  0.00     0.294 C 
BRANCH  32  33
ATOM     33  C   UNL     1      26.543  29.457  16.654  1.00  0.00     0.120 A 
ATOM     34  C   UNL     1      25.190  29.398  16.345  1.00  0.00     0.138 A 
ATOM     35  N   UNL     1      27.062  30.375  15.847  1.00  0.00    -0.132 NA
ATOM     36  N   UNL     1      24.959  30.280  15.372  1.00  0.00    -0.249 N 
ATOM     37  N   UNL     1      26.103  30.866  15.078  1.00  0.00    -0.067 NA
BRANCH  36  38
ATOM     38  C   UNL     1      23.645  30.505  14.780  1.00  0.00     0.109 C 
ATOM     39  C   UNL     1      23.852  30.875  13.339  1.00  0.00     0.027 C 
ATOM     40  C   UNL     1      22.872  29.205  14.799  1.00  0.00     0.027 C 
ATOM     41  C   UNL     1      23.070  29.894  12.526  1.00  0.00     0.002 C 
ATOM     42  C   UNL     1      23.020  28.663  13.389  1.00  0.00     0.002 C 
ENDBRANCH  36  38
ENDBRANCH  32  33
ENDBRANCH  31  32
ENDBRANCH  28  31
ENDBRANCH   1  27
TORSDOF 15
BEGIN_RES LYS A 131
REMARK  4 active torsions:
REMARK  status: ('A' for Active; 'I' for Inactive)
REMARK    1  A    between atoms: CA   and  CB  
REMARK    2  A    between atoms: CB   and  CG  
REMARK    3  A    between atoms: CG   and  CD  
REMARK    4  A    between atoms: CD   and  CE  
ROOT
ATOM      1  CA  LYS A 131      29.867  25.555  16.977  1.00 20.52     0.186 C 
ENDROOT
BRANCH   1   2
ATOM      2  CB  LYS A 131      28.345  25.722  17.026  1.00 20.94     0.034 C 
BRANCH   2   3
ATOM      3  CG  LYS A 131      27.602  24.398  16.935  1.00 22.96     0.005 C 
BRANCH   3   4
ATOM      4  CD  LYS A 131      26.143  24.543  17.266  1.00 24.33     0.041 C 
BRANCH   4   5
ATOM      5  CE  LYS A 131      25.991  24.955  18.727  1.00 26.91     0.338 C 
ATOM      6  NZ  LYS A 131      24.860  25.900  18.885  1.00 27.40     0.618 N 
ENDBRANCH   4   5
ENDBRANCH   3   4
ENDBRANCH   2   3
ENDBRANCH   1   2
END_RES LYS A 131
BEGIN_RES LYS A 135
REMARK  4 active torsions:
REMARK  status: ('A' for Active; 'I' for Inactive)
REMARK    5  A    between atoms: CA   and  CB  
REMARK    6  A    between atoms: CB   and  CG  
REMARK    7  A    between atoms: CG   and  CD  
REMARK    8  A    between atoms: CD   and  CE  
ROOT
ATOM      7  CA  LYS A 135      33.193  34.663   9.290  1.00 25.02     0.186 C 
ENDROOT
BRANCH   7   8
ATOM      8  CB  LYS A 135      32.060  35.360  10.034  1.00 26.63     0.034 C 
BRANCH   8   9
ATOM      9  CG  LYS A 135      30.817  35.545   9.202  1.00 29.45     0.005 C 
BRANCH   9  10
ATOM     10  CD  LYS A 135      30.082  34.224   9.034  1.00 32.00     0.041 C 
BRANCH  10  11
ATOM     11  CE  LYS A 135      28.619  34.466   8.715  1.00 34.25     0.338 C 
ATOM     12  NZ  LYS A 135      27.736  33.661   9.604  1.00 35.99     0.618 N 
ENDBRANCH  10  11
ENDBRANCH   9  10
ENDBRANCH   8   9
ENDBRANCH   7   8
END_RES LYS A 135
