REMARK VINA RESULT:    -4.016      2.040      2.779
REMARK INTER + INTRA:         -14.298
REMARK INTER:                  -7.435
REMARK INTRA:                  -6.863
REMARK UNBOUND:                -5.938
REMARK SMILES CCOC(CCn1cc(COC(=O)NC[C@@H](O)C(O)[C@@H]2O[C@@](O)(C(=O)O)C[C@H](O)[C@H]2NC(C)=O)nn1)OCC
REMARK SMILES IDX 11 1 12 2 14 3 13 5 15 6 16 7 18 8 20 9 22 10 27 11 21 12
REMARK SMILES IDX 28 13 30 14 23 15 24 17 25 18 26 19 29 21 31 23 32 24 33 26
REMARK SMILES IDX 34 27 19 28 17 30 10 32 9 33 8 34 35 35 7 36 36 37 6 38 5 39
REMARK SMILES IDX 4 40 3 41 2 42 1 43 37 44 38 45 39 46
REMARK H PARENT 14 4 23 16 26 20 29 22 31 25 19 29 17 31
REMARK Flexibility Score: inf
ROOT
ATOM      1  O   UNL     1      26.734  30.311  17.326  1.00  0.00    -0.443 OA
ENDROOT
BRANCH   1   2
ATOM      2  C   UNL     1      26.662  29.165  18.131  1.00  0.00     0.407 C 
ATOM      3  N   UNL     1      27.819  28.554  18.660  1.00  0.00    -0.319 N 
ATOM      4  H   UNL     1      28.740  29.037  18.412  1.00  0.00     0.167 HD
ATOM      5  O   UNL     1      25.544  28.701  18.364  1.00  0.00    -0.225 OA
BRANCH   3   6
ATOM      6  C   UNL     1      27.891  27.385  19.477  1.00  0.00     0.154 C 
BRANCH   6   7
ATOM      7  C   UNL     1      27.882  27.734  20.938  1.00  0.00     0.165 C 
BRANCH   7   8
ATOM      8  C   UNL     1      29.330  28.055  21.302  1.00  0.00     0.176 C 
BRANCH   8   9
ATOM      9  C   UNL     1      29.495  29.477  21.739  1.00  0.00     0.178 C 
ATOM     10  C   UNL     1      29.787  31.579  20.803  1.00  0.00     0.269 C 
ATOM     11  C   UNL     1      30.273  32.049  22.134  1.00  0.00     0.112 C 
ATOM     12  O   UNL     1      29.060  30.398  20.832  1.00  0.00    -0.332 OA
ATOM     13  C   UNL     1      30.911  30.989  22.985  1.00  0.00     0.145 C 
ATOM     14  C   UNL     1      30.937  29.712  22.175  1.00  0.00     0.142 C 
BRANCH  10  15
ATOM     15  O   UNL     1      30.843  31.515  19.889  1.00  0.00    -0.357 OA
ATOM     16  H   UNL     1      31.099  32.463  19.682  1.00  0.00     0.214 HD
ENDBRANCH  10  15
BRANCH  10  17
ATOM     17  C   UNL     1      28.846  32.622  20.304  1.00  0.00     0.364 C 
ATOM     18  O   UNL     1      28.855  33.779  20.776  1.00  0.00    -0.246 OA
BRANCH  17  19
ATOM     19  O   UNL     1      27.936  32.280  19.285  1.00  0.00    -0.477 OA
ATOM     20  H   UNL     1      27.861  31.285  19.084  1.00  0.00     0.296 HD
ENDBRANCH  17  19
ENDBRANCH  10  17
BRANCH  13  21
ATOM     21  O   UNL     1      32.166  31.345  23.461  1.00  0.00    -0.391 OA
ATOM     22  H   UNL     1      32.183  31.095  24.420  1.00  0.00     0.211 HD
ENDBRANCH  13  21
BRANCH  14  23
ATOM     23  N   UNL     1      31.344  28.570  22.968  1.00  0.00    -0.348 N 
ATOM     24  C   UNL     1      32.712  28.189  22.988  1.00  0.00     0.217 C 
ATOM     25  H   UNL     1      30.692  28.000  23.534  1.00  0.00     0.163 HD
ATOM     26  C   UNL     1      33.217  27.041  23.768  1.00  0.00     0.114 C 
ATOM     27  O   UNL     1      33.535  28.863  22.309  1.00  0.00    -0.275 OA
ENDBRANCH  14  23
ENDBRANCH   8   9
BRANCH   8  28
ATOM     28  O   UNL     1      30.135  27.737  20.221  1.00  0.00    -0.388 OA
ATOM     29  H   UNL     1      30.556  26.838  20.304  1.00  0.00     0.211 HD
ENDBRANCH   8  28
ENDBRANCH   7   8
BRANCH   7  30
ATOM     30  O   UNL     1      27.510  26.655  21.698  1.00  0.00    -0.388 OA
ATOM     31  H   UNL     1      28.085  25.860  21.556  1.00  0.00     0.211 HD
ENDBRANCH   7  30
ENDBRANCH   6   7
ENDBRANCH   3   6
ENDBRANCH   1   2
BRANCH   1  32
ATOM     32  C   UNL     1      27.463  30.284  16.102  1.00  0.00     0.294 C 
BRANCH  32  33
ATOM     33  C   UNL     1      28.796  30.877  16.316  1.00  0.00     0.120 A 
ATOM     34  C   UNL     1      29.364  31.773  15.405  1.00  0.00     0.138 A 
ATOM     35  N   UNL     1      29.694  30.750  17.282  1.00  0.00    -0.132 NA
ATOM     36  N   UNL     1      30.577  32.141  15.867  1.00  0.00    -0.252 N 
ATOM     37  N   UNL     1      30.755  31.516  16.995  1.00  0.00    -0.067 NA
BRANCH  36  38
ATOM     38  C   UNL     1      31.451  33.053  15.184  1.00  0.00     0.151 C 
BRANCH  38  39
ATOM     39  C   UNL     1      32.074  34.077  16.103  1.00  0.00     0.086 C 
BRANCH  39  40
ATOM     40  C   UNL     1      31.158  35.218  16.416  1.00  0.00     0.251 C 
BRANCH  40  41
ATOM     41  O   UNL     1      31.929  36.364  16.579  1.00  0.00    -0.353 OA
BRANCH  41  42
ATOM     42  C   UNL     1      32.023  37.059  15.367  1.00  0.00     0.160 C 
ATOM     43  C   UNL     1      30.667  37.291  14.754  1.00  0.00     0.035 C 
ENDBRANCH  41  42
ENDBRANCH  40  41
BRANCH  40  44
ATOM     44  O   UNL     1      30.419  35.012  17.552  1.00  0.00    -0.353 OA
BRANCH  44  45
ATOM     45  C   UNL     1      29.047  35.048  17.307  1.00  0.00     0.160 C 
ATOM     46  C   UNL     1      28.426  36.150  18.158  1.00  0.00     0.035 C 
ENDBRANCH  44  45
ENDBRANCH  40  44
ENDBRANCH  39  40
ENDBRANCH  38  39
ENDBRANCH  36  38
ENDBRANCH  32  33
ENDBRANCH   1  32
TORSDOF 21
BEGIN_RES LYS A 131
REMARK  4 active torsions:
REMARK  status: ('A' for Active; 'I' for Inactive)
REMARK    1  A    between atoms: CA   and  CB  
REMARK    2  A    between atoms: CB   and  CG  
REMARK    3  A    between atoms: CG   and  CD  
REMARK    4  A    between atoms: CD   and  CE  
ROOT
ATOM      1  CA  LYS A 131      29.867  25.555  16.977  1.00 20.52     0.186 C 
ENDROOT
BRANCH   1   2
ATOM      2  CB  LYS A 131      28.345  25.722  17.026  1.00 20.94     0.034 C 
BRANCH   2   3
ATOM      3  CG  LYS A 131      27.601  24.401  16.906  1.00 22.96     0.005 C 
BRANCH   3   4
ATOM      4  CD  LYS A 131      26.561  24.237  17.978  1.00 24.33     0.041 C 
BRANCH   4   5
ATOM      5  CE  LYS A 131      25.420  25.219  17.735  1.00 26.91     0.338 C 
ATOM      6  NZ  LYS A 131      24.536  25.292  18.922  1.00 27.40     0.618 N 
ENDBRANCH   4   5
ENDBRANCH   3   4
ENDBRANCH   2   3
ENDBRANCH   1   2
END_RES LYS A 131
BEGIN_RES LYS A 135
REMARK  4 active torsions:
REMARK  status: ('A' for Active; 'I' for Inactive)
REMARK    5  A    between atoms: CA   and  CB  
REMARK    6  A    between atoms: CB   and  CG  
REMARK    7  A    between atoms: CG   and  CD  
REMARK    8  A    between atoms: CD   and  CE  
ROOT
ATOM      7  CA  LYS A 135      33.193  34.663   9.290  1.00 25.02     0.186 C 
ENDROOT
BRANCH   7   8
ATOM      8  CB  LYS A 135      32.060  35.360  10.034  1.00 26.63     0.034 C 
BRANCH   8   9
ATOM      9  CG  LYS A 135      30.710  35.167   9.393  1.00 29.45     0.005 C 
BRANCH   9  10
ATOM     10  CD  LYS A 135      29.627  35.031  10.453  1.00 32.00     0.041 C 
BRANCH  10  11
ATOM     11  CE  LYS A 135      30.244  34.947  11.836  1.00 34.25     0.338 C 
ATOM     12  NZ  LYS A 135      29.227  34.564  12.855  1.00 35.99     0.618 N 
ENDBRANCH  10  11
ENDBRANCH   9  10
ENDBRANCH   8   9
ENDBRANCH   7   8
END_RES LYS A 135
