REMARK VINA RESULT:    -5.101      5.212      8.304
REMARK INTER + INTRA:         -13.989
REMARK INTER:                  -8.828
REMARK INTRA:                  -5.161
REMARK UNBOUND:                -5.161
REMARK SMILES CC(=O)N[C@@H]1[C@@H](O)C[C@](O)(C(=O)O)O[C@H]1C(O)[C@H](O)CNC(=O)OCc1cn(-c2ccc(Br)cc2)nn1
REMARK SMILES IDX 20 1 18 2 16 3 15 4 9 5 8 6 14 7 6 8 5 9 10 10 11 12 12 13
REMARK SMILES IDX 13 14 7 16 4 18 2 19 1 21 3 22 17 23 19 25 21 27 22 28 23 30
REMARK SMILES IDX 24 31 25 32 26 33 27 34 37 35 28 36 36 37 29 38 30 39 35 40
REMARK SMILES IDX 31 41 34 42 32 43 33 44
REMARK H PARENT 10 11 13 15 7 17 4 20 17 24 19 26 21 29
REMARK Flexibility Score: inf
ROOT
ATOM      1  C   UNL     1      29.994  33.684  17.478  1.00  0.00     0.154 C 
ENDROOT
BRANCH   1   2
ATOM      2  C   UNL     1      31.183  32.889  17.027  1.00  0.00     0.165 C 
BRANCH   2   3
ATOM      3  C   UNL     1      31.755  33.284  15.712  1.00  0.00     0.176 C 
BRANCH   3   4
ATOM      4  C   UNL     1      31.140  34.533  15.114  1.00  0.00     0.178 C 
ATOM      5  C   UNL     1      29.524  35.005  13.481  1.00  0.00     0.269 C 
ATOM      6  C   UNL     1      30.357  36.216  13.168  1.00  0.00     0.112 C 
ATOM      7  O   UNL     1      30.225  34.080  14.172  1.00  0.00    -0.332 OA
ATOM      8  C   UNL     1      31.799  35.775  13.069  1.00  0.00     0.145 C 
ATOM      9  C   UNL     1      32.235  35.340  14.474  1.00  0.00     0.142 C 
BRANCH   5  10
ATOM     10  O   UNL     1      29.133  34.392  12.257  1.00  0.00    -0.357 OA
ATOM     11  H   UNL     1      29.958  33.951  11.923  1.00  0.00     0.214 HD
ENDBRANCH   5  10
BRANCH   5  12
ATOM     12  C   UNL     1      28.291  35.368  14.234  1.00  0.00     0.364 C 
ATOM     13  O   UNL     1      27.835  36.523  14.285  1.00  0.00    -0.246 OA
BRANCH  12  14
ATOM     14  O   UNL     1      27.612  34.374  14.918  1.00  0.00    -0.477 OA
ATOM     15  H   UNL     1      26.874  34.572  15.595  1.00  0.00     0.296 HD
ENDBRANCH  12  14
ENDBRANCH   5  12
BRANCH   8  16
ATOM     16  O   UNL     1      31.831  34.627  12.280  1.00  0.00    -0.391 OA
ATOM     17  H   UNL     1      31.630  34.794  11.339  1.00  0.00     0.211 HD
ENDBRANCH   8  16
BRANCH   9  18
ATOM     18  N   UNL     1      32.417  36.561  15.208  1.00  0.00    -0.348 N 
ATOM     19  C   UNL     1      33.391  36.744  16.219  1.00  0.00     0.217 C 
ATOM     20  H   UNL     1      31.803  37.392  15.005  1.00  0.00     0.163 HD
ATOM     21  C   UNL     1      33.540  38.034  16.957  1.00  0.00     0.114 C 
ATOM     22  O   UNL     1      34.153  35.798  16.503  1.00  0.00    -0.275 OA
ENDBRANCH   9  18
ENDBRANCH   3   4
BRANCH   3  23
ATOM     23  O   UNL     1      31.588  32.196  14.819  1.00  0.00    -0.388 OA
ATOM     24  H   UNL     1      32.354  31.597  14.948  1.00  0.00     0.211 HD
ENDBRANCH   3  23
ENDBRANCH   2   3
BRANCH   2  25
ATOM     25  O   UNL     1      30.781  31.538  16.956  1.00  0.00    -0.388 OA
ATOM     26  H   UNL     1      30.033  31.426  16.319  1.00  0.00     0.211 HD
ENDBRANCH   2  25
ENDBRANCH   1   2
BRANCH   1  27
ATOM     27  N   UNL     1      28.745  32.997  17.453  1.00  0.00    -0.319 N 
ATOM     28  C   UNL     1      28.068  32.683  18.687  1.00  0.00     0.407 C 
ATOM     29  H   UNL     1      28.239  32.674  16.603  1.00  0.00     0.167 HD
ATOM     30  O   UNL     1      28.619  33.033  19.758  1.00  0.00    -0.225 OA
BRANCH  28  31
ATOM     31  O   UNL     1      26.853  32.016  18.693  1.00  0.00    -0.443 OA
BRANCH  31  32
ATOM     32  C   UNL     1      26.852  30.710  18.132  1.00  0.00     0.294 C 
BRANCH  32  33
ATOM     33  C   UNL     1      26.110  30.796  16.841  1.00  0.00     0.121 A 
ATOM     34  C   UNL     1      24.977  30.085  16.494  1.00  0.00     0.144 A 
ATOM     35  N   UNL     1      26.385  31.568  15.774  1.00  0.00    -0.131 NA
ATOM     36  N   UNL     1      24.605  30.438  15.252  1.00  0.00    -0.220 N 
ATOM     37  N   UNL     1      25.480  31.334  14.855  1.00  0.00    -0.062 NA
BRANCH  36  38
ATOM     38  C   UNL     1      23.508  29.982  14.466  1.00  0.00     0.066 A 
ATOM     39  C   UNL     1      22.221  29.913  14.965  1.00  0.00     0.029 A 
ATOM     40  C   UNL     1      23.690  29.588  13.157  1.00  0.00     0.029 A 
ATOM     41  C   UNL     1      21.165  29.470  14.190  1.00  0.00     0.018 A 
ATOM     42  C   UNL     1      22.633  29.141  12.374  1.00  0.00     0.018 A 
ATOM     43  C   UNL     1      21.355  29.075  12.877  1.00  0.00     0.018 A 
ATOM     44  Br  UNL     1      19.864  28.472  11.855  1.00  0.00    -0.051 Br
ENDBRANCH  36  38
ENDBRANCH  32  33
ENDBRANCH  31  32
ENDBRANCH  28  31
ENDBRANCH   1  27
TORSDOF 15
BEGIN_RES LYS A 131
REMARK  4 active torsions:
REMARK  status: ('A' for Active; 'I' for Inactive)
REMARK    1  A    between atoms: CA   and  CB  
REMARK    2  A    between atoms: CB   and  CG  
REMARK    3  A    between atoms: CG   and  CD  
REMARK    4  A    between atoms: CD   and  CE  
ROOT
ATOM      1  CA  LYS A 131      29.867  25.555  16.977  1.00 20.52     0.186 C 
ENDROOT
BRANCH   1   2
ATOM      2  CB  LYS A 131      28.345  25.722  17.026  1.00 20.94     0.034 C 
BRANCH   2   3
ATOM      3  CG  LYS A 131      27.601  24.402  16.896  1.00 22.96     0.005 C 
BRANCH   3   4
ATOM      4  CD  LYS A 131      26.339  24.380  17.713  1.00 24.33     0.041 C 
BRANCH   4   5
ATOM      5  CE  LYS A 131      26.090  25.765  18.302  1.00 26.91     0.338 C 
ATOM      6  NZ  LYS A 131      25.882  25.675  19.767  1.00 27.40     0.618 N 
ENDBRANCH   4   5
ENDBRANCH   3   4
ENDBRANCH   2   3
ENDBRANCH   1   2
END_RES LYS A 131
BEGIN_RES LYS A 135
REMARK  4 active torsions:
REMARK  status: ('A' for Active; 'I' for Inactive)
REMARK    5  A    between atoms: CA   and  CB  
REMARK    6  A    between atoms: CB   and  CG  
REMARK    7  A    between atoms: CG   and  CD  
REMARK    8  A    between atoms: CD   and  CE  
ROOT
ATOM      7  CA  LYS A 135      33.193  34.663   9.290  1.00 25.02     0.186 C 
ENDROOT
BRANCH   7   8
ATOM      8  CB  LYS A 135      32.060  35.360  10.034  1.00 26.63     0.034 C 
BRANCH   8   9
ATOM      9  CG  LYS A 135      30.847  35.620   9.178  1.00 29.45     0.005 C 
BRANCH   9  10
ATOM     10  CD  LYS A 135      30.086  34.330   8.919  1.00 32.00     0.041 C 
BRANCH  10  11
ATOM     11  CE  LYS A 135      28.631  34.623   8.606  1.00 34.25     0.338 C 
ATOM     12  NZ  LYS A 135      27.726  33.716   9.365  1.00 35.99     0.618 N 
ENDBRANCH  10  11
ENDBRANCH   9  10
ENDBRANCH   8   9
ENDBRANCH   7   8
END_RES LYS A 135
