REMARK VINA RESULT:    -4.579      3.342      8.524
REMARK INTER + INTRA:         -14.380
REMARK INTER:                  -8.535
REMARK INTRA:                  -5.845
REMARK UNBOUND:                -6.187
REMARK SMILES CC(=O)N[C@@H]1[C@@H](O)C[C@](O)(C(=O)O)O[C@H]1C(O)[C@H](O)CNC(=O)OCc1cn(-c2cc(Cl)ccc2C(=O)N(C)C)nn1
REMARK SMILES IDX 21 1 22 2 23 3 20 5 18 6 16 7 15 8 9 9 8 10 14 11 6 12 5 13
REMARK SMILES IDX 10 14 11 16 12 17 13 18 7 20 4 22 2 23 1 25 3 26 17 27 19 29
REMARK SMILES IDX 24 31 25 32 26 33 27 34 42 35 28 36 41 37 29 38 30 39 35 40
REMARK SMILES IDX 31 41 34 42 32 43 33 44 36 45 37 46 38 47 39 48 40 49
REMARK H PARENT 21 4 10 15 13 19 7 21 4 24 17 28 19 30
REMARK Flexibility Score: inf
ROOT
ATOM      1  N   UNL     1      28.219  37.312  10.797  1.00  0.00    -0.319 N 
ATOM      2  C   UNL     1      28.310  38.235   9.743  1.00  0.00     0.407 C 
ATOM      3  O   UNL     1      28.826  39.355   9.930  1.00  0.00    -0.225 OA
ATOM      4  H   UNL     1      27.789  36.375  10.628  1.00  0.00     0.167 HD
ENDROOT
BRANCH   1   5
ATOM      5  C   UNL     1      28.700  37.601  12.122  1.00  0.00     0.154 C 
BRANCH   5   6
ATOM      6  C   UNL     1      29.370  36.380  12.700  1.00  0.00     0.165 C 
BRANCH   6   7
ATOM      7  C   UNL     1      28.410  35.493  13.451  1.00  0.00     0.176 C 
BRANCH   7   8
ATOM      8  C   UNL     1      29.125  34.665  14.451  1.00  0.00     0.178 C 
ATOM      9  C   UNL     1      31.030  33.525  15.026  1.00  0.00     0.269 C 
ATOM     10  C   UNL     1      30.357  33.568  16.375  1.00  0.00     0.112 C 
ATOM     11  O   UNL     1      30.274  34.037  14.001  1.00  0.00    -0.332 OA
ATOM     12  C   UNL     1      28.925  33.144  16.335  1.00  0.00     0.145 C 
ATOM     13  C   UNL     1      28.238  33.569  15.040  1.00  0.00     0.142 C 
BRANCH   9  14
ATOM     14  O   UNL     1      31.261  32.174  14.712  1.00  0.00    -0.357 OA
ATOM     15  H   UNL     1      30.945  31.658  15.515  1.00  0.00     0.214 HD
ENDBRANCH   9  14
BRANCH   9  16
ATOM     16  C   UNL     1      32.318  34.227  15.045  1.00  0.00     0.364 C 
ATOM     17  O   UNL     1      32.653  34.882  16.062  1.00  0.00    -0.246 OA
BRANCH  16  18
ATOM     18  O   UNL     1      33.220  34.221  13.993  1.00  0.00    -0.477 OA
ATOM     19  H   UNL     1      32.820  34.245  13.042  1.00  0.00     0.296 HD
ENDBRANCH  16  18
ENDBRANCH   9  16
BRANCH  12  20
ATOM     20  O   UNL     1      28.874  31.743  16.483  1.00  0.00    -0.391 OA
ATOM     21  H   UNL     1      28.021  31.462  16.056  1.00  0.00     0.211 HD
ENDBRANCH  12  20
BRANCH  13  22
ATOM     22  N   UNL     1      26.902  34.010  15.253  1.00  0.00    -0.348 N 
ATOM     23  C   UNL     1      25.836  33.076  15.288  1.00  0.00     0.217 C 
ATOM     24  H   UNL     1      26.678  35.015  15.386  1.00  0.00     0.163 HD
ATOM     25  C   UNL     1      24.443  33.591  15.516  1.00  0.00     0.114 C 
ATOM     26  O   UNL     1      25.980  31.850  15.142  1.00  0.00    -0.275 OA
ENDBRANCH  13  22
ENDBRANCH   7   8
BRANCH   7  27
ATOM     27  O   UNL     1      27.616  34.810  12.565  1.00  0.00    -0.388 OA
ATOM     28  H   UNL     1      27.475  35.412  11.767  1.00  0.00     0.211 HD
ENDBRANCH   7  27
ENDBRANCH   6   7
BRANCH   6  29
ATOM     29  O   UNL     1      30.349  36.791  13.658  1.00  0.00    -0.388 OA
ATOM     30  H   UNL     1      30.947  36.051  13.885  1.00  0.00     0.211 HD
ENDBRANCH   6  29
ENDBRANCH   5   6
ENDBRANCH   1   5
BRANCH   2  31
ATOM     31  O   UNL     1      27.847  37.975   8.457  1.00  0.00    -0.443 OA
BRANCH  31  32
ATOM     32  C   UNL     1      26.515  38.307   8.117  1.00  0.00     0.294 C 
BRANCH  32  33
ATOM     33  C   UNL     1      25.586  37.238   8.508  1.00  0.00     0.121 A 
ATOM     34  C   UNL     1      24.239  37.300   8.797  1.00  0.00     0.144 A 
ATOM     35  N   UNL     1      25.919  35.944   8.657  1.00  0.00    -0.131 NA
ATOM     36  N   UNL     1      23.790  36.055   9.111  1.00  0.00    -0.219 N 
ATOM     37  N   UNL     1      24.836  35.272   9.014  1.00  0.00    -0.062 NA
BRANCH  36  38
ATOM     38  C   UNL     1      22.472  35.666   9.472  1.00  0.00     0.081 A 
ATOM     39  C   UNL     1      21.461  35.625   8.523  1.00  0.00     0.049 A 
ATOM     40  C   UNL     1      22.203  35.329  10.778  1.00  0.00     0.065 A 
ATOM     41  C   UNL     1      20.181  35.252   8.849  1.00  0.00     0.043 A 
ATOM     42  C   UNL     1      20.923  34.948  11.143  1.00  0.00     0.017 A 
ATOM     43  Cl  UNL     1      18.889  35.196   7.654  1.00  0.00    -0.084 Cl
ATOM     44  C   UNL     1      19.930  34.917  10.165  1.00  0.00     0.021 A 
BRANCH  40  45
ATOM     45  C   UNL     1      23.266  35.376  11.754  1.00  0.00     0.255 C 
ATOM     46  O   UNL     1      23.994  34.382  12.031  1.00  0.00    -0.269 OA
ATOM     47  N   UNL     1      23.528  36.579  12.451  1.00  0.00    -0.345 N 
ATOM     48  C   UNL     1      22.722  37.741  12.168  1.00  0.00     0.146 C 
ATOM     49  C   UNL     1      24.586  36.683  13.444  1.00  0.00     0.146 C 
ENDBRANCH  40  45
ENDBRANCH  36  38
ENDBRANCH  32  33
ENDBRANCH  31  32
ENDBRANCH   2  31
TORSDOF 16
BEGIN_RES LYS A 131
REMARK  4 active torsions:
REMARK  status: ('A' for Active; 'I' for Inactive)
REMARK    1  A    between atoms: CA   and  CB  
REMARK    2  A    between atoms: CB   and  CG  
REMARK    3  A    between atoms: CG   and  CD  
REMARK    4  A    between atoms: CD   and  CE  
ROOT
ATOM      1  CA  LYS A 131      29.867  25.555  16.977  1.00 20.52     0.186 C 
ENDROOT
BRANCH   1   2
ATOM      2  CB  LYS A 131      28.345  25.722  17.026  1.00 20.94     0.034 C 
BRANCH   2   3
ATOM      3  CG  LYS A 131      27.601  24.401  16.905  1.00 22.96     0.005 C 
BRANCH   3   4
ATOM      4  CD  LYS A 131      26.559  24.237  17.976  1.00 24.33     0.041 C 
BRANCH   4   5
ATOM      5  CE  LYS A 131      25.216  23.905  17.333  1.00 26.91     0.338 C 
ATOM      6  NZ  LYS A 131      24.888  22.473  17.527  1.00 27.40     0.618 N 
ENDBRANCH   4   5
ENDBRANCH   3   4
ENDBRANCH   2   3
ENDBRANCH   1   2
END_RES LYS A 131
BEGIN_RES LYS A 135
REMARK  4 active torsions:
REMARK  status: ('A' for Active; 'I' for Inactive)
REMARK    5  A    between atoms: CA   and  CB  
REMARK    6  A    between atoms: CB   and  CG  
REMARK    7  A    between atoms: CG   and  CD  
REMARK    8  A    between atoms: CD   and  CE  
ROOT
ATOM      7  CA  LYS A 135      33.193  34.663   9.290  1.00 25.02     0.186 C 
ENDROOT
BRANCH   7   8
ATOM      8  CB  LYS A 135      32.060  35.360  10.034  1.00 26.63     0.034 C 
BRANCH   8   9
ATOM      9  CG  LYS A 135      30.892  35.719   9.153  1.00 29.45     0.005 C 
BRANCH   9  10
ATOM     10  CD  LYS A 135      30.424  34.507   8.362  1.00 32.00     0.041 C 
BRANCH  10  11
ATOM     11  CE  LYS A 135      28.909  34.434   8.345  1.00 34.25     0.338 C 
ATOM     12  NZ  LYS A 135      28.395  33.691   9.529  1.00 35.99     0.618 N 
ENDBRANCH  10  11
ENDBRANCH   9  10
ENDBRANCH   8   9
ENDBRANCH   7   8
END_RES LYS A 135
