REMARK VINA RESULT:    -5.403      3.349      6.742
REMARK INTER + INTRA:         -14.994
REMARK INTER:                  -8.747
REMARK INTRA:                  -6.247
REMARK UNBOUND:                -5.011
REMARK SMILES CC(=O)N[C@@H]1[C@@H](O)C[C@](O)(C(=O)O)O[C@H]1C(O)[C@H](O)CNC(=O)OCc1cn(CS(=O)(=O)c2ccccc2)nn1
REMARK SMILES IDX 21 1 22 2 23 3 20 5 18 6 16 7 15 8 9 9 8 10 14 11 6 12 5 13
REMARK SMILES IDX 10 14 11 16 12 17 13 18 7 20 4 22 2 23 1 25 3 26 17 27 19 29
REMARK SMILES IDX 24 31 25 32 26 33 27 34 40 35 28 36 39 37 29 38 30 39 31 40
REMARK SMILES IDX 32 41 33 42 34 43 38 44 35 45 37 46 36 47
REMARK H PARENT 21 4 10 15 13 19 7 21 4 24 17 28 19 30
REMARK Flexibility Score: inf
ROOT
ATOM      1  N   UNL     1      30.358  33.257  14.581  1.00  0.00    -0.319 N 
ATOM      2  C   UNL     1      30.741  34.644  14.507  1.00  0.00     0.407 C 
ATOM      3  O   UNL     1      31.757  35.018  15.110  1.00  0.00    -0.225 OA
ATOM      4  H   UNL     1      29.501  33.025  14.045  1.00  0.00     0.167 HD
ENDROOT
BRANCH   1   5
ATOM      5  C   UNL     1      31.150  32.315  15.351  1.00  0.00     0.154 C 
BRANCH   5   6
ATOM      6  C   UNL     1      30.466  31.875  16.601  1.00  0.00     0.165 C 
BRANCH   6   7
ATOM      7  C   UNL     1      29.103  31.309  16.393  1.00  0.00     0.176 C 
BRANCH   7   8
ATOM      8  C   UNL     1      28.697  30.184  17.275  1.00  0.00     0.178 C 
ATOM      9  C   UNL     1      26.400  30.541  17.013  1.00  0.00     0.269 C 
ATOM     10  C   UNL     1      26.440  31.500  18.156  1.00  0.00     0.112 C 
ATOM     11  O   UNL     1      27.458  29.677  16.888  1.00  0.00    -0.332 OA
ATOM     12  C   UNL     1      27.505  31.300  19.162  1.00  0.00     0.145 C 
ATOM     13  C   UNL     1      28.622  30.389  18.736  1.00  0.00     0.142 C 
BRANCH   9  14
ATOM     14  O   UNL     1      26.280  31.208  15.793  1.00  0.00    -0.357 OA
ATOM     15  H   UNL     1      26.329  32.175  15.860  1.00  0.00     0.214 HD
ENDBRANCH   9  14
BRANCH   9  16
ATOM     16  C   UNL     1      25.190  29.688  17.150  1.00  0.00     0.364 C 
ATOM     17  O   UNL     1      25.250  28.649  17.841  1.00  0.00    -0.246 OA
BRANCH  16  18
ATOM     18  O   UNL     1      23.977  29.989  16.543  1.00  0.00    -0.477 OA
ATOM     19  H   UNL     1      23.162  30.272  17.104  1.00  0.00     0.296 HD
ENDBRANCH  16  18
ENDBRANCH   9  16
BRANCH  12  20
ATOM     20  O   UNL     1      27.995  32.540  19.565  1.00  0.00    -0.391 OA
ATOM     21  H   UNL     1      27.343  33.063  20.066  1.00  0.00     0.211 HD
ENDBRANCH  12  20
BRANCH  13  22
ATOM     22  N   UNL     1      28.511  29.074  19.375  1.00  0.00    -0.348 N 
ATOM     23  C   UNL     1      29.309  28.713  20.483  1.00  0.00     0.217 C 
ATOM     24  H   UNL     1      27.830  28.379  19.013  1.00  0.00     0.163 HD
ATOM     25  C   UNL     1      29.208  27.378  21.146  1.00  0.00     0.114 C 
ATOM     26  O   UNL     1      30.125  29.568  20.906  1.00  0.00    -0.275 OA
ENDBRANCH  13  22
ENDBRANCH   7   8
BRANCH   7  27
ATOM     27  O   UNL     1      29.243  30.639  15.100  1.00  0.00    -0.388 OA
ATOM     28  H   UNL     1      28.997  31.305  14.434  1.00  0.00     0.211 HD
ENDBRANCH   7  27
ENDBRANCH   6   7
BRANCH   6  29
ATOM     29  O   UNL     1      30.543  32.747  17.668  1.00  0.00    -0.388 OA
ATOM     30  H   UNL     1      30.156  32.370  18.495  1.00  0.00     0.211 HD
ENDBRANCH   6  29
ENDBRANCH   5   6
ENDBRANCH   1   5
BRANCH   2  31
ATOM     31  O   UNL     1      29.999  35.555  13.780  1.00  0.00    -0.443 OA
BRANCH  31  32
ATOM     32  C   UNL     1      28.934  36.299  14.344  1.00  0.00     0.294 C 
BRANCH  32  33
ATOM     33  C   UNL     1      27.632  35.888  13.800  1.00  0.00     0.120 A 
ATOM     34  C   UNL     1      27.203  34.675  13.342  1.00  0.00     0.139 A 
ATOM     35  N   UNL     1      26.576  36.717  13.660  1.00  0.00    -0.132 NA
ATOM     36  N   UNL     1      25.914  34.801  12.939  1.00  0.00    -0.237 N 
ATOM     37  N   UNL     1      25.560  36.059  13.146  1.00  0.00    -0.066 NA
BRANCH  36  38
ATOM     38  C   UNL     1      25.117  33.734  12.395  1.00  0.00     0.287 C 
BRANCH  38  39
ATOM     39  S   UNL     1      23.889  33.206  13.581  1.00  0.00     0.198 S 
ATOM     40  O   UNL     1      22.758  34.203  13.548  1.00  0.00    -0.222 OA
ATOM     41  O   UNL     1      24.525  33.204  14.920  1.00  0.00    -0.222 OA
BRANCH  39  42
ATOM     42  C   UNL     1      23.321  31.610  13.124  1.00  0.00     0.069 A 
ATOM     43  C   UNL     1      21.987  31.473  12.757  1.00  0.00     0.020 A 
ATOM     44  C   UNL     1      24.181  30.538  13.134  1.00  0.00     0.020 A 
ATOM     45  C   UNL     1      21.545  30.223  12.399  1.00  0.00     0.001 A 
ATOM     46  C   UNL     1      23.688  29.305  12.768  1.00  0.00     0.001 A 
ATOM     47  C   UNL     1      22.380  29.109  12.395  1.00  0.00     0.000 A 
ENDBRANCH  39  42
ENDBRANCH  38  39
ENDBRANCH  36  38
ENDBRANCH  32  33
ENDBRANCH  31  32
ENDBRANCH   2  31
TORSDOF 17
BEGIN_RES LYS A 131
REMARK  4 active torsions:
REMARK  status: ('A' for Active; 'I' for Inactive)
REMARK    1  A    between atoms: CA   and  CB  
REMARK    2  A    between atoms: CB   and  CG  
REMARK    3  A    between atoms: CG   and  CD  
REMARK    4  A    between atoms: CD   and  CE  
ROOT
ATOM      1  CA  LYS A 131      29.867  25.555  16.977  1.00 20.52     0.186 C 
ENDROOT
BRANCH   1   2
ATOM      2  CB  LYS A 131      28.345  25.722  17.026  1.00 20.94     0.034 C 
BRANCH   2   3
ATOM      3  CG  LYS A 131      27.601  24.406  16.859  1.00 22.96     0.005 C 
BRANCH   3   4
ATOM      4  CD  LYS A 131      26.629  24.159  17.979  1.00 24.33     0.041 C 
BRANCH   4   5
ATOM      5  CE  LYS A 131      25.311  23.648  17.407  1.00 26.91     0.338 C 
ATOM      6  NZ  LYS A 131      24.745  22.587  18.273  1.00 27.40     0.618 N 
ENDBRANCH   4   5
ENDBRANCH   3   4
ENDBRANCH   2   3
ENDBRANCH   1   2
END_RES LYS A 131
BEGIN_RES LYS A 135
REMARK  4 active torsions:
REMARK  status: ('A' for Active; 'I' for Inactive)
REMARK    5  A    between atoms: CA   and  CB  
REMARK    6  A    between atoms: CB   and  CG  
REMARK    7  A    between atoms: CG   and  CD  
REMARK    8  A    between atoms: CD   and  CE  
ROOT
ATOM      7  CA  LYS A 135      33.193  34.663   9.290  1.00 25.02     0.186 C 
ENDROOT
BRANCH   7   8
ATOM      8  CB  LYS A 135      32.060  35.360  10.034  1.00 26.63     0.034 C 
BRANCH   8   9
ATOM      9  CG  LYS A 135      30.801  35.502   9.218  1.00 29.45     0.005 C 
BRANCH   9  10
ATOM     10  CD  LYS A 135      30.139  34.148   9.014  1.00 32.00     0.041 C 
BRANCH  10  11
ATOM     11  CE  LYS A 135      28.678  34.320   8.645  1.00 34.25     0.338 C 
ATOM     12  NZ  LYS A 135      27.792  33.631   9.624  1.00 35.99     0.618 N 
ENDBRANCH  10  11
ENDBRANCH   9  10
ENDBRANCH   8   9
ENDBRANCH   7   8
END_RES LYS A 135
