REMARK VINA RESULT:    -6.141      4.605      8.953
REMARK INTER + INTRA:         -15.479
REMARK INTER:                  -9.645
REMARK INTRA:                  -5.834
REMARK UNBOUND:                -3.774
REMARK SMILES CC(=O)N[C@@H]1[C@@H](O)C[C@](O)(C(=O)O)O[C@H]1C(O)[C@H](O)CNC(=O)OCc1cn(COCc2ccccc2)nn1
REMARK SMILES IDX 21 1 22 2 23 3 20 5 18 6 16 7 15 8 9 9 8 10 14 11 6 12 5 13
REMARK SMILES IDX 10 14 11 16 12 17 13 18 7 20 4 22 2 23 1 25 3 26 17 27 19 29
REMARK SMILES IDX 24 31 25 32 26 33 27 34 39 35 28 36 38 37 29 38 30 39 31 40
REMARK SMILES IDX 32 41 33 42 37 43 34 44 36 45 35 46
REMARK H PARENT 21 4 10 15 13 19 7 21 4 24 17 28 19 30
REMARK Flexibility Score: inf
ROOT
ATOM      1  N   UNL     1      31.343  35.388  14.893  1.00  0.00    -0.319 N 
ATOM      2  C   UNL     1      30.966  35.695  13.552  1.00  0.00     0.407 C 
ATOM      3  O   UNL     1      31.238  34.906  12.597  1.00  0.00    -0.225 OA
ATOM      4  H   UNL     1      31.104  36.054  15.645  1.00  0.00     0.167 HD
ENDROOT
BRANCH   1   5
ATOM      5  C   UNL     1      32.046  34.140  15.113  1.00  0.00     0.154 C 
BRANCH   5   6
ATOM      6  C   UNL     1      31.122  33.041  15.564  1.00  0.00     0.165 C 
BRANCH   6   7
ATOM      7  C   UNL     1      31.136  32.941  17.074  1.00  0.00     0.176 C 
BRANCH   7   8
ATOM      8  C   UNL     1      29.828  32.489  17.636  1.00  0.00     0.178 C 
ATOM      9  C   UNL     1      28.601  30.544  18.007  1.00  0.00     0.269 C 
ATOM     10  C   UNL     1      27.393  31.469  18.045  1.00  0.00     0.112 C 
ATOM     11  O   UNL     1      29.707  31.124  17.397  1.00  0.00    -0.332 OA
ATOM     12  C   UNL     1      27.480  32.350  16.818  1.00  0.00     0.145 C 
ATOM     13  C   UNL     1      28.669  33.267  17.053  1.00  0.00     0.142 C 
BRANCH   9  14
ATOM     14  O   UNL     1      28.227  29.477  17.191  1.00  0.00    -0.357 OA
ATOM     15  H   UNL     1      28.923  29.258  16.522  1.00  0.00     0.214 HD
ENDBRANCH   9  14
BRANCH   9  16
ATOM     16  C   UNL     1      28.901  30.029  19.349  1.00  0.00     0.364 C 
ATOM     17  O   UNL     1      28.857  30.808  20.333  1.00  0.00    -0.246 OA
BRANCH  16  18
ATOM     18  O   UNL     1      29.238  28.706  19.605  1.00  0.00    -0.477 OA
ATOM     19  H   UNL     1      29.797  28.217  18.913  1.00  0.00     0.296 HD
ENDBRANCH  16  18
ENDBRANCH   9  16
BRANCH  12  20
ATOM     20  O   UNL     1      27.664  31.600  15.660  1.00  0.00    -0.391 OA
ATOM     21  H   UNL     1      28.608  31.736  15.342  1.00  0.00     0.211 HD
ENDBRANCH  12  20
BRANCH  13  22
ATOM     22  N   UNL     1      28.245  34.270  18.007  1.00  0.00    -0.348 N 
ATOM     23  C   UNL     1      28.582  35.635  17.803  1.00  0.00     0.217 C 
ATOM     24  H   UNL     1      27.685  34.049  18.867  1.00  0.00     0.163 HD
ATOM     25  C   UNL     1      28.171  36.706  18.751  1.00  0.00     0.114 C 
ATOM     26  O   UNL     1      29.251  35.987  16.797  1.00  0.00    -0.275 OA
ENDBRANCH  13  22
ENDBRANCH   7   8
BRANCH   7  27
ATOM     27  O   UNL     1      31.627  34.104  17.612  1.00  0.00    -0.388 OA
ATOM     28  H   UNL     1      31.585  34.805  16.901  1.00  0.00     0.211 HD
ENDBRANCH   7  27
ENDBRANCH   6   7
BRANCH   6  29
ATOM     29  O   UNL     1      31.517  31.849  14.969  1.00  0.00    -0.388 OA
ATOM     30  H   UNL     1      30.868  31.595  14.260  1.00  0.00     0.211 HD
ENDBRANCH   6  29
ENDBRANCH   5   6
ENDBRANCH   1   5
BRANCH   2  31
ATOM     31  O   UNL     1      30.289  36.861  13.222  1.00  0.00    -0.443 OA
BRANCH  31  32
ATOM     32  C   UNL     1      29.289  36.936  12.226  1.00  0.00     0.294 C 
BRANCH  32  33
ATOM     33  C   UNL     1      28.041  36.242  12.613  1.00  0.00     0.120 A 
ATOM     34  C   UNL     1      27.173  35.470  11.872  1.00  0.00     0.141 A 
ATOM     35  N   UNL     1      27.518  36.262  13.852  1.00  0.00    -0.132 NA
ATOM     36  N   UNL     1      26.159  35.046  12.667  1.00  0.00    -0.226 N 
ATOM     37  N   UNL     1      26.411  35.551  13.860  1.00  0.00    -0.065 NA
BRANCH  36  38
ATOM     38  C   UNL     1      25.018  34.201  12.285  1.00  0.00     0.307 C 
BRANCH  38  39
ATOM     39  O   UNL     1      24.899  33.152  13.191  1.00  0.00    -0.355 OA
BRANCH  39  40
ATOM     40  C   UNL     1      23.590  32.854  13.488  1.00  0.00     0.198 C 
BRANCH  40  41
ATOM     41  C   UNL     1      23.161  31.501  13.078  1.00  0.00    -0.022 A 
ATOM     42  C   UNL     1      21.845  31.276  12.730  1.00  0.00     0.006 A 
ATOM     43  C   UNL     1      24.050  30.457  13.030  1.00  0.00     0.006 A 
ATOM     44  C   UNL     1      21.418  30.006  12.333  1.00  0.00     0.000 A 
ATOM     45  C   UNL     1      23.621  29.199  12.635  1.00  0.00     0.000 A 
ATOM     46  C   UNL     1      22.327  28.967  12.291  1.00  0.00     0.000 A 
ENDBRANCH  40  41
ENDBRANCH  39  40
ENDBRANCH  38  39
ENDBRANCH  36  38
ENDBRANCH  32  33
ENDBRANCH  31  32
ENDBRANCH   2  31
TORSDOF 18
BEGIN_RES LYS A 131
REMARK  4 active torsions:
REMARK  status: ('A' for Active; 'I' for Inactive)
REMARK    1  A    between atoms: CA   and  CB  
REMARK    2  A    between atoms: CB   and  CG  
REMARK    3  A    between atoms: CG   and  CD  
REMARK    4  A    between atoms: CD   and  CE  
ROOT
ATOM      1  CA  LYS A 131      29.867  25.555  16.977  1.00 20.52     0.186 C 
ENDROOT
BRANCH   1   2
ATOM      2  CB  LYS A 131      28.345  25.722  17.026  1.00 20.94     0.034 C 
BRANCH   2   3
ATOM      3  CG  LYS A 131      27.601  24.401  16.899  1.00 22.96     0.005 C 
BRANCH   3   4
ATOM      4  CD  LYS A 131      26.227  24.465  17.505  1.00 24.33     0.041 C 
BRANCH   4   5
ATOM      5  CE  LYS A 131      26.115  25.706  18.385  1.00 26.91     0.338 C 
ATOM      6  NZ  LYS A 131      24.928  26.507  18.004  1.00 27.40     0.618 N 
ENDBRANCH   4   5
ENDBRANCH   3   4
ENDBRANCH   2   3
ENDBRANCH   1   2
END_RES LYS A 131
BEGIN_RES LYS A 135
REMARK  4 active torsions:
REMARK  status: ('A' for Active; 'I' for Inactive)
REMARK    5  A    between atoms: CA   and  CB  
REMARK    6  A    between atoms: CB   and  CG  
REMARK    7  A    between atoms: CG   and  CD  
REMARK    8  A    between atoms: CD   and  CE  
ROOT
ATOM      7  CA  LYS A 135      33.193  34.663   9.290  1.00 25.02     0.186 C 
ENDROOT
BRANCH   7   8
ATOM      8  CB  LYS A 135      32.060  35.360  10.034  1.00 26.63     0.034 C 
BRANCH   8   9
ATOM      9  CG  LYS A 135      30.888  35.712   9.154  1.00 29.45     0.005 C 
BRANCH   9  10
ATOM     10  CD  LYS A 135      30.204  34.454   8.642  1.00 32.00     0.041 C 
BRANCH  10  11
ATOM     11  CE  LYS A 135      28.972  34.809   7.833  1.00 34.25     0.338 C 
ATOM     12  NZ  LYS A 135      27.730  34.357   8.520  1.00 35.99     0.618 N 
ENDBRANCH  10  11
ENDBRANCH   9  10
ENDBRANCH   8   9
ENDBRANCH   7   8
END_RES LYS A 135
