REMARK VINA RESULT:    -5.973      5.475     10.290
REMARK INTER + INTRA:         -16.844
REMARK INTER:                  -9.077
REMARK INTRA:                  -7.767
REMARK UNBOUND:                -5.110
REMARK SMILES CC(=O)N[C@@H]1[C@@H](O)C[C@](O)(C(=O)O)O[C@H]1C(O)[C@H](O)CNC(=O)OCc1cn([C@@H](C)C(=O)OCc2ccccc2)nn1
REMARK SMILES IDX 24 1 22 2 21 3 23 5 20 6 18 7 16 8 15 9 9 10 8 11 14 12 6 13
REMARK SMILES IDX 5 14 10 15 11 17 12 18 13 19 7 21 4 23 2 24 1 26 3 27 17 28
REMARK SMILES IDX 19 30 25 32 26 33 27 34 42 35 28 36 41 37 29 38 30 39 31 40
REMARK SMILES IDX 32 41 33 42 34 43 35 44 36 45 40 46 37 47 39 48 38 49
REMARK H PARENT 21 4 10 16 13 20 7 22 4 25 17 29 19 31
REMARK Flexibility Score: inf
ROOT
ATOM      1  O   UNL     1      28.757  30.455  19.757  1.00  0.00    -0.443 OA
ENDROOT
BRANCH   1   2
ATOM      2  C   UNL     1      29.173  31.546  18.960  1.00  0.00     0.407 C 
ATOM      3  N   UNL     1      30.131  31.361  17.940  1.00  0.00    -0.319 N 
ATOM      4  H   UNL     1      30.508  30.366  17.841  1.00  0.00     0.167 HD
ATOM      5  O   UNL     1      28.642  32.640  19.225  1.00  0.00    -0.225 OA
BRANCH   3   6
ATOM      6  C   UNL     1      30.586  32.411  17.085  1.00  0.00     0.154 C 
BRANCH   6   7
ATOM      7  C   UNL     1      30.163  32.210  15.669  1.00  0.00     0.165 C 
BRANCH   7   8
ATOM      8  C   UNL     1      28.929  33.057  15.366  1.00  0.00     0.176 C 
BRANCH   8   9
ATOM      9  C   UNL     1      29.175  34.529  15.470  1.00  0.00     0.178 C 
ATOM     10  C   UNL     1      27.517  35.259  13.985  1.00  0.00     0.269 C 
ATOM     11  C   UNL     1      28.574  35.462  12.947  1.00  0.00     0.112 C 
ATOM     12  O   UNL     1      27.987  35.254  15.276  1.00  0.00    -0.332 OA
ATOM     13  C   UNL     1      29.795  36.075  13.602  1.00  0.00     0.145 C 
ATOM     14  C   UNL     1      30.286  35.067  14.630  1.00  0.00     0.142 C 
BRANCH  10  15
ATOM     15  O   UNL     1      26.787  34.126  13.710  1.00  0.00    -0.357 OA
ATOM     16  H   UNL     1      27.357  33.320  13.564  1.00  0.00     0.214 HD
ENDBRANCH  10  15
BRANCH  10  17
ATOM     17  C   UNL     1      26.564  36.425  13.909  1.00  0.00     0.364 C 
ATOM     18  O   UNL     1      26.572  37.319  14.794  1.00  0.00    -0.246 OA
BRANCH  17  19
ATOM     19  O   UNL     1      25.649  36.561  12.875  1.00  0.00    -0.477 OA
ATOM     20  H   UNL     1      24.995  37.358  12.829  1.00  0.00     0.296 HD
ENDBRANCH  17  19
ENDBRANCH  10  17
BRANCH  13  21
ATOM     21  O   UNL     1      30.762  36.368  12.662  1.00  0.00    -0.391 OA
ATOM     22  H   UNL     1      30.652  35.861  11.819  1.00  0.00     0.211 HD
ENDBRANCH  13  21
BRANCH  14  23
ATOM     23  N   UNL     1      31.357  35.677  15.424  1.00  0.00    -0.348 N 
ATOM     24  C   UNL     1      32.691  35.173  15.431  1.00  0.00     0.217 C 
ATOM     25  H   UNL     1      31.170  36.522  16.025  1.00  0.00     0.163 HD
ATOM     26  C   UNL     1      33.741  35.839  16.262  1.00  0.00     0.114 C 
ATOM     27  O   UNL     1      32.977  34.170  14.736  1.00  0.00    -0.275 OA
ENDBRANCH  14  23
ENDBRANCH   8   9
BRANCH   8  28
ATOM     28  O   UNL     1      27.918  32.714  16.273  1.00  0.00    -0.388 OA
ATOM     29  H   UNL     1      27.041  32.739  15.802  1.00  0.00     0.211 HD
ENDBRANCH   8  28
ENDBRANCH   7   8
BRANCH   7  30
ATOM     30  O   UNL     1      29.868  30.865  15.452  1.00  0.00    -0.388 OA
ATOM     31  H   UNL     1      29.210  30.735  14.708  1.00  0.00     0.211 HD
ENDBRANCH   7  30
ENDBRANCH   6   7
ENDBRANCH   3   6
ENDBRANCH   1   2
BRANCH   1  32
ATOM     32  C   UNL     1      28.219  29.316  19.118  1.00  0.00     0.294 C 
BRANCH  32  33
ATOM     33  C   UNL     1      27.379  29.674  17.960  1.00  0.00     0.120 A 
ATOM     34  C   UNL     1      26.111  30.207  17.943  1.00  0.00     0.139 A 
ATOM     35  N   UNL     1      27.728  29.536  16.670  1.00  0.00    -0.132 NA
ATOM     36  N   UNL     1      25.722  30.377  16.658  1.00  0.00    -0.238 N 
ATOM     37  N   UNL     1      26.713  29.966  15.915  1.00  0.00    -0.066 NA
BRANCH  36  38
ATOM     38  C   UNL     1      24.457  30.911  16.226  1.00  0.00     0.215 C 
ATOM     39  C   UNL     1      23.621  31.303  17.424  1.00  0.00     0.046 C 
BRANCH  38  40
ATOM     40  C   UNL     1      24.688  32.028  15.301  1.00  0.00     0.331 C 
ATOM     41  O   UNL     1      25.113  33.134  15.752  1.00  0.00    -0.250 OA
BRANCH  40  42
ATOM     42  O   UNL     1      24.460  31.931  13.945  1.00  0.00    -0.459 OA
BRANCH  42  43
ATOM     43  C   UNL     1      24.415  30.762  13.189  1.00  0.00     0.268 C 
BRANCH  43  44
ATOM     44  C   UNL     1      23.001  30.470  12.826  1.00  0.00    -0.011 A 
ATOM     45  C   UNL     1      22.068  31.482  12.788  1.00  0.00     0.007 A 
ATOM     46  C   UNL     1      22.622  29.190  12.524  1.00  0.00     0.007 A 
ATOM     47  C   UNL     1      20.764  31.217  12.450  1.00  0.00     0.000 A 
ATOM     48  C   UNL     1      21.331  28.897  12.184  1.00  0.00     0.000 A 
ATOM     49  C   UNL     1      20.404  29.911  12.148  1.00  0.00     0.000 A 
ENDBRANCH  43  44
ENDBRANCH  42  43
ENDBRANCH  40  42
ENDBRANCH  38  40
ENDBRANCH  36  38
ENDBRANCH  32  33
ENDBRANCH   1  32
TORSDOF 19
BEGIN_RES LYS A 131
REMARK  4 active torsions:
REMARK  status: ('A' for Active; 'I' for Inactive)
REMARK    1  A    between atoms: CA   and  CB  
REMARK    2  A    between atoms: CB   and  CG  
REMARK    3  A    between atoms: CG   and  CD  
REMARK    4  A    between atoms: CD   and  CE  
ROOT
ATOM      1  CA  LYS A 131      29.867  25.555  16.977  1.00 20.52     0.186 C 
ENDROOT
BRANCH   1   2
ATOM      2  CB  LYS A 131      28.345  25.722  17.026  1.00 20.94     0.034 C 
BRANCH   2   3
ATOM      3  CG  LYS A 131      27.601  24.402  16.890  1.00 22.96     0.005 C 
BRANCH   3   4
ATOM      4  CD  LYS A 131      26.146  24.533  17.246  1.00 24.33     0.041 C 
BRANCH   4   5
ATOM      5  CE  LYS A 131      25.574  23.155  17.561  1.00 26.91     0.338 C 
ATOM      6  NZ  LYS A 131      24.095  23.174  17.471  1.00 27.40     0.618 N 
ENDBRANCH   4   5
ENDBRANCH   3   4
ENDBRANCH   2   3
ENDBRANCH   1   2
END_RES LYS A 131
BEGIN_RES LYS A 135
REMARK  4 active torsions:
REMARK  status: ('A' for Active; 'I' for Inactive)
REMARK    5  A    between atoms: CA   and  CB  
REMARK    6  A    between atoms: CB   and  CG  
REMARK    7  A    between atoms: CG   and  CD  
REMARK    8  A    between atoms: CD   and  CE  
ROOT
ATOM      7  CA  LYS A 135      33.193  34.663   9.290  1.00 25.02     0.186 C 
ENDROOT
BRANCH   7   8
ATOM      8  CB  LYS A 135      32.060  35.360  10.034  1.00 26.63     0.034 C 
BRANCH   8   9
ATOM      9  CG  LYS A 135      30.780  35.442   9.243  1.00 29.45     0.005 C 
BRANCH   9  10
ATOM     10  CD  LYS A 135      30.176  34.059   9.054  1.00 32.00     0.041 C 
BRANCH  10  11
ATOM     11  CE  LYS A 135      28.698  34.073   9.393  1.00 34.25     0.338 C 
ATOM     12  NZ  LYS A 135      27.900  34.672   8.288  1.00 35.99     0.618 N 
ENDBRANCH  10  11
ENDBRANCH   9  10
ENDBRANCH   8   9
ENDBRANCH   7   8
END_RES LYS A 135
