REMARK VINA RESULT:    -4.743      4.132      8.970
REMARK INTER + INTRA:         -14.699
REMARK INTER:                  -8.191
REMARK INTRA:                  -6.508
REMARK UNBOUND:                -6.490
REMARK SMILES CC(=O)N[C@@H]1[C@@H](O)C[C@](O)(C(=O)O)O[C@H]1C(O)[C@H](O)CNC(=O)OCc1cn(-c2ccc3[nH]ncc3c2)nn1
REMARK SMILES IDX 20 1 18 2 16 3 15 4 9 5 8 6 14 7 6 8 5 9 10 10 11 12 12 13
REMARK SMILES IDX 13 14 7 16 4 18 2 19 1 21 3 22 17 23 19 25 21 27 22 28 23 30
REMARK SMILES IDX 24 31 25 32 26 33 27 34 39 35 28 36 38 37 29 38 30 39 37 40
REMARK SMILES IDX 31 41 36 42 32 43 35 44 33 45 34 46
REMARK H PARENT 10 11 13 15 7 17 4 20 17 24 19 26 21 29 33 47
REMARK Flexibility Score: inf
ROOT
ATOM      1  C   UNL     1      29.234  37.676   5.216  1.00  0.00     0.154 C 
ENDROOT
BRANCH   1   2
ATOM      2  C   UNL     1      28.759  36.710   6.211  1.00  0.00     0.165 C 
BRANCH   2   3
ATOM      3  C   UNL     1      27.260  36.929   6.518  1.00  0.00     0.176 C 
BRANCH   3   4
ATOM      4  C   UNL     1      27.016  37.711   7.733  1.00  0.00     0.178 C 
ATOM      5  C   UNL     1      25.452  36.515   8.995  1.00  0.00     0.269 C 
ATOM      6  C   UNL     1      24.405  37.159   8.131  1.00  0.00     0.112 C 
ATOM      7  O   UNL     1      26.701  37.050   8.883  1.00  0.00    -0.332 OA
ATOM      8  C   UNL     1      24.656  38.599   7.851  1.00  0.00     0.145 C 
ATOM      9  C   UNL     1      26.073  38.893   7.473  1.00  0.00     0.142 C 
BRANCH   5  10
ATOM     10  O   UNL     1      25.496  35.149   8.723  1.00  0.00    -0.357 OA
ATOM     11  H   UNL     1      25.600  34.607   9.543  1.00  0.00     0.214 HD
ENDBRANCH   5  10
BRANCH   5  12
ATOM     12  C   UNL     1      25.014  36.685  10.400  1.00  0.00     0.364 C 
ATOM     13  O   UNL     1      25.628  37.458  11.154  1.00  0.00    -0.246 OA
BRANCH  12  14
ATOM     14  O   UNL     1      23.924  35.984  10.869  1.00  0.00    -0.477 OA
ATOM     15  H   UNL     1      22.957  36.183  10.576  1.00  0.00     0.296 HD
ENDBRANCH  12  14
ENDBRANCH   5  12
BRANCH   8  16
ATOM     16  O   UNL     1      23.763  39.005   6.842  1.00  0.00    -0.391 OA
ATOM     17  H   UNL     1      23.137  39.629   7.282  1.00  0.00     0.211 HD
ENDBRANCH   8  16
BRANCH   9  18
ATOM     18  N   UNL     1      26.571  40.115   8.047  1.00  0.00    -0.348 N 
ATOM     19  C   UNL     1      26.217  41.394   7.539  1.00  0.00     0.217 C 
ATOM     20  H   UNL     1      27.229  40.079   8.882  1.00  0.00     0.163 HD
ATOM     21  C   UNL     1      26.754  42.619   8.162  1.00  0.00     0.114 C 
ATOM     22  O   UNL     1      25.440  41.456   6.552  1.00  0.00    -0.275 OA
ENDBRANCH   9  18
ENDBRANCH   3   4
BRANCH   3  23
ATOM     23  O   UNL     1      26.895  37.787   5.419  1.00  0.00    -0.388 OA
ATOM     24  H   UNL     1      26.157  38.382   5.686  1.00  0.00     0.211 HD
ENDBRANCH   3  23
ENDBRANCH   2   3
BRANCH   2  25
ATOM     25  O   UNL     1      29.412  37.090   7.445  1.00  0.00    -0.388 OA
ATOM     26  H   UNL     1      29.553  36.272   7.997  1.00  0.00     0.211 HD
ENDBRANCH   2  25
ENDBRANCH   1   2
BRANCH   1  27
ATOM     27  N   UNL     1      29.998  38.787   5.712  1.00  0.00    -0.319 N 
ATOM     28  C   UNL     1      29.493  40.114   5.698  1.00  0.00     0.407 C 
ATOM     29  H   UNL     1      30.924  38.636   6.141  1.00  0.00     0.167 HD
ATOM     30  O   UNL     1      28.340  40.306   5.233  1.00  0.00    -0.225 OA
BRANCH  28  31
ATOM     31  O   UNL     1      30.195  41.202   6.162  1.00  0.00    -0.443 OA
BRANCH  31  32
ATOM     32  C   UNL     1      30.183  41.657   7.501  1.00  0.00     0.294 C 
BRANCH  32  33
ATOM     33  C   UNL     1      30.718  40.549   8.363  1.00  0.00     0.121 A 
ATOM     34  C   UNL     1      30.143  39.981   9.479  1.00  0.00     0.144 A 
ATOM     35  N   UNL     1      31.896  39.885   8.199  1.00  0.00    -0.131 NA
ATOM     36  N   UNL     1      30.999  39.015   9.921  1.00  0.00    -0.220 N 
ATOM     37  N   UNL     1      32.053  38.980   9.126  1.00  0.00    -0.062 NA
BRANCH  36  38
ATOM     38  C   UNL     1      30.769  38.196  11.056  1.00  0.00     0.067 A 
ATOM     39  C   UNL     1      31.845  37.746  11.798  1.00  0.00     0.030 A 
ATOM     40  C   UNL     1      29.511  37.814  11.474  1.00  0.00     0.040 A 
ATOM     41  C   UNL     1      31.683  36.948  12.911  1.00  0.00     0.030 A 
ATOM     42  C   UNL     1      29.328  37.024  12.572  1.00  0.00     0.022 A 
ATOM     43  C   UNL     1      30.414  36.572  13.319  1.00  0.00     0.065 A 
ATOM     44  C   UNL     1      28.219  36.504  13.198  1.00  0.00     0.143 A 
ATOM     45  N   UNL     1      29.950  35.823  14.331  1.00  0.00    -0.278 N 
ATOM     46  N   UNL     1      28.639  35.774  14.272  1.00  0.00    -0.183 NA
ATOM     47  H   UNL     1      30.542  35.360  15.045  1.00  0.00     0.190 HD
ENDBRANCH  36  38
ENDBRANCH  32  33
ENDBRANCH  31  32
ENDBRANCH  28  31
ENDBRANCH   1  27
TORSDOF 15
BEGIN_RES LYS A 131
REMARK  4 active torsions:
REMARK  status: ('A' for Active; 'I' for Inactive)
REMARK    1  A    between atoms: CA   and  CB  
REMARK    2  A    between atoms: CB   and  CG  
REMARK    3  A    between atoms: CG   and  CD  
REMARK    4  A    between atoms: CD   and  CE  
ROOT
ATOM      1  CA  LYS A 131      29.867  25.555  16.977  1.00 20.52     0.186 C 
ENDROOT
BRANCH   1   2
ATOM      2  CB  LYS A 131      28.345  25.722  17.026  1.00 20.94     0.034 C 
BRANCH   2   3
ATOM      3  CG  LYS A 131      27.601  24.405  16.868  1.00 22.96     0.005 C 
BRANCH   3   4
ATOM      4  CD  LYS A 131      26.148  24.528  17.235  1.00 24.33     0.041 C 
BRANCH   4   5
ATOM      5  CE  LYS A 131      25.675  23.230  17.883  1.00 26.91     0.338 C 
ATOM      6  NZ  LYS A 131      24.387  22.796  17.294  1.00 27.40     0.618 N 
ENDBRANCH   4   5
ENDBRANCH   3   4
ENDBRANCH   2   3
ENDBRANCH   1   2
END_RES LYS A 131
BEGIN_RES LYS A 135
REMARK  4 active torsions:
REMARK  status: ('A' for Active; 'I' for Inactive)
REMARK    5  A    between atoms: CA   and  CB  
REMARK    6  A    between atoms: CB   and  CG  
REMARK    7  A    between atoms: CG   and  CD  
REMARK    8  A    between atoms: CD   and  CE  
ROOT
ATOM      7  CA  LYS A 135      33.193  34.663   9.290  1.00 25.02     0.186 C 
ENDROOT
BRANCH   7   8
ATOM      8  CB  LYS A 135      32.060  35.360  10.034  1.00 26.63     0.034 C 
BRANCH   8   9
ATOM      9  CG  LYS A 135      30.845  34.491  10.231  1.00 29.45     0.005 C 
BRANCH   9  10
ATOM     10  CD  LYS A 135      30.246  34.093   8.891  1.00 32.00     0.041 C 
BRANCH  10  11
ATOM     11  CE  LYS A 135      28.731  34.094   8.963  1.00 34.25     0.338 C 
ATOM     12  NZ  LYS A 135      28.261  34.230  10.369  1.00 35.99     0.618 N 
ENDBRANCH  10  11
ENDBRANCH   9  10
ENDBRANCH   8   9
ENDBRANCH   7   8
END_RES LYS A 135
