REMARK VINA RESULT:    -4.208      2.458      4.193
REMARK INTER + INTRA:         -14.555
REMARK INTER:                  -9.565
REMARK INTRA:                  -4.990
REMARK UNBOUND:                -5.918
REMARK SMILES CC(=O)N[C@@H]1[C@@H](O)C[C@](O)(C(=O)O)O[C@H]1C(O)[C@H](O)CNC(=O)OCc1cn(CCCCCC(=O)O)nn1
REMARK SMILES IDX 25 1 24 2 22 3 21 4 23 6 20 7 18 8 16 9 15 10 9 11 8 12
REMARK SMILES IDX 14 13 6 14 5 15 10 16 11 18 12 19 13 20 7 22 4 24 2 25 1 27
REMARK SMILES IDX 3 28 17 29 19 31 26 33 27 34 38 35 28 36 37 37 29 38 30 39
REMARK SMILES IDX 31 40 32 41 33 42 34 43 35 44 36 45
REMARK H PARENT 21 5 10 17 13 21 7 23 4 26 17 30 19 32 36 46
REMARK Flexibility Score: inf
ROOT
ATOM      1  C   UNL     1      26.476  37.781  10.886  1.00  0.00     0.294 C 
ENDROOT
BRANCH   1   2
ATOM      2  O   UNL     1      26.137  36.815   9.898  1.00  0.00    -0.443 OA
BRANCH   2   3
ATOM      3  C   UNL     1      25.274  37.214   8.870  1.00  0.00     0.407 C 
ATOM      4  N   UNL     1      24.185  38.068   9.203  1.00  0.00    -0.319 N 
ATOM      5  H   UNL     1      24.085  38.363  10.210  1.00  0.00     0.167 HD
ATOM      6  O   UNL     1      25.503  36.796   7.709  1.00  0.00    -0.225 OA
BRANCH   4   7
ATOM      7  C   UNL     1      23.287  38.483   8.173  1.00  0.00     0.154 C 
BRANCH   7   8
ATOM      8  C   UNL     1      21.836  38.151   8.427  1.00  0.00     0.165 C 
BRANCH   8   9
ATOM      9  C   UNL     1      21.468  36.956   7.569  1.00  0.00     0.176 C 
BRANCH   9  10
ATOM     10  C   UNL     1      21.357  35.666   8.311  1.00  0.00     0.178 C 
ATOM     11  C   UNL     1      19.039  35.528   8.010  1.00  0.00     0.269 C 
ATOM     12  C   UNL     1      18.907  36.060   9.446  1.00  0.00     0.112 C 
ATOM     13  O   UNL     1      20.271  34.970   7.823  1.00  0.00    -0.332 OA
ATOM     14  C   UNL     1      19.911  35.272  10.251  1.00  0.00     0.145 C 
ATOM     15  C   UNL     1      21.306  35.742   9.794  1.00  0.00     0.142 C 
BRANCH  11  16
ATOM     16  O   UNL     1      18.693  36.524   7.100  1.00  0.00    -0.357 OA
ATOM     17  H   UNL     1      19.461  36.739   6.481  1.00  0.00     0.214 HD
ENDBRANCH  11  16
BRANCH  11  18
ATOM     18  C   UNL     1      18.033  34.441   7.888  1.00  0.00     0.364 C 
ATOM     19  O   UNL     1      18.363  33.244   8.143  1.00  0.00    -0.246 OA
BRANCH  18  20
ATOM     20  O   UNL     1      16.746  34.763   7.495  1.00  0.00    -0.477 OA
ATOM     21  H   UNL     1      16.178  35.267   8.190  1.00  0.00     0.296 HD
ENDBRANCH  18  20
ENDBRANCH  11  18
BRANCH  14  22
ATOM     22  O   UNL     1      19.759  35.475  11.622  1.00  0.00    -0.391 OA
ATOM     23  H   UNL     1      20.674  35.536  12.003  1.00  0.00     0.211 HD
ENDBRANCH  14  22
BRANCH  15  24
ATOM     24  N   UNL     1      22.318  34.906  10.426  1.00  0.00    -0.348 N 
ATOM     25  C   UNL     1      23.240  35.398  11.369  1.00  0.00     0.217 C 
ATOM     26  H   UNL     1      22.354  33.881  10.161  1.00  0.00     0.163 HD
ATOM     27  C   UNL     1      24.278  34.507  12.003  1.00  0.00     0.114 C 
ATOM     28  O   UNL     1      23.186  36.627  11.684  1.00  0.00    -0.275 OA
ENDBRANCH  15  24
ENDBRANCH   9  10
BRANCH   9  29
ATOM     29  O   UNL     1      22.596  36.797   6.712  1.00  0.00    -0.388 OA
ATOM     30  H   UNL     1      22.686  37.655   6.236  1.00  0.00     0.211 HD
ENDBRANCH   9  29
ENDBRANCH   8   9
BRANCH   8  31
ATOM     31  O   UNL     1      21.084  39.272   8.158  1.00  0.00    -0.388 OA
ATOM     32  H   UNL     1      20.439  39.459   8.884  1.00  0.00     0.211 HD
ENDBRANCH   8  31
ENDBRANCH   7   8
ENDBRANCH   4   7
ENDBRANCH   2   3
ENDBRANCH   1   2
BRANCH   1  33
ATOM     33  C   UNL     1      27.715  37.290  11.534  1.00  0.00     0.120 A 
ATOM     34  C   UNL     1      28.803  38.092  11.813  1.00  0.00     0.138 A 
ATOM     35  N   UNL     1      28.005  36.058  11.951  1.00  0.00    -0.132 NA
ATOM     36  N   UNL     1      29.710  37.278  12.395  1.00  0.00    -0.252 N 
ATOM     37  N   UNL     1      29.223  36.060  12.474  1.00  0.00    -0.067 NA
BRANCH  36  38
ATOM     38  C   UNL     1      31.016  37.774  12.835  1.00  0.00     0.146 C 
BRANCH  38  39
ATOM     39  C   UNL     1      31.862  36.582  13.196  1.00  0.00     0.024 C 
BRANCH  39  40
ATOM     40  C   UNL     1      32.255  36.558  14.657  1.00  0.00     0.002 C 
BRANCH  40  41
ATOM     41  C   UNL     1      31.418  35.627  15.464  1.00  0.00     0.012 C 
BRANCH  41  42
ATOM     42  C   UNL     1      31.968  34.230  15.553  1.00  0.00     0.122 C 
BRANCH  42  43
ATOM     43  C   UNL     1      31.091  33.205  14.967  1.00  0.00     0.303 C 
ATOM     44  O   UNL     1      30.000  33.506  14.458  1.00  0.00    -0.252 OA
BRANCH  43  45
ATOM     45  O   UNL     1      31.470  31.851  14.971  1.00  0.00    -0.481 OA
ATOM     46  H   UNL     1      31.846  31.425  15.824  1.00  0.00     0.296 HD
ENDBRANCH  43  45
ENDBRANCH  42  43
ENDBRANCH  41  42
ENDBRANCH  40  41
ENDBRANCH  39  40
ENDBRANCH  38  39
ENDBRANCH  36  38
ENDBRANCH   1  33
TORSDOF 21
BEGIN_RES LYS A 131
REMARK  4 active torsions:
REMARK  status: ('A' for Active; 'I' for Inactive)
REMARK    1  A    between atoms: CA   and  CB  
REMARK    2  A    between atoms: CB   and  CG  
REMARK    3  A    between atoms: CG   and  CD  
REMARK    4  A    between atoms: CD   and  CE  
ROOT
ATOM      1  CA  LYS A 131      29.867  25.555  16.977  1.00 20.52     0.186 C 
ENDROOT
BRANCH   1   2
ATOM      2  CB  LYS A 131      28.345  25.722  17.026  1.00 20.94     0.034 C 
BRANCH   2   3
ATOM      3  CG  LYS A 131      27.600  24.409  16.836  1.00 22.96     0.005 C 
BRANCH   3   4
ATOM      4  CD  LYS A 131      26.178  24.491  17.316  1.00 24.33     0.041 C 
BRANCH   4   5
ATOM      5  CE  LYS A 131      26.157  24.937  18.775  1.00 26.91     0.338 C 
ATOM      6  NZ  LYS A 131      24.762  25.060  19.260  1.00 27.40     0.618 N 
ENDBRANCH   4   5
ENDBRANCH   3   4
ENDBRANCH   2   3
ENDBRANCH   1   2
END_RES LYS A 131
BEGIN_RES LYS A 135
REMARK  4 active torsions:
REMARK  status: ('A' for Active; 'I' for Inactive)
REMARK    5  A    between atoms: CA   and  CB  
REMARK    6  A    between atoms: CB   and  CG  
REMARK    7  A    between atoms: CG   and  CD  
REMARK    8  A    between atoms: CD   and  CE  
ROOT
ATOM      7  CA  LYS A 135      33.193  34.663   9.290  1.00 25.02     0.186 C 
ENDROOT
BRANCH   7   8
ATOM      8  CB  LYS A 135      32.060  35.360  10.034  1.00 26.63     0.034 C 
BRANCH   8   9
ATOM      9  CG  LYS A 135      30.715  34.714   9.825  1.00 29.45     0.005 C 
BRANCH   9  10
ATOM     10  CD  LYS A 135      29.983  35.362   8.660  1.00 32.00     0.041 C 
BRANCH  10  11
ATOM     11  CE  LYS A 135      30.188  36.865   8.673  1.00 34.25     0.338 C 
ATOM     12  NZ  LYS A 135      29.012  37.571   8.092  1.00 35.99     0.618 N 
ENDBRANCH  10  11
ENDBRANCH   9  10
ENDBRANCH   8   9
ENDBRANCH   7   8
END_RES LYS A 135
