REMARK VINA RESULT:    -4.037      7.369     12.304
REMARK INTER + INTRA:         -13.360
REMARK INTER:                  -8.017
REMARK INTRA:                  -5.343
REMARK UNBOUND:                -6.136
REMARK SMILES CC(=O)N[C@@H]1[C@@H](O)C[C@](O)(C(=O)O)O[C@H]1C(O)[C@H](O)CNC(=O)OCc1cn(Cc2ccsc2)nn1
REMARK SMILES IDX 21 1 22 2 23 3 20 5 18 6 16 7 15 8 9 9 8 10 14 11 6 12 5 13
REMARK SMILES IDX 10 14 11 16 12 17 13 18 7 20 4 22 2 23 1 25 3 26 17 27 19 29
REMARK SMILES IDX 24 31 25 32 26 33 27 34 36 35 28 36 35 37 29 38 30 39 31 40
REMARK SMILES IDX 34 41 32 42 33 43
REMARK H PARENT 21 4 10 15 13 19 7 21 4 24 17 28 19 30
REMARK Flexibility Score: inf
ROOT
ATOM      1  N   UNL     1      28.216  32.034  17.651  1.00  0.00    -0.319 N 
ATOM      2  C   UNL     1      27.830  32.066  16.291  1.00  0.00     0.407 C 
ATOM      3  O   UNL     1      28.707  32.219  15.412  1.00  0.00    -0.225 OA
ATOM      4  H   UNL     1      27.425  31.898  18.356  1.00  0.00     0.167 HD
ENDROOT
BRANCH   1   5
ATOM      5  C   UNL     1      29.576  32.172  18.123  1.00  0.00     0.154 C 
BRANCH   5   6
ATOM      6  C   UNL     1      29.910  31.004  18.992  1.00  0.00     0.165 C 
BRANCH   6   7
ATOM      7  C   UNL     1      28.717  30.147  19.361  1.00  0.00     0.176 C 
BRANCH   7   8
ATOM      8  C   UNL     1      29.028  29.391  20.609  1.00  0.00     0.178 C 
ATOM      9  C   UNL     1      30.418  27.795  21.539  1.00  0.00     0.269 C 
ATOM     10  C   UNL     1      29.509  27.974  22.731  1.00  0.00     0.112 C 
ATOM     11  O   UNL     1      30.276  28.800  20.603  1.00  0.00    -0.332 OA
ATOM     12  C   UNL     1      28.062  28.025  22.367  1.00  0.00     0.145 C 
ATOM     13  C   UNL     1      27.948  28.337  20.890  1.00  0.00     0.142 C 
BRANCH   9  14
ATOM     14  O   UNL     1      30.311  26.517  20.989  1.00  0.00    -0.357 OA
ATOM     15  H   UNL     1      31.160  26.268  20.557  1.00  0.00     0.214 HD
ENDBRANCH   9  14
BRANCH   9  16
ATOM     16  C   UNL     1      31.825  27.906  22.070  1.00  0.00     0.364 C 
ATOM     17  O   UNL     1      32.221  28.867  22.740  1.00  0.00    -0.246 OA
BRANCH  16  18
ATOM     18  O   UNL     1      32.728  26.880  21.797  1.00  0.00    -0.477 OA
ATOM     19  H   UNL     1      32.801  26.043  22.361  1.00  0.00     0.296 HD
ENDBRANCH  16  18
ENDBRANCH   9  16
BRANCH  12  20
ATOM     20  O   UNL     1      27.349  26.904  22.730  1.00  0.00    -0.391 OA
ATOM     21  H   UNL     1      27.527  26.131  22.110  1.00  0.00     0.211 HD
ENDBRANCH  12  20
BRANCH  13  22
ATOM     22  N   UNL     1      26.653  28.851  20.527  1.00  0.00    -0.348 N 
ATOM     23  C   UNL     1      25.625  27.978  20.045  1.00  0.00     0.217 C 
ATOM     24  H   UNL     1      26.416  29.864  20.599  1.00  0.00     0.163 HD
ATOM     25  C   UNL     1      24.285  28.423  19.657  1.00  0.00     0.114 C 
ATOM     26  O   UNL     1      25.892  26.734  19.950  1.00  0.00    -0.275 OA
ENDBRANCH  13  22
ENDBRANCH   7   8
BRANCH   7  27
ATOM     27  O   UNL     1      28.526  29.262  18.299  1.00  0.00    -0.388 OA
ATOM     28  H   UNL     1      27.562  29.059  18.209  1.00  0.00     0.211 HD
ENDBRANCH   7  27
ENDBRANCH   6   7
BRANCH   6  29
ATOM     29  O   UNL     1      30.419  31.511  20.199  1.00  0.00    -0.388 OA
ATOM     30  H   UNL     1      29.755  31.509  20.922  1.00  0.00     0.211 HD
ENDBRANCH   6  29
ENDBRANCH   5   6
ENDBRANCH   1   5
BRANCH   2  31
ATOM     31  O   UNL     1      26.469  31.923  15.951  1.00  0.00    -0.443 OA
BRANCH  31  32
ATOM     32  C   UNL     1      25.759  30.947  16.701  1.00  0.00     0.294 C 
BRANCH  32  33
ATOM     33  C   UNL     1      24.856  30.236  15.785  1.00  0.00     0.120 A 
ATOM     34  C   UNL     1      24.763  30.367  14.409  1.00  0.00     0.138 A 
ATOM     35  N   UNL     1      23.941  29.308  16.139  1.00  0.00    -0.132 NA
ATOM     36  N   UNL     1      23.805  29.519  14.012  1.00  0.00    -0.248 N 
ATOM     37  N   UNL     1      23.305  28.877  15.050  1.00  0.00    -0.067 NA
BRANCH  36  38
ATOM     38  C   UNL     1      23.380  29.333  12.652  1.00  0.00     0.182 C 
BRANCH  38  39
ATOM     39  C   UNL     1      21.946  29.826  12.466  1.00  0.00    -0.016 A 
ATOM     40  C   UNL     1      21.623  31.108  12.588  1.00  0.00     0.017 A 
ATOM     41  C   UNL     1      20.979  28.894  12.164  1.00  0.00     0.070 A 
ATOM     42  C   UNL     1      20.325  31.505  12.412  1.00  0.00     0.065 A 
ATOM     43  S   UNL     1      19.489  29.948  12.045  1.00  0.00    -0.152 S 
ENDBRANCH  38  39
ENDBRANCH  36  38
ENDBRANCH  32  33
ENDBRANCH  31  32
ENDBRANCH   2  31
TORSDOF 16
BEGIN_RES LYS A 131
REMARK  4 active torsions:
REMARK  status: ('A' for Active; 'I' for Inactive)
REMARK    1  A    between atoms: CA   and  CB  
REMARK    2  A    between atoms: CB   and  CG  
REMARK    3  A    between atoms: CG   and  CD  
REMARK    4  A    between atoms: CD   and  CE  
ROOT
ATOM      1  CA  LYS A 131      29.867  25.555  16.977  1.00 20.52     0.186 C 
ENDROOT
BRANCH   1   2
ATOM      2  CB  LYS A 131      28.345  25.722  17.026  1.00 20.94     0.034 C 
BRANCH   2   3
ATOM      3  CG  LYS A 131      27.601  24.401  16.899  1.00 22.96     0.005 C 
BRANCH   3   4
ATOM      4  CD  LYS A 131      26.144  24.536  17.244  1.00 24.33     0.041 C 
BRANCH   4   5
ATOM      5  CE  LYS A 131      25.618  23.201  17.760  1.00 26.91     0.338 C 
ATOM      6  NZ  LYS A 131      25.552  23.207  19.241  1.00 27.40     0.618 N 
ENDBRANCH   4   5
ENDBRANCH   3   4
ENDBRANCH   2   3
ENDBRANCH   1   2
END_RES LYS A 131
BEGIN_RES LYS A 135
REMARK  4 active torsions:
REMARK  status: ('A' for Active; 'I' for Inactive)
REMARK    5  A    between atoms: CA   and  CB  
REMARK    6  A    between atoms: CB   and  CG  
REMARK    7  A    between atoms: CG   and  CD  
REMARK    8  A    between atoms: CD   and  CE  
ROOT
ATOM      7  CA  LYS A 135      33.193  34.663   9.290  1.00 25.02     0.186 C 
ENDROOT
BRANCH   7   8
ATOM      8  CB  LYS A 135      32.060  35.360  10.034  1.00 26.63     0.034 C 
BRANCH   8   9
ATOM      9  CG  LYS A 135      30.720  34.696   9.850  1.00 29.45     0.005 C 
BRANCH   9  10
ATOM     10  CD  LYS A 135      30.425  34.481   8.374  1.00 32.00     0.041 C 
BRANCH  10  11
ATOM     11  CE  LYS A 135      29.364  35.454   7.895  1.00 34.25     0.338 C 
ATOM     12  NZ  LYS A 135      28.007  34.845   7.968  1.00 35.99     0.618 N 
ENDBRANCH  10  11
ENDBRANCH   9  10
ENDBRANCH   8   9
ENDBRANCH   7   8
END_RES LYS A 135
