REMARK VINA RESULT:    -3.759      7.444     11.361
REMARK INTER + INTRA:         -14.151
REMARK INTER:                  -6.725
REMARK INTRA:                  -7.426
REMARK UNBOUND:                -7.426
REMARK SMILES CC(=O)N[C@@H]1[C@@H](O)C[C@](O)(C(=O)O)O[C@H]1C(O)[C@H](O)CNC(=O)OCc1cn(Cc2ccccc2Br)nn1
REMARK SMILES IDX 21 1 22 2 23 3 20 5 18 6 16 7 15 8 9 9 8 10 14 11 6 12 5 13
REMARK SMILES IDX 10 14 11 16 12 17 13 18 7 20 4 22 2 23 1 25 3 26 17 27 19 29
REMARK SMILES IDX 24 31 25 32 26 33 27 34 38 35 28 36 37 37 29 38 30 39 31 40
REMARK SMILES IDX 35 41 32 42 34 43 36 44 33 45
REMARK H PARENT 21 4 10 15 13 19 7 21 4 24 17 28 19 30
REMARK Flexibility Score: inf
ROOT
ATOM      1  N   UNL     1      22.063  37.826   7.917  1.00  0.00    -0.319 N 
ATOM      2  C   UNL     1      21.233  38.163   8.992  1.00  0.00     0.407 C 
ATOM      3  O   UNL     1      21.483  39.205   9.660  1.00  0.00    -0.225 OA
ATOM      4  H   UNL     1      21.819  36.947   7.382  1.00  0.00     0.167 HD
ENDROOT
BRANCH   1   5
ATOM      5  C   UNL     1      23.219  38.585   7.492  1.00  0.00     0.154 C 
BRANCH   5   6
ATOM      6  C   UNL     1      24.448  38.077   8.215  1.00  0.00     0.165 C 
BRANCH   6   7
ATOM      7  C   UNL     1      25.026  39.136   9.129  1.00  0.00     0.176 C 
BRANCH   7   8
ATOM      8  C   UNL     1      25.389  38.576  10.490  1.00  0.00     0.178 C 
ATOM      9  C   UNL     1      25.703  36.518  11.541  1.00  0.00     0.269 C 
ATOM     10  C   UNL     1      24.751  36.854  12.625  1.00  0.00     0.112 C 
ATOM     11  O   UNL     1      25.382  37.218  10.389  1.00  0.00    -0.332 OA
ATOM     12  C   UNL     1      23.920  38.066  12.458  1.00  0.00     0.145 C 
ATOM     13  C   UNL     1      24.494  39.127  11.564  1.00  0.00     0.142 C 
BRANCH   9  14
ATOM     14  O   UNL     1      25.531  35.152  11.196  1.00  0.00    -0.357 OA
ATOM     15  H   UNL     1      25.881  34.557  11.910  1.00  0.00     0.214 HD
ENDBRANCH   9  14
BRANCH   9  16
ATOM     16  C   UNL     1      27.094  36.693  11.963  1.00  0.00     0.364 C 
ATOM     17  O   UNL     1      27.423  37.079  13.119  1.00  0.00    -0.246 OA
BRANCH  16  18
ATOM     18  O   UNL     1      28.116  36.427  11.063  1.00  0.00    -0.477 OA
ATOM     19  H   UNL     1      27.976  36.410  10.060  1.00  0.00     0.296 HD
ENDBRANCH  16  18
ENDBRANCH   9  16
BRANCH  12  20
ATOM     20  O   UNL     1      22.621  37.715  12.044  1.00  0.00    -0.391 OA
ATOM     21  H   UNL     1      22.178  37.367  12.882  1.00  0.00     0.211 HD
ENDBRANCH  12  20
BRANCH  13  22
ATOM     22  N   UNL     1      25.130  40.176  12.329  1.00  0.00    -0.348 N 
ATOM     23  C   UNL     1      24.620  41.498  12.388  1.00  0.00     0.217 C 
ATOM     24  H   UNL     1      25.997  39.967  12.861  1.00  0.00     0.163 HD
ATOM     25  C   UNL     1      25.263  42.591  13.171  1.00  0.00     0.114 C 
ATOM     26  O   UNL     1      23.552  41.729  11.725  1.00  0.00    -0.275 OA
ENDBRANCH  13  22
ENDBRANCH   7   8
BRANCH   7  27
ATOM     27  O   UNL     1      24.148  40.211   9.221  1.00  0.00    -0.388 OA
ATOM     28  H   UNL     1      24.615  41.034   8.877  1.00  0.00     0.211 HD
ENDBRANCH   7  27
ENDBRANCH   6   7
BRANCH   6  29
ATOM     29  O   UNL     1      25.373  37.757   7.193  1.00  0.00    -0.388 OA
ATOM     30  H   UNL     1      24.971  37.795   6.310  1.00  0.00     0.211 HD
ENDBRANCH   6  29
ENDBRANCH   5   6
ENDBRANCH   1   5
BRANCH   2  31
ATOM     31  O   UNL     1      20.127  37.427   9.392  1.00  0.00    -0.443 OA
BRANCH  31  32
ATOM     32  C   UNL     1      20.107  36.020   9.218  1.00  0.00     0.294 C 
BRANCH  32  33
ATOM     33  C   UNL     1      20.966  35.339  10.209  1.00  0.00     0.120 A 
ATOM     34  C   UNL     1      20.542  34.576  11.307  1.00  0.00     0.138 A 
ATOM     35  N   UNL     1      22.300  35.297  10.288  1.00  0.00    -0.132 NA
ATOM     36  N   UNL     1      21.576  34.114  11.989  1.00  0.00    -0.248 N 
ATOM     37  N   UNL     1      22.664  34.580  11.330  1.00  0.00    -0.067 NA
BRANCH  36  38
ATOM     38  C   UNL     1      21.725  33.308  13.178  1.00  0.00     0.182 C 
BRANCH  38  39
ATOM     39  C   UNL     1      22.118  31.922  12.960  1.00  0.00    -0.012 A 
ATOM     40  C   UNL     1      21.193  30.973  12.518  1.00  0.00     0.007 A 
ATOM     41  C   UNL     1      23.400  31.491  13.144  1.00  0.00     0.023 A 
ATOM     42  C   UNL     1      21.586  29.684  12.288  1.00  0.00     0.000 A 
ATOM     43  C   UNL     1      23.794  30.187  12.911  1.00  0.00     0.016 A 
ATOM     44  Br  UNL     1      24.767  32.685  13.800  1.00  0.00    -0.050 Br
ATOM     45  C   UNL     1      22.879  29.261  12.475  1.00  0.00     0.001 A 
ENDBRANCH  38  39
ENDBRANCH  36  38
ENDBRANCH  32  33
ENDBRANCH  31  32
ENDBRANCH   2  31
TORSDOF 16
BEGIN_RES LYS A 131
REMARK  4 active torsions:
REMARK  status: ('A' for Active; 'I' for Inactive)
REMARK    1  A    between atoms: CA   and  CB  
REMARK    2  A    between atoms: CB   and  CG  
REMARK    3  A    between atoms: CG   and  CD  
REMARK    4  A    between atoms: CD   and  CE  
ROOT
ATOM      1  CA  LYS A 131      29.867  25.555  16.977  1.00 20.52     0.186 C 
ENDROOT
BRANCH   1   2
ATOM      2  CB  LYS A 131      28.345  25.722  17.026  1.00 20.94     0.034 C 
BRANCH   2   3
ATOM      3  CG  LYS A 131      27.602  24.398  16.933  1.00 22.96     0.005 C 
BRANCH   3   4
ATOM      4  CD  LYS A 131      26.135  24.550  17.223  1.00 24.33     0.041 C 
BRANCH   4   5
ATOM      5  CE  LYS A 131      25.936  25.614  18.298  1.00 26.91     0.338 C 
ATOM      6  NZ  LYS A 131      25.678  24.981  19.613  1.00 27.40     0.618 N 
ENDBRANCH   4   5
ENDBRANCH   3   4
ENDBRANCH   2   3
ENDBRANCH   1   2
END_RES LYS A 131
BEGIN_RES LYS A 135
REMARK  4 active torsions:
REMARK  status: ('A' for Active; 'I' for Inactive)
REMARK    5  A    between atoms: CA   and  CB  
REMARK    6  A    between atoms: CB   and  CG  
REMARK    7  A    between atoms: CG   and  CD  
REMARK    8  A    between atoms: CD   and  CE  
ROOT
ATOM      7  CA  LYS A 135      33.193  34.663   9.290  1.00 25.02     0.186 C 
ENDROOT
BRANCH   7   8
ATOM      8  CB  LYS A 135      32.060  35.360  10.034  1.00 26.63     0.034 C 
BRANCH   8   9
ATOM      9  CG  LYS A 135      30.708  34.742   9.789  1.00 29.45     0.005 C 
BRANCH   9  10
ATOM     10  CD  LYS A 135      30.456  34.576   8.298  1.00 32.00     0.041 C 
BRANCH  10  11
ATOM     11  CE  LYS A 135      28.997  34.834   7.972  1.00 34.25     0.338 C 
ATOM     12  NZ  LYS A 135      28.857  35.571   6.685  1.00 35.99     0.618 N 
ENDBRANCH  10  11
ENDBRANCH   9  10
ENDBRANCH   8   9
ENDBRANCH   7   8
END_RES LYS A 135
