REMARK VINA RESULT:    -5.108      2.150      5.057
REMARK INTER + INTRA:         -14.013
REMARK INTER:                  -8.242
REMARK INTRA:                  -5.771
REMARK UNBOUND:                -4.724
REMARK SMILES CC(=O)N[C@@H]1[C@@H](O)C[C@](O)(C(=O)O)O[C@H]1C(O)[C@H](O)CNC(=O)OCc1cn([C@@H](C)C(=O)O)nn1
REMARK SMILES IDX 21 1 22 2 23 3 20 5 18 6 16 7 15 8 9 9 8 10 14 11 6 12 5 13
REMARK SMILES IDX 10 14 11 16 12 17 13 18 7 20 4 22 2 23 1 25 3 26 17 27 19 29
REMARK SMILES IDX 24 31 25 32 26 33 27 34 35 35 28 36 34 37 29 38 30 39 31 40
REMARK SMILES IDX 32 41 33 42
REMARK H PARENT 21 4 10 15 13 19 7 21 4 24 17 28 19 30 33 43
REMARK Flexibility Score: inf
ROOT
ATOM      1  N   UNL     1      27.510  30.104  17.296  1.00  0.00    -0.319 N 
ATOM      2  C   UNL     1      27.199  28.933  18.024  1.00  0.00     0.407 C 
ATOM      3  O   UNL     1      27.412  27.786  17.554  1.00  0.00    -0.225 OA
ATOM      4  H   UNL     1      27.313  31.026  17.728  1.00  0.00     0.167 HD
ENDROOT
BRANCH   1   5
ATOM      5  C   UNL     1      28.087  30.054  15.985  1.00  0.00     0.154 C 
BRANCH   5   6
ATOM      6  C   UNL     1      28.575  31.422  15.496  1.00  0.00     0.165 C 
BRANCH   6   7
ATOM      7  C   UNL     1      29.698  31.834  16.383  1.00  0.00     0.176 C 
BRANCH   7   8
ATOM      8  C   UNL     1      30.772  32.660  15.762  1.00  0.00     0.178 C 
ATOM      9  C   UNL     1      31.186  34.112  17.543  1.00  0.00     0.269 C 
ATOM     10  C   UNL     1      30.039  34.902  17.054  1.00  0.00     0.112 C 
ATOM     11  O   UNL     1      31.625  33.064  16.778  1.00  0.00    -0.332 OA
ATOM     12  C   UNL     1      29.831  34.970  15.583  1.00  0.00     0.145 C 
ATOM     13  C   UNL     1      30.360  33.762  14.864  1.00  0.00     0.142 C 
BRANCH   9  14
ATOM     14  O   UNL     1      30.769  33.527  18.768  1.00  0.00    -0.357 OA
ATOM     15  H   UNL     1      29.788  33.554  18.779  1.00  0.00     0.214 HD
ENDBRANCH   9  14
BRANCH   9  16
ATOM     16  C   UNL     1      32.306  35.029  17.888  1.00  0.00     0.364 C 
ATOM     17  O   UNL     1      33.094  35.480  17.013  1.00  0.00    -0.246 OA
BRANCH  16  18
ATOM     18  O   UNL     1      32.522  35.425  19.197  1.00  0.00    -0.477 OA
ATOM     19  H   UNL     1      32.677  36.389  19.473  1.00  0.00     0.296 HD
ENDBRANCH  16  18
ENDBRANCH   9  16
BRANCH  12  20
ATOM     20  O   UNL     1      28.452  35.141  15.362  1.00  0.00    -0.391 OA
ATOM     21  H   UNL     1      28.024  34.297  15.648  1.00  0.00     0.211 HD
ENDBRANCH  12  20
BRANCH  13  22
ATOM     22  N   UNL     1      31.569  34.160  14.115  1.00  0.00    -0.348 N 
ATOM     23  C   UNL     1      31.515  35.158  13.117  1.00  0.00     0.217 C 
ATOM     24  H   UNL     1      32.493  33.726  14.292  1.00  0.00     0.163 HD
ATOM     25  C   UNL     1      32.696  35.588  12.344  1.00  0.00     0.114 C 
ATOM     26  O   UNL     1      30.407  35.730  12.852  1.00  0.00    -0.275 OA
ENDBRANCH  13  22
ENDBRANCH   7   8
BRANCH   7  27
ATOM     27  O   UNL     1      30.349  30.610  16.744  1.00  0.00    -0.388 OA
ATOM     28  H   UNL     1      30.906  30.854  17.526  1.00  0.00     0.211 HD
ENDBRANCH   7  27
ENDBRANCH   6   7
BRANCH   6  29
ATOM     29  O   UNL     1      27.478  32.265  15.623  1.00  0.00    -0.388 OA
ATOM     30  H   UNL     1      27.382  32.751  14.765  1.00  0.00     0.211 HD
ENDBRANCH   6  29
ENDBRANCH   5   6
ENDBRANCH   1   5
BRANCH   2  31
ATOM     31  O   UNL     1      26.634  29.009  19.311  1.00  0.00    -0.443 OA
BRANCH  31  32
ATOM     32  C   UNL     1      27.052  30.007  20.225  1.00  0.00     0.294 C 
BRANCH  32  33
ATOM     33  C   UNL     1      28.525  30.184  20.189  1.00  0.00     0.120 A 
ATOM     34  C   UNL     1      29.473  29.334  20.764  1.00  0.00     0.139 A 
ATOM     35  N   UNL     1      29.254  31.167  19.616  1.00  0.00    -0.132 NA
ATOM     36  N   UNL     1      30.694  29.821  20.523  1.00  0.00    -0.238 N 
ATOM     37  N   UNL     1      30.555  30.924  19.832  1.00  0.00    -0.066 NA
BRANCH  36  38
ATOM     38  C   UNL     1      31.973  29.241  20.947  1.00  0.00     0.215 C 
ATOM     39  C   UNL     1      32.328  29.742  22.337  1.00  0.00     0.046 C 
BRANCH  38  40
ATOM     40  C   UNL     1      31.946  27.780  20.920  1.00  0.00     0.328 C 
ATOM     41  O   UNL     1      31.844  27.137  21.989  1.00  0.00    -0.250 OA
BRANCH  40  42
ATOM     42  O   UNL     1      32.032  27.025  19.752  1.00  0.00    -0.480 OA
ATOM     43  H   UNL     1      32.338  27.442  18.880  1.00  0.00     0.296 HD
ENDBRANCH  40  42
ENDBRANCH  38  40
ENDBRANCH  36  38
ENDBRANCH  32  33
ENDBRANCH  31  32
ENDBRANCH   2  31
TORSDOF 17
BEGIN_RES LYS A 131
REMARK  4 active torsions:
REMARK  status: ('A' for Active; 'I' for Inactive)
REMARK    1  A    between atoms: CA   and  CB  
REMARK    2  A    between atoms: CB   and  CG  
REMARK    3  A    between atoms: CG   and  CD  
REMARK    4  A    between atoms: CD   and  CE  
ROOT
ATOM      1  CA  LYS A 131      29.867  25.555  16.977  1.00 20.52     0.186 C 
ENDROOT
BRANCH   1   2
ATOM      2  CB  LYS A 131      28.345  25.722  17.026  1.00 20.94     0.034 C 
BRANCH   2   3
ATOM      3  CG  LYS A 131      27.599  24.444  16.675  1.00 22.96     0.005 C 
BRANCH   3   4
ATOM      4  CD  LYS A 131      27.045  23.759  17.894  1.00 24.33     0.041 C 
BRANCH   4   5
ATOM      5  CE  LYS A 131      26.010  24.661  18.558  1.00 26.91     0.338 C 
ATOM      6  NZ  LYS A 131      24.884  24.929  17.632  1.00 27.40     0.618 N 
ENDBRANCH   4   5
ENDBRANCH   3   4
ENDBRANCH   2   3
ENDBRANCH   1   2
END_RES LYS A 131
BEGIN_RES LYS A 135
REMARK  4 active torsions:
REMARK  status: ('A' for Active; 'I' for Inactive)
REMARK    5  A    between atoms: CA   and  CB  
REMARK    6  A    between atoms: CB   and  CG  
REMARK    7  A    between atoms: CG   and  CD  
REMARK    8  A    between atoms: CD   and  CE  
ROOT
ATOM      7  CA  LYS A 135      33.193  34.663   9.290  1.00 25.02     0.186 C 
ENDROOT
BRANCH   7   8
ATOM      8  CB  LYS A 135      32.060  35.360  10.034  1.00 26.63     0.034 C 
BRANCH   8   9
ATOM      9  CG  LYS A 135      30.779  35.438   9.244  1.00 29.45     0.005 C 
BRANCH   9  10
ATOM     10  CD  LYS A 135      30.178  34.053   9.058  1.00 32.00     0.041 C 
BRANCH  10  11
ATOM     11  CE  LYS A 135      28.664  34.118   9.110  1.00 34.25     0.338 C 
ATOM     12  NZ  LYS A 135      28.120  34.890   7.958  1.00 35.99     0.618 N 
ENDBRANCH  10  11
ENDBRANCH   9  10
ENDBRANCH   8   9
ENDBRANCH   7   8
END_RES LYS A 135
