REMARK VINA RESULT:    -4.072      7.366     11.774
REMARK INTER + INTRA:         -13.422
REMARK INTER:                  -7.182
REMARK INTRA:                  -6.240
REMARK UNBOUND:                -6.136
REMARK SMILES CC(=O)N[C@@H]1[C@@H](O)C[C@](O)(C(=O)O)O[C@H]1C(O)[C@H](O)CNC(=O)OCc1cn(Cc2ccsc2)nn1
REMARK SMILES IDX 21 1 22 2 23 3 20 5 18 6 16 7 15 8 9 9 8 10 14 11 6 12 5 13
REMARK SMILES IDX 10 14 11 16 12 17 13 18 7 20 4 22 2 23 1 25 3 26 17 27 19 29
REMARK SMILES IDX 24 31 25 32 26 33 27 34 36 35 28 36 35 37 29 38 30 39 31 40
REMARK SMILES IDX 34 41 32 42 33 43
REMARK H PARENT 21 4 10 15 13 19 7 21 4 24 17 28 19 30
REMARK Flexibility Score: inf
ROOT
ATOM      1  N   UNL     1      37.525  32.786  20.578  1.00  0.00    -0.319 N 
ATOM      2  C   UNL     1      36.763  32.029  21.497  1.00  0.00     0.407 C 
ATOM      3  O   UNL     1      37.355  31.336  22.355  1.00  0.00    -0.225 OA
ATOM      4  H   UNL     1      36.966  33.360  19.872  1.00  0.00     0.167 HD
ENDROOT
BRANCH   1   5
ATOM      5  C   UNL     1      38.970  32.824  20.544  1.00  0.00     0.154 C 
BRANCH   5   6
ATOM      6  C   UNL     1      39.418  33.054  19.137  1.00  0.00     0.165 C 
BRANCH   6   7
ATOM      7  C   UNL     1      39.429  34.510  18.723  1.00  0.00     0.176 C 
BRANCH   7   8
ATOM      8  C   UNL     1      38.431  34.713  17.632  1.00  0.00     0.178 C 
ATOM      9  C   UNL     1      38.180  35.154  15.377  1.00  0.00     0.269 C 
ATOM     10  C   UNL     1      36.716  35.192  15.743  1.00  0.00     0.112 C 
ATOM     11  O   UNL     1      38.963  34.589  16.364  1.00  0.00    -0.332 OA
ATOM     12  C   UNL     1      36.442  35.950  16.999  1.00  0.00     0.145 C 
ATOM     13  C   UNL     1      37.733  36.073  17.780  1.00  0.00     0.142 C 
BRANCH   9  14
ATOM     14  O   UNL     1      38.646  36.401  14.957  1.00  0.00    -0.357 OA
ATOM     15  H   UNL     1      37.948  36.859  14.435  1.00  0.00     0.214 HD
ENDBRANCH   9  14
BRANCH   9  16
ATOM     16  C   UNL     1      38.285  34.244  14.180  1.00  0.00     0.364 C 
ATOM     17  O   UNL     1      38.743  34.610  13.090  1.00  0.00    -0.246 OA
BRANCH  16  18
ATOM     18  O   UNL     1      37.847  32.926  14.298  1.00  0.00    -0.477 OA
ATOM     19  H   UNL     1      38.479  32.138  14.364  1.00  0.00     0.296 HD
ENDBRANCH  16  18
ENDBRANCH   9  16
BRANCH  12  20
ATOM     20  O   UNL     1      35.823  37.165  16.802  1.00  0.00    -0.391 OA
ATOM     21  H   UNL     1      36.334  37.919  17.231  1.00  0.00     0.211 HD
ENDBRANCH  12  20
BRANCH  13  22
ATOM     22  N   UNL     1      37.517  36.367  19.172  1.00  0.00    -0.348 N 
ATOM     23  C   UNL     1      37.524  37.718  19.648  1.00  0.00     0.217 C 
ATOM     24  H   UNL     1      37.351  35.618  19.880  1.00  0.00     0.163 HD
ATOM     25  C   UNL     1      37.313  38.097  21.047  1.00  0.00     0.114 C 
ATOM     26  O   UNL     1      37.725  38.649  18.800  1.00  0.00    -0.275 OA
ENDBRANCH  13  22
ENDBRANCH   7   8
BRANCH   7  27
ATOM     27  O   UNL     1      40.716  34.775  18.251  1.00  0.00    -0.388 OA
ATOM     28  H   UNL     1      41.113  33.943  17.894  1.00  0.00     0.211 HD
ENDBRANCH   7  27
ENDBRANCH   6   7
BRANCH   6  29
ATOM     29  O   UNL     1      38.497  32.412  18.294  1.00  0.00    -0.388 OA
ATOM     30  H   UNL     1      37.847  31.866  18.787  1.00  0.00     0.211 HD
ENDBRANCH   6  29
ENDBRANCH   5   6
ENDBRANCH   1   5
BRANCH   2  31
ATOM     31  O   UNL     1      35.355  32.069  21.433  1.00  0.00    -0.443 OA
BRANCH  31  32
ATOM     32  C   UNL     1      34.754  33.196  22.056  1.00  0.00     0.294 C 
BRANCH  32  33
ATOM     33  C   UNL     1      34.319  34.122  21.001  1.00  0.00     0.120 A 
ATOM     34  C   UNL     1      33.063  34.228  20.426  1.00  0.00     0.138 A 
ATOM     35  N   UNL     1      35.090  35.052  20.398  1.00  0.00    -0.132 NA
ATOM     36  N   UNL     1      33.144  35.207  19.515  1.00  0.00    -0.248 N 
ATOM     37  N   UNL     1      34.364  35.709  19.493  1.00  0.00    -0.067 NA
BRANCH  36  38
ATOM     38  C   UNL     1      32.062  35.649  18.681  1.00  0.00     0.182 C 
BRANCH  38  39
ATOM     39  C   UNL     1      32.099  34.935  17.331  1.00  0.00    -0.016 A 
ATOM     40  C   UNL     1      31.524  33.751  17.146  1.00  0.00     0.017 A 
ATOM     41  C   UNL     1      32.752  35.557  16.291  1.00  0.00     0.070 A 
ATOM     42  C   UNL     1      31.581  33.149  15.919  1.00  0.00     0.065 A 
ATOM     43  S   UNL     1      32.520  34.342  14.943  1.00  0.00    -0.152 S 
ENDBRANCH  38  39
ENDBRANCH  36  38
ENDBRANCH  32  33
ENDBRANCH  31  32
ENDBRANCH   2  31
TORSDOF 16
BEGIN_RES LYS A 131
REMARK  4 active torsions:
REMARK  status: ('A' for Active; 'I' for Inactive)
REMARK    1  A    between atoms: CA   and  CB  
REMARK    2  A    between atoms: CB   and  CG  
REMARK    3  A    between atoms: CG   and  CD  
REMARK    4  A    between atoms: CD   and  CE  
ROOT
ATOM      1  CA  LYS A 131      29.867  25.555  16.977  1.00 20.52     0.186 C 
ENDROOT
BRANCH   1   2
ATOM      2  CB  LYS A 131      28.345  25.722  17.026  1.00 20.94     0.034 C 
BRANCH   2   3
ATOM      3  CG  LYS A 131      27.602  24.399  16.919  1.00 22.96     0.005 C 
BRANCH   3   4
ATOM      4  CD  LYS A 131      26.157  24.528  17.314  1.00 24.33     0.041 C 
BRANCH   4   5
ATOM      5  CE  LYS A 131      25.698  23.242  17.993  1.00 26.91     0.338 C 
ATOM      6  NZ  LYS A 131      24.488  22.706  17.326  1.00 27.40     0.618 N 
ENDBRANCH   4   5
ENDBRANCH   3   4
ENDBRANCH   2   3
ENDBRANCH   1   2
END_RES LYS A 131
BEGIN_RES LYS A 135
REMARK  4 active torsions:
REMARK  status: ('A' for Active; 'I' for Inactive)
REMARK    5  A    between atoms: CA   and  CB  
REMARK    6  A    between atoms: CB   and  CG  
REMARK    7  A    between atoms: CG   and  CD  
REMARK    8  A    between atoms: CD   and  CE  
ROOT
ATOM      7  CA  LYS A 135      33.193  34.663   9.290  1.00 25.02     0.186 C 
ENDROOT
BRANCH   7   8
ATOM      8  CB  LYS A 135      32.060  35.360  10.034  1.00 26.63     0.034 C 
BRANCH   8   9
ATOM      9  CG  LYS A 135      30.706  34.751   9.777  1.00 29.45     0.005 C 
BRANCH   9  10
ATOM     10  CD  LYS A 135      30.500  34.507   8.290  1.00 32.00     0.041 C 
BRANCH  10  11
ATOM     11  CE  LYS A 135      29.092  34.891   7.877  1.00 34.25     0.338 C 
ATOM     12  NZ  LYS A 135      28.827  36.331   8.150  1.00 35.99     0.618 N 
ENDBRANCH  10  11
ENDBRANCH   9  10
ENDBRANCH   8   9
ENDBRANCH   7   8
END_RES LYS A 135
