REMARK VINA RESULT:    -4.140      3.125      5.651
REMARK INTER + INTRA:         -14.450
REMARK INTER:                  -9.359
REMARK INTRA:                  -5.091
REMARK UNBOUND:                -7.042
REMARK SMILES CC(=O)N[C@@H]1[C@@H](O)C[C@](O)(C(=O)O)O[C@H]1C(O)[C@H](O)CNC(=O)OCc1cn(-c2ncccc2C#N)nn1
REMARK SMILES IDX 21 1 22 2 23 3 20 5 18 6 16 7 15 8 9 9 8 10 14 11 6 12 5 13
REMARK SMILES IDX 10 14 11 16 12 17 13 18 7 20 4 22 2 23 1 25 3 26 17 27 19 29
REMARK SMILES IDX 24 31 25 32 26 33 27 34 38 35 28 36 37 37 29 38 30 39 34 40
REMARK SMILES IDX 31 41 33 42 32 43 35 44 36 45
REMARK H PARENT 21 4 10 15 13 19 7 21 4 24 17 28 19 30
REMARK Flexibility Score: inf
ROOT
ATOM      1  N   UNL     1      25.213  36.601  11.010  1.00  0.00    -0.319 N 
ATOM      2  C   UNL     1      26.108  36.011  10.055  1.00  0.00     0.407 C 
ATOM      3  O   UNL     1      25.741  35.737   8.907  1.00  0.00    -0.225 OA
ATOM      4  H   UNL     1      25.687  36.800  11.953  1.00  0.00     0.167 HD
ENDROOT
BRANCH   1   5
ATOM      5  C   UNL     1      23.893  36.937  10.766  1.00  0.00     0.154 C 
BRANCH   5   6
ATOM      6  C   UNL     1      22.788  36.027  11.358  1.00  0.00     0.165 C 
BRANCH   6   7
ATOM      7  C   UNL     1      22.074  35.510  10.169  1.00  0.00     0.176 C 
BRANCH   7   8
ATOM      8  C   UNL     1      20.786  36.124   9.755  1.00  0.00     0.178 C 
ATOM      9  C   UNL     1      19.317  34.865   8.417  1.00  0.00     0.269 C 
ATOM     10  C   UNL     1      18.579  36.072   7.891  1.00  0.00     0.112 C 
ATOM     11  O   UNL     1      19.823  35.078   9.701  1.00  0.00    -0.332 OA
ATOM     12  C   UNL     1      19.250  37.366   8.395  1.00  0.00     0.145 C 
ATOM     13  C   UNL     1      20.734  36.952   8.554  1.00  0.00     0.142 C 
BRANCH   9  14
ATOM     14  O   UNL     1      20.264  34.437   7.499  1.00  0.00    -0.357 OA
ATOM     15  H   UNL     1      21.179  34.461   7.816  1.00  0.00     0.214 HD
ENDBRANCH   9  14
BRANCH   9  16
ATOM     16  C   UNL     1      18.292  33.818   8.606  1.00  0.00     0.364 C 
ATOM     17  O   UNL     1      17.582  33.268   7.856  1.00  0.00    -0.246 OA
BRANCH  16  18
ATOM     18  O   UNL     1      18.175  33.414  10.025  1.00  0.00    -0.477 OA
ATOM     19  H   UNL     1      17.222  33.250  10.355  1.00  0.00     0.296 HD
ENDBRANCH  16  18
ENDBRANCH   9  16
BRANCH  12  20
ATOM     20  O   UNL     1      19.102  38.386   7.492  1.00  0.00    -0.391 OA
ATOM     21  H   UNL     1      19.353  38.113   6.591  1.00  0.00     0.211 HD
ENDBRANCH  12  20
BRANCH  13  22
ATOM     22  N   UNL     1      21.507  38.199   8.652  1.00  0.00    -0.348 N 
ATOM     23  C   UNL     1      22.638  38.351   7.835  1.00  0.00     0.217 C 
ATOM     24  H   UNL     1      21.210  38.921   9.280  1.00  0.00     0.163 HD
ATOM     25  C   UNL     1      23.595  39.370   7.611  1.00  0.00     0.114 C 
ATOM     26  O   UNL     1      22.793  37.220   7.089  1.00  0.00    -0.275 OA
ENDBRANCH  13  22
ENDBRANCH   7   8
BRANCH   7  27
ATOM     27  O   UNL     1      22.941  35.140   9.181  1.00  0.00    -0.388 OA
ATOM     28  H   UNL     1      22.841  35.687   8.358  1.00  0.00     0.211 HD
ENDBRANCH   7  27
ENDBRANCH   6   7
BRANCH   6  29
ATOM     29  O   UNL     1      22.105  36.819  12.238  1.00  0.00    -0.388 OA
ATOM     30  H   UNL     1      21.327  36.323  12.596  1.00  0.00     0.211 HD
ENDBRANCH   6  29
ENDBRANCH   5   6
ENDBRANCH   1   5
BRANCH   2  31
ATOM     31  O   UNL     1      27.424  35.750  10.442  1.00  0.00    -0.443 OA
BRANCH  31  32
ATOM     32  C   UNL     1      28.228  36.768  11.075  1.00  0.00     0.294 C 
BRANCH  32  33
ATOM     33  C   UNL     1      28.570  36.142  12.404  1.00  0.00     0.121 A 
ATOM     34  C   UNL     1      28.944  34.849  12.622  1.00  0.00     0.146 A 
ATOM     35  N   UNL     1      28.641  36.803  13.560  1.00  0.00    -0.131 NA
ATOM     36  N   UNL     1      29.246  34.773  13.954  1.00  0.00    -0.201 N 
ATOM     37  N   UNL     1      29.048  35.986  14.488  1.00  0.00    -0.060 NA
BRANCH  36  38
ATOM     38  C   UNL     1      29.703  33.659  14.650  1.00  0.00     0.173 A 
ATOM     39  N   UNL     1      28.800  32.707  15.134  1.00  0.00    -0.236 NA
ATOM     40  C   UNL     1      31.010  33.418  15.020  1.00  0.00     0.097 A 
ATOM     41  C   UNL     1      29.209  31.741  15.844  1.00  0.00     0.113 A 
ATOM     42  C   UNL     1      31.422  32.406  15.765  1.00  0.00     0.025 A 
ATOM     43  C   UNL     1      30.523  31.423  16.272  1.00  0.00     0.022 A 
BRANCH  40  44
ATOM     44  C   UNL     1      32.052  34.435  14.604  1.00  0.00     0.103 C 
ATOM     45  N   UNL     1      32.754  35.114  14.344  1.00  0.00    -0.192 NA
ENDBRANCH  40  44
ENDBRANCH  36  38
ENDBRANCH  32  33
ENDBRANCH  31  32
ENDBRANCH   2  31
TORSDOF 16
BEGIN_RES LYS A 131
REMARK  4 active torsions:
REMARK  status: ('A' for Active; 'I' for Inactive)
REMARK    1  A    between atoms: CA   and  CB  
REMARK    2  A    between atoms: CB   and  CG  
REMARK    3  A    between atoms: CG   and  CD  
REMARK    4  A    between atoms: CD   and  CE  
ROOT
ATOM      1  CA  LYS A 131      29.867  25.555  16.977  1.00 20.52     0.186 C 
ENDROOT
BRANCH   1   2
ATOM      2  CB  LYS A 131      28.345  25.722  17.026  1.00 20.94     0.034 C 
BRANCH   2   3
ATOM      3  CG  LYS A 131      27.601  24.401  16.904  1.00 22.96     0.005 C 
BRANCH   3   4
ATOM      4  CD  LYS A 131      26.157  24.524  17.305  1.00 24.33     0.041 C 
BRANCH   4   5
ATOM      5  CE  LYS A 131      25.924  23.768  18.609  1.00 26.91     0.338 C 
ATOM      6  NZ  LYS A 131      25.540  24.705  19.690  1.00 27.40     0.618 N 
ENDBRANCH   4   5
ENDBRANCH   3   4
ENDBRANCH   2   3
ENDBRANCH   1   2
END_RES LYS A 131
BEGIN_RES LYS A 135
REMARK  4 active torsions:
REMARK  status: ('A' for Active; 'I' for Inactive)
REMARK    5  A    between atoms: CA   and  CB  
REMARK    6  A    between atoms: CB   and  CG  
REMARK    7  A    between atoms: CG   and  CD  
REMARK    8  A    between atoms: CD   and  CE  
ROOT
ATOM      7  CA  LYS A 135      33.193  34.663   9.290  1.00 25.02     0.186 C 
ENDROOT
BRANCH   7   8
ATOM      8  CB  LYS A 135      32.060  35.360  10.034  1.00 26.63     0.034 C 
BRANCH   8   9
ATOM      9  CG  LYS A 135      30.913  35.763   9.144  1.00 29.45     0.005 C 
BRANCH   9  10
ATOM     10  CD  LYS A 135      30.278  34.541   8.500  1.00 32.00     0.041 C 
BRANCH  10  11
ATOM     11  CE  LYS A 135      29.179  34.955   7.540  1.00 34.25     0.338 C 
ATOM     12  NZ  LYS A 135      29.040  36.437   7.490  1.00 35.99     0.618 N 
ENDBRANCH  10  11
ENDBRANCH   9  10
ENDBRANCH   8   9
ENDBRANCH   7   8
END_RES LYS A 135
