REMARK VINA RESULT:    -5.420      8.036     13.800
REMARK INTER + INTRA:         -15.112
REMARK INTER:                  -8.508
REMARK INTRA:                  -6.604
REMARK UNBOUND:                -5.414
REMARK SMILES CC(=O)N[C@@H]1[C@@H](O)C[C@](O)(C(=O)O)O[C@H]1C(O)[C@H](O)CNC(=O)OCc1cn(-c2ccccc2C(N)=O)nn1
REMARK SMILES IDX 21 1 22 2 23 3 20 5 18 6 16 7 15 8 9 9 8 10 14 11 6 12 5 13
REMARK SMILES IDX 10 14 11 16 12 17 13 18 7 20 4 22 2 23 1 25 3 26 17 27 19 29
REMARK SMILES IDX 24 31 25 32 26 33 27 34 39 35 28 36 38 37 29 38 34 39 30 40
REMARK SMILES IDX 33 41 31 42 32 43 35 44 37 45 36 46
REMARK H PARENT 21 4 10 15 13 19 7 21 4 24 17 28 19 30 36 47 36 48
REMARK Flexibility Score: inf
ROOT
ATOM      1  N   UNL     1      22.011  37.002  13.253  1.00  0.00    -0.319 N 
ATOM      2  C   UNL     1      23.350  37.264  13.645  1.00  0.00     0.407 C 
ATOM      3  O   UNL     1      23.657  38.409  14.021  1.00  0.00    -0.225 OA
ATOM      4  H   UNL     1      21.817  36.007  12.943  1.00  0.00     0.167 HD
ENDROOT
BRANCH   1   5
ATOM      5  C   UNL     1      20.947  37.975  13.255  1.00  0.00     0.154 C 
BRANCH   5   6
ATOM      6  C   UNL     1      20.957  38.849  12.012  1.00  0.00     0.165 C 
BRANCH   6   7
ATOM      7  C   UNL     1      21.356  38.079  10.789  1.00  0.00     0.176 C 
BRANCH   7   8
ATOM      8  C   UNL     1      20.295  37.946   9.764  1.00  0.00     0.178 C 
ATOM      9  C   UNL     1      19.769  36.534   7.974  1.00  0.00     0.269 C 
ATOM     10  C   UNL     1      18.496  37.327   8.009  1.00  0.00     0.112 C 
ATOM     11  O   UNL     1      20.634  36.808   8.985  1.00  0.00    -0.332 OA
ATOM     12  C   UNL     1      18.692  38.795   8.176  1.00  0.00     0.145 C 
ATOM     13  C   UNL     1      20.056  39.045   8.811  1.00  0.00     0.142 C 
BRANCH   9  14
ATOM     14  O   UNL     1      20.363  36.673   6.698  1.00  0.00    -0.357 OA
ATOM     15  H   UNL     1      21.170  37.255   6.806  1.00  0.00     0.214 HD
ENDBRANCH   9  14
BRANCH   9  16
ATOM     16  C   UNL     1      19.382  35.097   8.079  1.00  0.00     0.364 C 
ATOM     17  O   UNL     1      19.342  34.573   9.234  1.00  0.00    -0.246 OA
BRANCH  16  18
ATOM     18  O   UNL     1      19.066  34.308   6.995  1.00  0.00    -0.477 OA
ATOM     19  H   UNL     1      19.111  33.302   7.050  1.00  0.00     0.296 HD
ENDBRANCH  16  18
ENDBRANCH   9  16
BRANCH  12  20
ATOM     20  O   UNL     1      18.590  39.408   6.937  1.00  0.00    -0.391 OA
ATOM     21  H   UNL     1      17.770  39.951   6.829  1.00  0.00     0.211 HD
ENDBRANCH  12  20
BRANCH  13  22
ATOM     22  N   UNL     1      20.228  40.381   9.235  1.00  0.00    -0.348 N 
ATOM     23  C   UNL     1      21.356  41.146   8.870  1.00  0.00     0.217 C 
ATOM     24  H   UNL     1      19.511  40.853   9.820  1.00  0.00     0.163 HD
ATOM     25  C   UNL     1      21.588  42.546   9.285  1.00  0.00     0.114 C 
ATOM     26  O   UNL     1      22.218  40.604   8.145  1.00  0.00    -0.275 OA
ENDBRANCH  13  22
ENDBRANCH   7   8
BRANCH   7  27
ATOM     27  O   UNL     1      22.640  38.294  10.346  1.00  0.00    -0.388 OA
ATOM     28  H   UNL     1      22.743  37.938   9.412  1.00  0.00     0.211 HD
ENDBRANCH   7  27
ENDBRANCH   6   7
BRANCH   6  29
ATOM     29  O   UNL     1      21.603  40.037  12.210  1.00  0.00    -0.388 OA
ATOM     30  H   UNL     1      22.189  40.263  11.436  1.00  0.00     0.211 HD
ENDBRANCH   6  29
ENDBRANCH   5   6
ENDBRANCH   1   5
BRANCH   2  31
ATOM     31  O   UNL     1      24.335  36.284  13.625  1.00  0.00    -0.443 OA
BRANCH  31  32
ATOM     32  C   UNL     1      24.159  35.050  12.949  1.00  0.00     0.294 C 
BRANCH  32  33
ATOM     33  C   UNL     1      24.239  35.254  11.471  1.00  0.00     0.121 A 
ATOM     34  C   UNL     1      25.394  35.512  10.757  1.00  0.00     0.144 A 
ATOM     35  N   UNL     1      23.240  35.227  10.575  1.00  0.00    -0.131 NA
ATOM     36  N   UNL     1      25.043  35.632   9.442  1.00  0.00    -0.220 N 
ATOM     37  N   UNL     1      23.756  35.457   9.368  1.00  0.00    -0.062 NA
BRANCH  36  38
ATOM     38  C   UNL     1      25.956  35.910   8.373  1.00  0.00     0.079 A 
ATOM     39  C   UNL     1      25.876  37.062   7.626  1.00  0.00     0.065 A 
ATOM     40  C   UNL     1      26.946  34.971   8.101  1.00  0.00     0.029 A 
ATOM     41  C   UNL     1      26.805  37.261   6.600  1.00  0.00     0.016 A 
ATOM     42  C   UNL     1      27.848  35.185   7.088  1.00  0.00     0.002 A 
ATOM     43  C   UNL     1      27.768  36.332   6.344  1.00  0.00     0.001 A 
BRANCH  39  44
ATOM     44  C   UNL     1      24.867  38.083   7.859  1.00  0.00     0.250 C 
ATOM     45  O   UNL     1      25.182  39.053   8.623  1.00  0.00    -0.269 OA
ATOM     46  N   UNL     1      23.572  38.038   7.277  1.00  0.00    -0.366 N 
ATOM     47  H   UNL     1      23.408  38.209   6.272  1.00  0.00     0.159 HD
ATOM     48  H   UNL     1      22.766  37.823   7.938  1.00  0.00     0.159 HD
ENDBRANCH  39  44
ENDBRANCH  36  38
ENDBRANCH  32  33
ENDBRANCH  31  32
ENDBRANCH   2  31
TORSDOF 16
BEGIN_RES LYS A 131
REMARK  4 active torsions:
REMARK  status: ('A' for Active; 'I' for Inactive)
REMARK    1  A    between atoms: CA   and  CB  
REMARK    2  A    between atoms: CB   and  CG  
REMARK    3  A    between atoms: CG   and  CD  
REMARK    4  A    between atoms: CD   and  CE  
ROOT
ATOM      1  CA  LYS A 131      29.867  25.555  16.977  1.00 20.52     0.186 C 
ENDROOT
BRANCH   1   2
ATOM      2  CB  LYS A 131      28.345  25.722  17.026  1.00 20.94     0.034 C 
BRANCH   2   3
ATOM      3  CG  LYS A 131      27.601  24.401  16.904  1.00 22.96     0.005 C 
BRANCH   3   4
ATOM      4  CD  LYS A 131      26.152  24.529  17.284  1.00 24.33     0.041 C 
BRANCH   4   5
ATOM      5  CE  LYS A 131      25.787  23.433  18.279  1.00 26.91     0.338 C 
ATOM      6  NZ  LYS A 131      25.096  22.317  17.591  1.00 27.40     0.618 N 
ENDBRANCH   4   5
ENDBRANCH   3   4
ENDBRANCH   2   3
ENDBRANCH   1   2
END_RES LYS A 131
BEGIN_RES LYS A 135
REMARK  4 active torsions:
REMARK  status: ('A' for Active; 'I' for Inactive)
REMARK    5  A    between atoms: CA   and  CB  
REMARK    6  A    between atoms: CB   and  CG  
REMARK    7  A    between atoms: CG   and  CD  
REMARK    8  A    between atoms: CD   and  CE  
ROOT
ATOM      7  CA  LYS A 135      33.193  34.663   9.290  1.00 25.02     0.186 C 
ENDROOT
BRANCH   7   8
ATOM      8  CB  LYS A 135      32.060  35.360  10.034  1.00 26.63     0.034 C 
BRANCH   8   9
ATOM      9  CG  LYS A 135      30.690  34.870   9.642  1.00 29.45     0.005 C 
BRANCH   9  10
ATOM     10  CD  LYS A 135      29.614  35.586  10.442  1.00 32.00     0.041 C 
BRANCH  10  11
ATOM     11  CE  LYS A 135      28.833  34.599  11.288  1.00 34.25     0.338 C 
ATOM     12  NZ  LYS A 135      28.616  35.126  12.664  1.00 35.99     0.618 N 
ENDBRANCH  10  11
ENDBRANCH   9  10
ENDBRANCH   8   9
ENDBRANCH   7   8
END_RES LYS A 135
