REMARK VINA RESULT:    -5.122      8.169     13.397
REMARK INTER + INTRA:         -15.931
REMARK INTER:                  -9.118
REMARK INTRA:                  -6.813
REMARK UNBOUND:                -6.317
REMARK SMILES CC(=O)N[C@@H]1[C@@H](O)C[C@](O)(C(=O)O)O[C@H]1C(O)[C@H](O)CNC(=O)OCc1cn(-c2cccc(C=CC(=O)O)c2)nn1
REMARK SMILES IDX 21 1 22 2 23 3 20 5 18 6 16 7 15 8 9 9 8 10 14 11 6 12 5 13
REMARK SMILES IDX 10 14 11 16 12 17 13 18 7 20 4 22 2 23 1 25 3 26 17 27 19 29
REMARK SMILES IDX 24 31 25 32 26 33 27 34 41 35 28 36 40 37 29 38 39 39 30 40
REMARK SMILES IDX 33 41 31 42 32 43 34 44 35 45 36 46 37 47 38 48
REMARK H PARENT 21 4 10 15 13 19 7 21 4 24 17 28 19 30 38 49
REMARK Flexibility Score: inf
ROOT
ATOM      1  N   UNL     1      27.920  28.497  18.737  1.00  0.00    -0.319 N 
ATOM      2  C   UNL     1      26.712  28.972  18.178  1.00  0.00     0.407 C 
ATOM      3  O   UNL     1      25.613  28.413  18.374  1.00  0.00    -0.225 OA
ATOM      4  H   UNL     1      28.802  29.063  18.484  1.00  0.00     0.167 HD
ENDROOT
BRANCH   1   5
ATOM      5  C   UNL     1      28.069  27.356  19.593  1.00  0.00     0.154 C 
BRANCH   5   6
ATOM      6  C   UNL     1      28.490  27.763  20.968  1.00  0.00     0.165 C 
BRANCH   6   7
ATOM      7  C   UNL     1      29.938  28.205  21.064  1.00  0.00     0.176 C 
BRANCH   7   8
ATOM      8  C   UNL     1      30.045  29.686  21.052  1.00  0.00     0.178 C 
ATOM      9  C   UNL     1      29.908  31.692  19.917  1.00  0.00     0.269 C 
ATOM     10  C   UNL     1      30.158  32.248  21.292  1.00  0.00     0.112 C 
ATOM     11  O   UNL     1      29.692  30.328  19.908  1.00  0.00    -0.332 OA
ATOM     12  C   UNL     1      31.210  31.555  22.078  1.00  0.00     0.145 C 
ATOM     13  C   UNL     1      31.415  30.163  21.530  1.00  0.00     0.142 C 
BRANCH   9  14
ATOM     14  O   UNL     1      30.939  32.087  19.066  1.00  0.00    -0.357 OA
ATOM     15  H   UNL     1      31.821  31.798  19.383  1.00  0.00     0.214 HD
ENDBRANCH   9  14
BRANCH   9  16
ATOM     16  C   UNL     1      28.661  32.331  19.410  1.00  0.00     0.364 C 
ATOM     17  O   UNL     1      28.748  33.308  18.591  1.00  0.00    -0.246 OA
BRANCH  16  18
ATOM     18  O   UNL     1      27.398  31.902  19.795  1.00  0.00    -0.477 OA
ATOM     19  H   UNL     1      26.779  32.460  20.348  1.00  0.00     0.296 HD
ENDBRANCH  16  18
ENDBRANCH   9  16
BRANCH  12  20
ATOM     20  O   UNL     1      32.406  32.261  22.153  1.00  0.00    -0.391 OA
ATOM     21  H   UNL     1      33.147  31.642  22.257  1.00  0.00     0.211 HD
ENDBRANCH  12  20
BRANCH  13  22
ATOM     22  N   UNL     1      32.013  29.274  22.477  1.00  0.00    -0.348 N 
ATOM     23  C   UNL     1      33.418  29.142  22.621  1.00  0.00     0.217 C 
ATOM     24  H   UNL     1      31.419  28.670  23.119  1.00  0.00     0.163 HD
ATOM     25  C   UNL     1      33.989  28.211  23.613  1.00  0.00     0.114 C 
ATOM     26  O   UNL     1      34.202  29.815  21.907  1.00  0.00    -0.275 OA
ENDBRANCH  13  22
ENDBRANCH   7   8
BRANCH   7  27
ATOM     27  O   UNL     1      30.750  27.551  20.143  1.00  0.00    -0.388 OA
ATOM     28  H   UNL     1      30.303  26.714  19.889  1.00  0.00     0.211 HD
ENDBRANCH   7  27
ENDBRANCH   6   7
BRANCH   6  29
ATOM     29  O   UNL     1      28.276  26.746  21.900  1.00  0.00    -0.388 OA
ATOM     30  H   UNL     1      27.495  26.997  22.466  1.00  0.00     0.211 HD
ENDBRANCH   6  29
ENDBRANCH   5   6
ENDBRANCH   1   5
BRANCH   2  31
ATOM     31  O   UNL     1      26.694  30.120  17.358  1.00  0.00    -0.443 OA
BRANCH  31  32
ATOM     32  C   UNL     1      27.245  30.045  16.082  1.00  0.00     0.294 C 
BRANCH  32  33
ATOM     33  C   UNL     1      28.519  30.792  15.958  1.00  0.00     0.121 A 
ATOM     34  C   UNL     1      28.826  31.914  15.225  1.00  0.00     0.144 A 
ATOM     35  N   UNL     1      29.658  30.463  16.591  1.00  0.00    -0.131 NA
ATOM     36  N   UNL     1      30.127  32.244  15.423  1.00  0.00    -0.220 N 
ATOM     37  N   UNL     1      30.605  31.342  16.259  1.00  0.00    -0.062 NA
BRANCH  36  38
ATOM     38  C   UNL     1      30.796  33.354  14.822  1.00  0.00     0.067 A 
ATOM     39  C   UNL     1      31.948  33.865  15.359  1.00  0.00     0.036 A 
ATOM     40  C   UNL     1      30.286  33.936  13.684  1.00  0.00     0.028 A 
ATOM     41  C   UNL     1      32.619  34.972  14.768  1.00  0.00    -0.023 A 
ATOM     42  C   UNL     1      30.881  34.997  13.070  1.00  0.00     0.003 A 
ATOM     43  C   UNL     1      32.063  35.506  13.636  1.00  0.00     0.008 A 
BRANCH  41  44
ATOM     44  C   UNL     1      33.833  35.429  15.349  1.00  0.00     0.015 C 
ATOM     45  C   UNL     1      34.264  35.864  16.468  1.00  0.00     0.094 C 
BRANCH  45  46
ATOM     46  C   UNL     1      33.715  36.109  17.742  1.00  0.00     0.328 C 
ATOM     47  O   UNL     1      32.612  36.853  17.810  1.00  0.00    -0.247 OA
BRANCH  46  48
ATOM     48  O   UNL     1      34.098  35.726  19.002  1.00  0.00    -0.478 OA
ATOM     49  H   UNL     1      33.688  36.094  19.846  1.00  0.00     0.297 HD
ENDBRANCH  46  48
ENDBRANCH  45  46
ENDBRANCH  41  44
ENDBRANCH  36  38
ENDBRANCH  32  33
ENDBRANCH  31  32
ENDBRANCH   2  31
TORSDOF 18
BEGIN_RES LYS A 131
REMARK  4 active torsions:
REMARK  status: ('A' for Active; 'I' for Inactive)
REMARK    1  A    between atoms: CA   and  CB  
REMARK    2  A    between atoms: CB   and  CG  
REMARK    3  A    between atoms: CG   and  CD  
REMARK    4  A    between atoms: CD   and  CE  
ROOT
ATOM      1  CA  LYS A 131      29.867  25.555  16.977  1.00 20.52     0.186 C 
ENDROOT
BRANCH   1   2
ATOM      2  CB  LYS A 131      28.345  25.722  17.026  1.00 20.94     0.034 C 
BRANCH   2   3
ATOM      3  CG  LYS A 131      27.602  24.397  16.947  1.00 22.96     0.005 C 
BRANCH   3   4
ATOM      4  CD  LYS A 131      26.161  24.530  17.353  1.00 24.33     0.041 C 
BRANCH   4   5
ATOM      5  CE  LYS A 131      25.904  23.691  18.600  1.00 26.91     0.338 C 
ATOM      6  NZ  LYS A 131      25.504  24.557  19.735  1.00 27.40     0.618 N 
ENDBRANCH   4   5
ENDBRANCH   3   4
ENDBRANCH   2   3
ENDBRANCH   1   2
END_RES LYS A 131
BEGIN_RES LYS A 135
REMARK  4 active torsions:
REMARK  status: ('A' for Active; 'I' for Inactive)
REMARK    5  A    between atoms: CA   and  CB  
REMARK    6  A    between atoms: CB   and  CG  
REMARK    7  A    between atoms: CG   and  CD  
REMARK    8  A    between atoms: CD   and  CE  
ROOT
ATOM      7  CA  LYS A 135      33.193  34.663   9.290  1.00 25.02     0.186 C 
ENDROOT
BRANCH   7   8
ATOM      8  CB  LYS A 135      32.060  35.360  10.034  1.00 26.63     0.034 C 
BRANCH   8   9
ATOM      9  CG  LYS A 135      30.788  35.465   9.233  1.00 29.45     0.005 C 
BRANCH   9  10
ATOM     10  CD  LYS A 135      29.981  34.180   9.337  1.00 32.00     0.041 C 
BRANCH  10  11
ATOM     11  CE  LYS A 135      28.691  34.421  10.097  1.00 34.25     0.338 C 
ATOM     12  NZ  LYS A 135      27.530  33.812   9.391  1.00 35.99     0.618 N 
ENDBRANCH  10  11
ENDBRANCH   9  10
ENDBRANCH   8   9
ENDBRANCH   7   8
END_RES LYS A 135
