REMARK VINA RESULT:    -5.307      5.946     11.263
REMARK INTER + INTRA:         -14.910
REMARK INTER:                  -7.909
REMARK INTRA:                  -7.002
REMARK UNBOUND:                -5.414
REMARK SMILES CC(=O)N[C@@H]1[C@@H](O)C[C@](O)(C(=O)O)O[C@H]1C(O)[C@H](O)CNC(=O)OCc1cn(-c2ccccc2C(N)=O)nn1
REMARK SMILES IDX 21 1 22 2 23 3 20 5 18 6 16 7 15 8 9 9 8 10 14 11 6 12 5 13
REMARK SMILES IDX 10 14 11 16 12 17 13 18 7 20 4 22 2 23 1 25 3 26 17 27 19 29
REMARK SMILES IDX 24 31 25 32 26 33 27 34 39 35 28 36 38 37 29 38 34 39 30 40
REMARK SMILES IDX 33 41 31 42 32 43 35 44 37 45 36 46
REMARK H PARENT 21 4 10 15 13 19 7 21 4 24 17 28 19 30 36 47 36 48
REMARK Flexibility Score: inf
ROOT
ATOM      1  N   UNL     1      25.501  37.033  14.877  1.00  0.00    -0.319 N 
ATOM      2  C   UNL     1      25.632  36.233  16.042  1.00  0.00     0.407 C 
ATOM      3  O   UNL     1      24.766  36.315  16.932  1.00  0.00    -0.225 OA
ATOM      4  H   UNL     1      26.273  36.915  14.159  1.00  0.00     0.167 HD
ENDROOT
BRANCH   1   5
ATOM      5  C   UNL     1      24.423  37.957  14.628  1.00  0.00     0.154 C 
BRANCH   5   6
ATOM      6  C   UNL     1      24.166  38.166  13.146  1.00  0.00     0.165 C 
BRANCH   6   7
ATOM      7  C   UNL     1      23.547  36.958  12.509  1.00  0.00     0.176 C 
BRANCH   7   8
ATOM      8  C   UNL     1      23.834  36.801  11.064  1.00  0.00     0.178 C 
ATOM      9  C   UNL     1      22.682  36.222   9.112  1.00  0.00     0.269 C 
ATOM     10  C   UNL     1      23.971  36.662   8.483  1.00  0.00     0.112 C 
ATOM     11  O   UNL     1      22.608  36.424  10.453  1.00  0.00    -0.332 OA
ATOM     12  C   UNL     1      25.192  36.165   9.176  1.00  0.00     0.145 C 
ATOM     13  C   UNL     1      24.839  35.818  10.619  1.00  0.00     0.142 C 
BRANCH   9  14
ATOM     14  O   UNL     1      22.428  34.877   8.751  1.00  0.00    -0.357 OA
ATOM     15  H   UNL     1      21.915  34.458   9.502  1.00  0.00     0.214 HD
ENDBRANCH   9  14
BRANCH   9  16
ATOM     16  C   UNL     1      21.596  37.018   8.468  1.00  0.00     0.364 C 
ATOM     17  O   UNL     1      21.134  38.016   9.101  1.00  0.00    -0.246 OA
BRANCH  16  18
ATOM     18  O   UNL     1      21.069  36.731   7.228  1.00  0.00    -0.477 OA
ATOM     19  H   UNL     1      21.653  36.689   6.409  1.00  0.00     0.296 HD
ENDBRANCH  16  18
ENDBRANCH   9  16
BRANCH  12  20
ATOM     20  O   UNL     1      25.681  35.061   8.496  1.00  0.00    -0.391 OA
ATOM     21  H   UNL     1      25.026  34.656   7.874  1.00  0.00     0.211 HD
ENDBRANCH  12  20
BRANCH  13  22
ATOM     22  N   UNL     1      25.976  35.578  11.422  1.00  0.00    -0.348 N 
ATOM     23  C   UNL     1      27.110  36.416  11.390  1.00  0.00     0.217 C 
ATOM     24  H   UNL     1      26.003  34.777  12.083  1.00  0.00     0.163 HD
ATOM     25  C   UNL     1      28.325  36.212  12.207  1.00  0.00     0.114 C 
ATOM     26  O   UNL     1      27.086  37.400  10.619  1.00  0.00    -0.275 OA
ENDBRANCH  13  22
ENDBRANCH   7   8
BRANCH   7  27
ATOM     27  O   UNL     1      23.540  35.819  13.279  1.00  0.00    -0.388 OA
ATOM     28  H   UNL     1      24.478  35.472  13.383  1.00  0.00     0.211 HD
ENDBRANCH   7  27
ENDBRANCH   6   7
BRANCH   6  29
ATOM     29  O   UNL     1      25.243  38.701  12.497  1.00  0.00    -0.388 OA
ATOM     30  H   UNL     1      26.094  38.489  12.972  1.00  0.00     0.211 HD
ENDBRANCH   6  29
ENDBRANCH   5   6
ENDBRANCH   1   5
BRANCH   2  31
ATOM     31  O   UNL     1      26.694  35.356  16.227  1.00  0.00    -0.443 OA
BRANCH  31  32
ATOM     32  C   UNL     1      26.512  33.952  16.293  1.00  0.00     0.294 C 
BRANCH  32  33
ATOM     33  C   UNL     1      25.826  33.461  15.060  1.00  0.00     0.121 A 
ATOM     34  C   UNL     1      24.932  32.407  15.005  1.00  0.00     0.144 A 
ATOM     35  N   UNL     1      25.936  33.928  13.807  1.00  0.00    -0.131 NA
ATOM     36  N   UNL     1      24.533  32.278  13.704  1.00  0.00    -0.220 N 
ATOM     37  N   UNL     1      25.148  33.197  13.019  1.00  0.00    -0.062 NA
BRANCH  36  38
ATOM     38  C   UNL     1      23.612  31.291  13.225  1.00  0.00     0.079 A 
ATOM     39  C   UNL     1      22.340  31.616  12.818  1.00  0.00     0.065 A 
ATOM     40  C   UNL     1      24.040  29.968  13.179  1.00  0.00     0.029 A 
ATOM     41  C   UNL     1      21.499  30.596  12.363  1.00  0.00     0.016 A 
ATOM     42  C   UNL     1      23.200  28.980  12.729  1.00  0.00     0.002 A 
ATOM     43  C   UNL     1      21.932  29.305  12.324  1.00  0.00     0.001 A 
BRANCH  39  44
ATOM     44  C   UNL     1      21.830  32.979  12.840  1.00  0.00     0.250 C 
ATOM     45  O   UNL     1      21.412  33.429  13.956  1.00  0.00    -0.269 OA
ATOM     46  N   UNL     1      21.784  33.805  11.686  1.00  0.00    -0.366 N 
ATOM     47  H   UNL     1      22.632  34.208  11.256  1.00  0.00     0.159 HD
ATOM     48  H   UNL     1      20.818  33.999  11.283  1.00  0.00     0.159 HD
ENDBRANCH  39  44
ENDBRANCH  36  38
ENDBRANCH  32  33
ENDBRANCH  31  32
ENDBRANCH   2  31
TORSDOF 16
BEGIN_RES LYS A 131
REMARK  4 active torsions:
REMARK  status: ('A' for Active; 'I' for Inactive)
REMARK    1  A    between atoms: CA   and  CB  
REMARK    2  A    between atoms: CB   and  CG  
REMARK    3  A    between atoms: CG   and  CD  
REMARK    4  A    between atoms: CD   and  CE  
ROOT
ATOM      1  CA  LYS A 131      29.867  25.555  16.977  1.00 20.52     0.186 C 
ENDROOT
BRANCH   1   2
ATOM      2  CB  LYS A 131      28.345  25.722  17.026  1.00 20.94     0.034 C 
BRANCH   2   3
ATOM      3  CG  LYS A 131      27.601  24.403  16.885  1.00 22.96     0.005 C 
BRANCH   3   4
ATOM      4  CD  LYS A 131      26.555  24.226  17.951  1.00 24.33     0.041 C 
BRANCH   4   5
ATOM      5  CE  LYS A 131      25.215  23.898  17.299  1.00 26.91     0.338 C 
ATOM      6  NZ  LYS A 131      24.801  22.515  17.633  1.00 27.40     0.618 N 
ENDBRANCH   4   5
ENDBRANCH   3   4
ENDBRANCH   2   3
ENDBRANCH   1   2
END_RES LYS A 131
BEGIN_RES LYS A 135
REMARK  4 active torsions:
REMARK  status: ('A' for Active; 'I' for Inactive)
REMARK    5  A    between atoms: CA   and  CB  
REMARK    6  A    between atoms: CB   and  CG  
REMARK    7  A    between atoms: CG   and  CD  
REMARK    8  A    between atoms: CD   and  CE  
ROOT
ATOM      7  CA  LYS A 135      33.193  34.663   9.290  1.00 25.02     0.186 C 
ENDROOT
BRANCH   7   8
ATOM      8  CB  LYS A 135      32.060  35.360  10.034  1.00 26.63     0.034 C 
BRANCH   8   9
ATOM      9  CG  LYS A 135      30.905  35.747   9.147  1.00 29.45     0.005 C 
BRANCH   9  10
ATOM     10  CD  LYS A 135      30.340  34.525   8.439  1.00 32.00     0.041 C 
BRANCH  10  11
ATOM     11  CE  LYS A 135      29.080  34.887   7.676  1.00 34.25     0.338 C 
ATOM     12  NZ  LYS A 135      28.811  36.350   7.747  1.00 35.99     0.618 N 
ENDBRANCH  10  11
ENDBRANCH   9  10
ENDBRANCH   8   9
ENDBRANCH   7   8
END_RES LYS A 135
