REMARK VINA RESULT:    -3.949      3.343      6.038
REMARK INTER + INTRA:         -13.543
REMARK INTER:                  -7.382
REMARK INTRA:                  -6.161
REMARK UNBOUND:                -6.362
REMARK SMILES CC(=O)N[C@@H]1[C@@H](O)C[C@](O)(C(=O)O)O[C@H]1C(O)[C@H](O)CNC(=O)OCc1cn(CC(=O)O)nn1
REMARK SMILES IDX 21 1 22 2 23 3 20 5 18 6 16 7 15 8 9 9 8 10 14 11 6 12 5 13
REMARK SMILES IDX 10 14 11 16 12 17 13 18 7 20 4 22 2 23 1 25 3 26 17 27 19 29
REMARK SMILES IDX 24 31 25 32 26 33 27 34 34 35 28 36 33 37 29 38 30 39 31 40
REMARK SMILES IDX 32 41
REMARK H PARENT 21 4 10 15 13 19 7 21 4 24 17 28 19 30 32 42
REMARK Flexibility Score: inf
ROOT
ATOM      1  N   UNL     1      28.356  27.998  19.420  1.00  0.00    -0.319 N 
ATOM      2  C   UNL     1      27.131  27.762  18.767  1.00  0.00     0.407 C 
ATOM      3  O   UNL     1      26.142  27.334  19.361  1.00  0.00    -0.225 OA
ATOM      4  H   UNL     1      29.131  28.376  18.795  1.00  0.00     0.167 HD
ENDROOT
BRANCH   1   5
ATOM      5  C   UNL     1      28.647  27.778  20.813  1.00  0.00     0.154 C 
BRANCH   5   6
ATOM      6  C   UNL     1      30.094  27.797  21.186  1.00  0.00     0.165 C 
BRANCH   6   7
ATOM      7  C   UNL     1      30.912  28.738  20.385  1.00  0.00     0.176 C 
BRANCH   7   8
ATOM      8  C   UNL     1      30.824  30.183  20.797  1.00  0.00     0.178 C 
ATOM      9  C   UNL     1      30.731  32.338  19.855  1.00  0.00     0.269 C 
ATOM     10  C   UNL     1      31.521  32.925  20.977  1.00  0.00     0.112 C 
ATOM     11  O   UNL     1      30.801  31.002  19.658  1.00  0.00    -0.332 OA
ATOM     12  C   UNL     1      31.491  32.034  22.179  1.00  0.00     0.145 C 
ATOM     13  C   UNL     1      31.953  30.654  21.673  1.00  0.00     0.142 C 
BRANCH   9  14
ATOM     14  O   UNL     1      31.133  33.039  18.680  1.00  0.00    -0.357 OA
ATOM     15  H   UNL     1      31.885  32.503  18.306  1.00  0.00     0.214 HD
ENDBRANCH   9  14
BRANCH   9  16
ATOM     16  C   UNL     1      29.303  32.737  20.037  1.00  0.00     0.364 C 
ATOM     17  O   UNL     1      28.915  33.657  20.786  1.00  0.00    -0.246 OA
BRANCH  16  18
ATOM     18  O   UNL     1      28.336  32.049  19.335  1.00  0.00    -0.477 OA
ATOM     19  H   UNL     1      28.243  32.103  18.323  1.00  0.00     0.296 HD
ENDBRANCH  16  18
ENDBRANCH   9  16
BRANCH  12  20
ATOM     20  O   UNL     1      32.327  32.478  23.199  1.00  0.00    -0.391 OA
ATOM     21  H   UNL     1      32.016  32.045  24.036  1.00  0.00     0.211 HD
ENDBRANCH  12  20
BRANCH  13  22
ATOM     22  N   UNL     1      32.285  29.841  22.797  1.00  0.00    -0.348 N 
ATOM     23  C   UNL     1      33.597  29.315  23.002  1.00  0.00     0.217 C 
ATOM     24  H   UNL     1      31.566  29.621  23.509  1.00  0.00     0.163 HD
ATOM     25  C   UNL     1      33.978  28.467  24.154  1.00  0.00     0.114 C 
ATOM     26  O   UNL     1      34.476  29.593  22.153  1.00  0.00    -0.275 OA
ENDBRANCH  13  22
ENDBRANCH   7   8
BRANCH   7  27
ATOM     27  O   UNL     1      32.212  28.285  20.229  1.00  0.00    -0.388 OA
ATOM     28  H   UNL     1      32.283  27.588  19.529  1.00  0.00     0.211 HD
ENDBRANCH   7  27
ENDBRANCH   6   7
BRANCH   6  29
ATOM     29  O   UNL     1      30.588  26.485  21.103  1.00  0.00    -0.388 OA
ATOM     30  H   UNL     1      30.291  26.033  20.281  1.00  0.00     0.211 HD
ENDBRANCH   6  29
ENDBRANCH   5   6
ENDBRANCH   1   5
BRANCH   2  31
ATOM     31  O   UNL     1      26.989  28.010  17.404  1.00  0.00    -0.443 OA
BRANCH  31  32
ATOM     32  C   UNL     1      26.568  29.215  16.848  1.00  0.00     0.294 C 
BRANCH  32  33
ATOM     33  C   UNL     1      27.662  30.169  16.540  1.00  0.00     0.120 A 
ATOM     34  C   UNL     1      27.677  31.237  15.699  1.00  0.00     0.139 A 
ATOM     35  N   UNL     1      28.912  30.127  17.085  1.00  0.00    -0.132 NA
ATOM     36  N   UNL     1      28.895  31.806  15.747  1.00  0.00    -0.241 N 
ATOM     37  N   UNL     1      29.629  31.126  16.587  1.00  0.00    -0.066 NA
BRANCH  36  38
ATOM     38  C   UNL     1      29.306  32.971  14.991  1.00  0.00     0.268 C 
BRANCH  38  39
ATOM     39  C   UNL     1      30.728  33.263  15.258  1.00  0.00     0.325 C 
ATOM     40  O   UNL     1      31.032  34.300  15.913  1.00  0.00    -0.250 OA
BRANCH  39  41
ATOM     41  O   UNL     1      31.717  32.417  14.802  1.00  0.00    -0.480 OA
ATOM     42  H   UNL     1      32.648  32.824  14.674  1.00  0.00     0.296 HD
ENDBRANCH  39  41
ENDBRANCH  38  39
ENDBRANCH  36  38
ENDBRANCH  32  33
ENDBRANCH  31  32
ENDBRANCH   2  31
TORSDOF 17
BEGIN_RES LYS A 131
REMARK  4 active torsions:
REMARK  status: ('A' for Active; 'I' for Inactive)
REMARK    1  A    between atoms: CA   and  CB  
REMARK    2  A    between atoms: CB   and  CG  
REMARK    3  A    between atoms: CG   and  CD  
REMARK    4  A    between atoms: CD   and  CE  
ROOT
ATOM      1  CA  LYS A 131      29.867  25.555  16.977  1.00 20.52     0.186 C 
ENDROOT
BRANCH   1   2
ATOM      2  CB  LYS A 131      28.345  25.722  17.026  1.00 20.94     0.034 C 
BRANCH   2   3
ATOM      3  CG  LYS A 131      27.601  24.402  16.889  1.00 22.96     0.005 C 
BRANCH   3   4
ATOM      4  CD  LYS A 131      26.153  24.526  17.275  1.00 24.33     0.041 C 
BRANCH   4   5
ATOM      5  CE  LYS A 131      25.875  23.651  18.493  1.00 26.91     0.338 C 
ATOM      6  NZ  LYS A 131      24.841  22.637  18.178  1.00 27.40     0.618 N 
ENDBRANCH   4   5
ENDBRANCH   3   4
ENDBRANCH   2   3
ENDBRANCH   1   2
END_RES LYS A 131
BEGIN_RES LYS A 135
REMARK  4 active torsions:
REMARK  status: ('A' for Active; 'I' for Inactive)
REMARK    5  A    between atoms: CA   and  CB  
REMARK    6  A    between atoms: CB   and  CG  
REMARK    7  A    between atoms: CG   and  CD  
REMARK    8  A    between atoms: CD   and  CE  
ROOT
ATOM      7  CA  LYS A 135      33.193  34.663   9.290  1.00 25.02     0.186 C 
ENDROOT
BRANCH   7   8
ATOM      8  CB  LYS A 135      32.060  35.360  10.034  1.00 26.63     0.034 C 
BRANCH   8   9
ATOM      9  CG  LYS A 135      30.706  34.749   9.780  1.00 29.45     0.005 C 
BRANCH   9  10
ATOM     10  CD  LYS A 135      30.496  34.510   8.293  1.00 32.00     0.041 C 
BRANCH  10  11
ATOM     11  CE  LYS A 135      29.084  34.886   7.887  1.00 34.25     0.338 C 
ATOM     12  NZ  LYS A 135      28.336  35.474   9.033  1.00 35.99     0.618 N 
ENDBRANCH  10  11
ENDBRANCH   9  10
ENDBRANCH   8   9
ENDBRANCH   7   8
END_RES LYS A 135
