REMARK VINA RESULT:    -5.249      5.869     11.794
REMARK INTER + INTRA:         -14.805
REMARK INTER:                 -10.751
REMARK INTRA:                  -4.055
REMARK UNBOUND:                -5.414
REMARK SMILES CC(=O)N[C@@H]1[C@@H](O)C[C@](O)(C(=O)O)O[C@H]1C(O)[C@H](O)CNC(=O)OCc1cn(-c2ccccc2C(N)=O)nn1
REMARK SMILES IDX 21 1 22 2 23 3 20 5 18 6 16 7 15 8 9 9 8 10 14 11 6 12 5 13
REMARK SMILES IDX 10 14 11 16 12 17 13 18 7 20 4 22 2 23 1 25 3 26 17 27 19 29
REMARK SMILES IDX 24 31 25 32 26 33 27 34 39 35 28 36 38 37 29 38 34 39 30 40
REMARK SMILES IDX 33 41 31 42 32 43 35 44 37 45 36 46
REMARK H PARENT 21 4 10 15 13 19 7 21 4 24 17 28 19 30 36 47 36 48
REMARK Flexibility Score: inf
ROOT
ATOM      1  N   UNL     1      26.558  35.880  11.185  1.00  0.00    -0.319 N 
ATOM      2  C   UNL     1      27.611  36.742  11.589  1.00  0.00     0.407 C 
ATOM      3  O   UNL     1      27.453  37.973  11.498  1.00  0.00    -0.225 OA
ATOM      4  H   UNL     1      26.759  34.844  11.288  1.00  0.00     0.167 HD
ENDROOT
BRANCH   1   5
ATOM      5  C   UNL     1      25.287  36.319  10.666  1.00  0.00     0.154 C 
BRANCH   5   6
ATOM      6  C   UNL     1      25.036  35.828   9.251  1.00  0.00     0.165 C 
BRANCH   6   7
ATOM      7  C   UNL     1      25.475  36.829   8.224  1.00  0.00     0.176 C 
BRANCH   7   8
ATOM      8  C   UNL     1      26.732  36.486   7.519  1.00  0.00     0.178 C 
ATOM      9  C   UNL     1      28.901  35.797   8.062  1.00  0.00     0.269 C 
ATOM     10  C   UNL     1      28.982  35.623   6.574  1.00  0.00     0.112 C 
ATOM     11  O   UNL     1      27.670  36.134   8.526  1.00  0.00    -0.332 OA
ATOM     12  C   UNL     1      28.394  36.747   5.792  1.00  0.00     0.145 C 
ATOM     13  C   UNL     1      27.394  37.493   6.669  1.00  0.00     0.142 C 
BRANCH   9  14
ATOM     14  O   UNL     1      29.905  36.704   8.475  1.00  0.00    -0.357 OA
ATOM     15  H   UNL     1      29.515  37.625   8.419  1.00  0.00     0.214 HD
ENDBRANCH   9  14
BRANCH   9  16
ATOM     16  C   UNL     1      29.276  34.486   8.668  1.00  0.00     0.364 C 
ATOM     17  O   UNL     1      28.349  33.762   9.143  1.00  0.00    -0.246 OA
BRANCH  16  18
ATOM     18  O   UNL     1      30.570  34.018   8.741  1.00  0.00    -0.477 OA
ATOM     19  H   UNL     1      30.795  33.182   9.257  1.00  0.00     0.296 HD
ENDBRANCH  16  18
ENDBRANCH   9  16
BRANCH  12  20
ATOM     20  O   UNL     1      29.414  37.583   5.366  1.00  0.00    -0.391 OA
ATOM     21  H   UNL     1      30.142  37.691   6.028  1.00  0.00     0.211 HD
ENDBRANCH  12  20
BRANCH  13  22
ATOM     22  N   UNL     1      26.606  38.414   5.945  1.00  0.00    -0.348 N 
ATOM     23  C   UNL     1      26.713  39.808   6.134  1.00  0.00     0.217 C 
ATOM     24  H   UNL     1      25.929  38.089   5.226  1.00  0.00     0.163 HD
ATOM     25  C   UNL     1      25.915  40.815   5.405  1.00  0.00     0.114 C 
ATOM     26  O   UNL     1      27.541  40.219   6.976  1.00  0.00    -0.275 OA
ENDBRANCH  13  22
ENDBRANCH   7   8
BRANCH   7  27
ATOM     27  O   UNL     1      24.467  37.395   7.479  1.00  0.00    -0.388 OA
ATOM     28  H   UNL     1      24.846  38.105   6.877  1.00  0.00     0.211 HD
ENDBRANCH   7  27
ENDBRANCH   6   7
BRANCH   6  29
ATOM     29  O   UNL     1      23.781  35.313   9.088  1.00  0.00    -0.388 OA
ATOM     30  H   UNL     1      23.099  35.867   9.559  1.00  0.00     0.211 HD
ENDBRANCH   6  29
ENDBRANCH   5   6
ENDBRANCH   1   5
BRANCH   2  31
ATOM     31  O   UNL     1      28.817  36.261  12.085  1.00  0.00    -0.443 OA
BRANCH  31  32
ATOM     32  C   UNL     1      29.087  34.875  12.200  1.00  0.00     0.294 C 
BRANCH  32  33
ATOM     33  C   UNL     1      28.741  34.392  13.571  1.00  0.00     0.121 A 
ATOM     34  C   UNL     1      29.623  33.814  14.465  1.00  0.00     0.144 A 
ATOM     35  N   UNL     1      27.549  34.424  14.185  1.00  0.00    -0.131 NA
ATOM     36  N   UNL     1      28.920  33.516  15.598  1.00  0.00    -0.220 N 
ATOM     37  N   UNL     1      27.690  33.891  15.399  1.00  0.00    -0.062 NA
BRANCH  36  38
ATOM     38  C   UNL     1      29.472  32.894  16.764  1.00  0.00     0.079 A 
ATOM     39  C   UNL     1      29.154  31.606  17.125  1.00  0.00     0.065 A 
ATOM     40  C   UNL     1      30.356  33.636  17.541  1.00  0.00     0.029 A 
ATOM     41  C   UNL     1      29.736  31.070  18.278  1.00  0.00     0.016 A 
ATOM     42  C   UNL     1      30.916  33.092  18.671  1.00  0.00     0.002 A 
ATOM     43  C   UNL     1      30.599  31.809  19.030  1.00  0.00     0.001 A 
BRANCH  39  44
ATOM     44  C   UNL     1      28.239  30.776  16.357  1.00  0.00     0.250 C 
ATOM     45  O   UNL     1      28.751  29.930  15.554  1.00  0.00    -0.269 OA
ATOM     46  N   UNL     1      26.827  30.875  16.469  1.00  0.00    -0.366 N 
ATOM     47  H   UNL     1      26.311  30.546  17.300  1.00  0.00     0.159 HD
ATOM     48  H   UNL     1      26.317  31.304  15.639  1.00  0.00     0.159 HD
ENDBRANCH  39  44
ENDBRANCH  36  38
ENDBRANCH  32  33
ENDBRANCH  31  32
ENDBRANCH   2  31
TORSDOF 16
BEGIN_RES LYS A 131
REMARK  4 active torsions:
REMARK  status: ('A' for Active; 'I' for Inactive)
REMARK    1  A    between atoms: CA   and  CB  
REMARK    2  A    between atoms: CB   and  CG  
REMARK    3  A    between atoms: CG   and  CD  
REMARK    4  A    between atoms: CD   and  CE  
ROOT
ATOM      1  CA  LYS A 131      29.867  25.555  16.977  1.00 20.52     0.186 C 
ENDROOT
BRANCH   1   2
ATOM      2  CB  LYS A 131      28.345  25.722  17.026  1.00 20.94     0.034 C 
BRANCH   2   3
ATOM      3  CG  LYS A 131      27.600  24.409  16.838  1.00 22.96     0.005 C 
BRANCH   3   4
ATOM      4  CD  LYS A 131      26.609  24.157  17.940  1.00 24.33     0.041 C 
BRANCH   4   5
ATOM      5  CE  LYS A 131      25.237  23.874  17.336  1.00 26.91     0.338 C 
ATOM      6  NZ  LYS A 131      24.877  22.447  17.515  1.00 27.40     0.618 N 
ENDBRANCH   4   5
ENDBRANCH   3   4
ENDBRANCH   2   3
ENDBRANCH   1   2
END_RES LYS A 131
BEGIN_RES LYS A 135
REMARK  4 active torsions:
REMARK  status: ('A' for Active; 'I' for Inactive)
REMARK    5  A    between atoms: CA   and  CB  
REMARK    6  A    between atoms: CB   and  CG  
REMARK    7  A    between atoms: CG   and  CD  
REMARK    8  A    between atoms: CD   and  CE  
ROOT
ATOM      7  CA  LYS A 135      33.193  34.663   9.290  1.00 25.02     0.186 C 
ENDROOT
BRANCH   7   8
ATOM      8  CB  LYS A 135      32.060  35.360  10.034  1.00 26.63     0.034 C 
BRANCH   8   9
ATOM      9  CG  LYS A 135      32.491  35.993  11.332  1.00 29.45     0.005 C 
BRANCH   9  10
ATOM     10  CD  LYS A 135      32.103  37.464  11.366  1.00 32.00     0.041 C 
BRANCH  10  11
ATOM     11  CE  LYS A 135      31.578  37.844  12.738  1.00 34.25     0.338 C 
ATOM     12  NZ  LYS A 135      31.938  36.816  13.753  1.00 35.99     0.618 N 
ENDBRANCH  10  11
ENDBRANCH   9  10
ENDBRANCH   8   9
ENDBRANCH   7   8
END_RES LYS A 135
