REMARK VINA RESULT:    -5.348      4.077      8.489
REMARK INTER + INTRA:         -15.616
REMARK INTER:                  -9.803
REMARK INTRA:                  -5.813
REMARK UNBOUND:                -5.110
REMARK SMILES CC(=O)N[C@@H]1[C@@H](O)C[C@](O)(C(=O)O)O[C@H]1C(O)[C@H](O)CNC(=O)OCc1cn([C@@H](C)C(=O)OCc2ccccc2)nn1
REMARK SMILES IDX 24 1 22 2 21 3 23 5 20 6 18 7 16 8 15 9 9 10 8 11 14 12 6 13
REMARK SMILES IDX 5 14 10 15 11 17 12 18 13 19 7 21 4 23 2 24 1 26 3 27 17 28
REMARK SMILES IDX 19 30 25 32 26 33 27 34 42 35 28 36 41 37 29 38 30 39 31 40
REMARK SMILES IDX 32 41 33 42 34 43 35 44 36 45 40 46 37 47 39 48 38 49
REMARK H PARENT 21 4 10 16 13 20 7 22 4 25 17 29 19 31
REMARK Flexibility Score: inf
ROOT
ATOM      1  O   UNL     1      29.317  39.555  12.928  1.00  0.00    -0.443 OA
ENDROOT
BRANCH   1   2
ATOM      2  C   UNL     1      30.318  38.634  13.318  1.00  0.00     0.407 C 
ATOM      3  N   UNL     1      30.901  37.768  12.369  1.00  0.00    -0.319 N 
ATOM      4  H   UNL     1      30.521  37.856  11.374  1.00  0.00     0.167 HD
ATOM      5  O   UNL     1      30.626  38.656  14.524  1.00  0.00    -0.225 OA
BRANCH   3   6
ATOM      6  C   UNL     1      31.927  36.827  12.687  1.00  0.00     0.154 C 
BRANCH   6   7
ATOM      7  C   UNL     1      31.375  35.546  13.216  1.00  0.00     0.165 C 
BRANCH   7   8
ATOM      8  C   UNL     1      31.849  35.325  14.650  1.00  0.00     0.176 C 
BRANCH   8   9
ATOM      9  C   UNL     1      30.730  35.149  15.629  1.00  0.00     0.178 C 
ATOM     10  C   UNL     1      30.695  32.808  15.691  1.00  0.00     0.269 C 
ATOM     11  C   UNL     1      29.501  32.828  14.791  1.00  0.00     0.112 C 
ATOM     12  O   UNL     1      30.900  33.976  16.383  1.00  0.00    -0.332 OA
ATOM     13  C   UNL     1      28.574  33.943  15.229  1.00  0.00     0.145 C 
ATOM     14  C   UNL     1      29.350  35.241  15.065  1.00  0.00     0.142 C 
BRANCH  10  15
ATOM     15  O   UNL     1      31.818  32.434  14.990  1.00  0.00    -0.357 OA
ATOM     16  H   UNL     1      31.683  31.605  14.451  1.00  0.00     0.214 HD
ENDBRANCH  10  15
BRANCH  10  17
ATOM     17  C   UNL     1      30.462  31.753  16.744  1.00  0.00     0.364 C 
ATOM     18  O   UNL     1      30.708  31.989  17.954  1.00  0.00    -0.246 OA
BRANCH  17  19
ATOM     19  O   UNL     1      29.974  30.494  16.427  1.00  0.00    -0.477 OA
ATOM     20  H   UNL     1      29.158  30.367  15.809  1.00  0.00     0.296 HD
ENDBRANCH  17  19
ENDBRANCH  10  17
BRANCH  13  21
ATOM     21  O   UNL     1      27.412  33.937  14.483  1.00  0.00    -0.391 OA
ATOM     22  H   UNL     1      27.446  33.313  13.715  1.00  0.00     0.211 HD
ENDBRANCH  13  21
BRANCH  14  23
ATOM     23  N   UNL     1      28.570  36.340  15.643  1.00  0.00    -0.348 N 
ATOM     24  C   UNL     1      27.583  37.055  14.903  1.00  0.00     0.217 C 
ATOM     25  H   UNL     1      28.719  36.641  16.642  1.00  0.00     0.163 HD
ATOM     26  C   UNL     1      26.821  38.167  15.548  1.00  0.00     0.114 C 
ATOM     27  O   UNL     1      27.359  36.743  13.710  1.00  0.00    -0.275 OA
ENDBRANCH  14  23
ENDBRANCH   8   9
BRANCH   8  28
ATOM     28  O   UNL     1      32.610  36.432  15.046  1.00  0.00    -0.388 OA
ATOM     29  H   UNL     1      33.181  36.172  15.819  1.00  0.00     0.211 HD
ENDBRANCH   8  28
ENDBRANCH   7   8
BRANCH   7  30
ATOM     30  O   UNL     1      31.801  34.485  12.418  1.00  0.00    -0.388 OA
ATOM     31  H   UNL     1      32.394  33.849  12.915  1.00  0.00     0.211 HD
ENDBRANCH   7  30
ENDBRANCH   6   7
ENDBRANCH   3   6
ENDBRANCH   1   2
BRANCH   1  32
ATOM     32  C   UNL     1      29.209  39.898  11.562  1.00  0.00     0.294 C 
BRANCH  32  33
ATOM     33  C   UNL     1      27.810  39.893  11.096  1.00  0.00     0.120 A 
ATOM     34  C   UNL     1      26.755  39.128  11.536  1.00  0.00     0.139 A 
ATOM     35  N   UNL     1      27.309  40.673  10.124  1.00  0.00    -0.132 NA
ATOM     36  N   UNL     1      25.648  39.455  10.827  1.00  0.00    -0.238 N 
ATOM     37  N   UNL     1      26.011  40.385   9.987  1.00  0.00    -0.066 NA
BRANCH  36  38
ATOM     38  C   UNL     1      24.343  38.873  10.992  1.00  0.00     0.215 C 
ATOM     39  C   UNL     1      23.396  39.412   9.943  1.00  0.00     0.046 C 
BRANCH  38  40
ATOM     40  C   UNL     1      24.453  37.409  10.962  1.00  0.00     0.331 C 
ATOM     41  O   UNL     1      24.389  36.756  12.046  1.00  0.00    -0.250 OA
BRANCH  40  42
ATOM     42  O   UNL     1      24.625  36.698   9.793  1.00  0.00    -0.459 OA
BRANCH  42  43
ATOM     43  C   UNL     1      25.498  35.633   9.587  1.00  0.00     0.268 C 
BRANCH  43  44
ATOM     44  C   UNL     1      26.336  35.913   8.388  1.00  0.00    -0.011 A 
ATOM     45  C   UNL     1      26.231  37.119   7.732  1.00  0.00     0.007 A 
ATOM     46  C   UNL     1      27.220  34.972   7.935  1.00  0.00     0.007 A 
ATOM     47  C   UNL     1      27.005  37.383   6.628  1.00  0.00     0.000 A 
ATOM     48  C   UNL     1      28.003  35.207   6.839  1.00  0.00     0.000 A 
ATOM     49  C   UNL     1      27.894  36.412   6.188  1.00  0.00     0.000 A 
ENDBRANCH  43  44
ENDBRANCH  42  43
ENDBRANCH  40  42
ENDBRANCH  38  40
ENDBRANCH  36  38
ENDBRANCH  32  33
ENDBRANCH   1  32
TORSDOF 19
BEGIN_RES LYS A 131
REMARK  4 active torsions:
REMARK  status: ('A' for Active; 'I' for Inactive)
REMARK    1  A    between atoms: CA   and  CB  
REMARK    2  A    between atoms: CB   and  CG  
REMARK    3  A    between atoms: CG   and  CD  
REMARK    4  A    between atoms: CD   and  CE  
ROOT
ATOM      1  CA  LYS A 131      29.867  25.555  16.977  1.00 20.52     0.186 C 
ENDROOT
BRANCH   1   2
ATOM      2  CB  LYS A 131      28.345  25.722  17.026  1.00 20.94     0.034 C 
BRANCH   2   3
ATOM      3  CG  LYS A 131      27.600  24.408  16.849  1.00 22.96     0.005 C 
BRANCH   3   4
ATOM      4  CD  LYS A 131      26.151  24.522  17.231  1.00 24.33     0.041 C 
BRANCH   4   5
ATOM      5  CE  LYS A 131      25.630  23.156  17.666  1.00 26.91     0.338 C 
ATOM      6  NZ  LYS A 131      25.513  23.091  19.142  1.00 27.40     0.618 N 
ENDBRANCH   4   5
ENDBRANCH   3   4
ENDBRANCH   2   3
ENDBRANCH   1   2
END_RES LYS A 131
BEGIN_RES LYS A 135
REMARK  4 active torsions:
REMARK  status: ('A' for Active; 'I' for Inactive)
REMARK    5  A    between atoms: CA   and  CB  
REMARK    6  A    between atoms: CB   and  CG  
REMARK    7  A    between atoms: CG   and  CD  
REMARK    8  A    between atoms: CD   and  CE  
ROOT
ATOM      7  CA  LYS A 135      33.193  34.663   9.290  1.00 25.02     0.186 C 
ENDROOT
BRANCH   7   8
ATOM      8  CB  LYS A 135      32.060  35.360  10.034  1.00 26.63     0.034 C 
BRANCH   8   9
ATOM      9  CG  LYS A 135      30.775  35.427   9.249  1.00 29.45     0.005 C 
BRANCH   9  10
ATOM     10  CD  LYS A 135      30.078  36.760   9.473  1.00 32.00     0.041 C 
BRANCH  10  11
ATOM     11  CE  LYS A 135      30.804  37.870   8.739  1.00 34.25     0.338 C 
ATOM     12  NZ  LYS A 135      29.842  38.840   8.146  1.00 35.99     0.618 N 
ENDBRANCH  10  11
ENDBRANCH   9  10
ENDBRANCH   8   9
ENDBRANCH   7   8
END_RES LYS A 135
