REMARK VINA RESULT:    -5.576      4.111      7.110
REMARK INTER + INTRA:         -15.314
REMARK INTER:                  -9.776
REMARK INTRA:                  -5.538
REMARK UNBOUND:                -5.337
REMARK SMILES CC(=O)N[C@@H]1[C@@H](O)C[C@](O)(C(=O)O)O[C@H]1C(O)[C@H](O)CNC(=O)OCc1cn(CC2=CC[C@H]3C[C@@H]2C3(C)C)nn1
REMARK SMILES IDX 21 1 22 2 23 3 20 5 18 6 16 7 15 8 9 9 8 10 14 11 6 12 5 13
REMARK SMILES IDX 10 14 11 16 12 17 13 18 7 20 4 22 2 23 1 25 3 26 17 27 19 29
REMARK SMILES IDX 24 31 25 32 26 33 27 34 40 35 28 36 39 37 29 38 30 39 31 40
REMARK SMILES IDX 35 41 32 42 34 43 36 44 33 45 37 46 38 47
REMARK H PARENT 21 4 10 15 13 19 7 21 4 24 17 28 19 30
REMARK Flexibility Score: inf
ROOT
ATOM      1  N   UNL     1      24.772  35.651  15.977  1.00  0.00    -0.319 N 
ATOM      2  C   UNL     1      25.083  37.028  15.703  1.00  0.00     0.407 C 
ATOM      3  O   UNL     1      25.493  37.750  16.647  1.00  0.00    -0.225 OA
ATOM      4  H   UNL     1      24.433  35.049  15.199  1.00  0.00     0.167 HD
ENDROOT
BRANCH   1   5
ATOM      5  C   UNL     1      24.935  35.132  17.319  1.00  0.00     0.154 C 
BRANCH   5   6
ATOM      6  C   UNL     1      25.533  33.758  17.219  1.00  0.00     0.165 C 
BRANCH   6   7
ATOM      7  C   UNL     1      26.769  33.731  16.347  1.00  0.00     0.176 C 
BRANCH   7   8
ATOM      8  C   UNL     1      27.700  32.688  16.921  1.00  0.00     0.178 C 
ATOM      9  C   UNL     1      29.788  33.149  16.031  1.00  0.00     0.269 C 
ATOM     10  C   UNL     1      29.901  31.811  15.337  1.00  0.00     0.112 C 
ATOM     11  O   UNL     1      28.973  33.128  17.136  1.00  0.00    -0.332 OA
ATOM     12  C   UNL     1      29.018  30.831  16.068  1.00  0.00     0.145 C 
ATOM     13  C   UNL     1      27.624  31.424  16.097  1.00  0.00     0.142 C 
BRANCH   9  14
ATOM     14  O   UNL     1      29.414  34.125  15.102  1.00  0.00    -0.357 OA
ATOM     15  H   UNL     1      29.029  33.628  14.329  1.00  0.00     0.214 HD
ENDBRANCH   9  14
BRANCH   9  16
ATOM     16  C   UNL     1      31.160  33.508  16.495  1.00  0.00     0.364 C 
ATOM     17  O   UNL     1      32.116  33.532  15.647  1.00  0.00    -0.246 OA
BRANCH  16  18
ATOM     18  O   UNL     1      31.450  33.818  17.807  1.00  0.00    -0.477 OA
ATOM     19  H   UNL     1      31.094  33.262  18.580  1.00  0.00     0.296 HD
ENDBRANCH  16  18
ENDBRANCH   9  16
BRANCH  12  20
ATOM     20  O   UNL     1      28.958  29.603  15.439  1.00  0.00    -0.391 OA
ATOM     21  H   UNL     1      29.092  28.907  16.132  1.00  0.00     0.211 HD
ENDBRANCH  12  20
BRANCH  13  22
ATOM     22  N   UNL     1      26.655  30.483  16.597  1.00  0.00    -0.348 N 
ATOM     23  C   UNL     1      25.519  30.105  15.836  1.00  0.00     0.217 C 
ATOM     24  H   UNL     1      26.809  30.078  17.546  1.00  0.00     0.163 HD
ATOM     25  C   UNL     1      24.568  29.126  16.430  1.00  0.00     0.114 C 
ATOM     26  O   UNL     1      25.328  30.588  14.692  1.00  0.00    -0.275 OA
ENDBRANCH  13  22
ENDBRANCH   7   8
BRANCH   7  27
ATOM     27  O   UNL     1      26.450  33.345  15.048  1.00  0.00    -0.388 OA
ATOM     28  H   UNL     1      26.419  32.381  14.927  1.00  0.00     0.211 HD
ENDBRANCH   7  27
ENDBRANCH   6   7
BRANCH   6  29
ATOM     29  O   UNL     1      24.554  32.936  16.620  1.00  0.00    -0.388 OA
ATOM     30  H   UNL     1      23.756  32.863  17.215  1.00  0.00     0.211 HD
ENDBRANCH   6  29
ENDBRANCH   5   6
ENDBRANCH   1   5
BRANCH   2  31
ATOM     31  O   UNL     1      24.954  37.587  14.461  1.00  0.00    -0.443 OA
BRANCH  31  32
ATOM     32  C   UNL     1      26.046  37.913  13.620  1.00  0.00     0.294 C 
BRANCH  32  33
ATOM     33  C   UNL     1      26.601  36.689  13.007  1.00  0.00     0.120 A 
ATOM     34  C   UNL     1      26.324  36.140  11.777  1.00  0.00     0.138 A 
ATOM     35  N   UNL     1      27.506  35.878  13.576  1.00  0.00    -0.132 NA
ATOM     36  N   UNL     1      27.066  35.004  11.620  1.00  0.00    -0.248 N 
ATOM     37  N   UNL     1      27.772  34.877  12.734  1.00  0.00    -0.067 NA
BRANCH  36  38
ATOM     38  C   UNL     1      27.043  34.155  10.454  1.00  0.00     0.177 C 
BRANCH  38  39
ATOM     39  C   UNL     1      27.972  34.674   9.389  1.00  0.00    -0.049 C 
ATOM     40  C   UNL     1      29.205  34.195   9.255  1.00  0.00    -0.025 C 
ATOM     41  C   UNL     1      27.546  35.734   8.454  1.00  0.00     0.023 C 
ATOM     42  C   UNL     1      29.985  34.565   8.043  1.00  0.00     0.031 C 
ATOM     43  C   UNL     1      27.820  35.191   7.044  1.00  0.00     0.013 C 
ATOM     44  C   UNL     1      28.702  36.685   8.218  1.00  0.00    -0.026 C 
ATOM     45  C   UNL     1      29.262  35.619   7.263  1.00  0.00    -0.000 C 
ATOM     46  C   UNL     1      28.330  37.918   7.444  1.00  0.00     0.012 C 
ATOM     47  C   UNL     1      29.560  36.978   9.402  1.00  0.00     0.012 C 
ENDBRANCH  38  39
ENDBRANCH  36  38
ENDBRANCH  32  33
ENDBRANCH  31  32
ENDBRANCH   2  31
TORSDOF 16
BEGIN_RES LYS A 131
REMARK  4 active torsions:
REMARK  status: ('A' for Active; 'I' for Inactive)
REMARK    1  A    between atoms: CA   and  CB  
REMARK    2  A    between atoms: CB   and  CG  
REMARK    3  A    between atoms: CG   and  CD  
REMARK    4  A    between atoms: CD   and  CE  
ROOT
ATOM      1  CA  LYS A 131      29.867  25.555  16.977  1.00 20.52     0.186 C 
ENDROOT
BRANCH   1   2
ATOM      2  CB  LYS A 131      28.345  25.722  17.026  1.00 20.94     0.034 C 
BRANCH   2   3
ATOM      3  CG  LYS A 131      27.601  24.402  16.890  1.00 22.96     0.005 C 
BRANCH   3   4
ATOM      4  CD  LYS A 131      26.523  24.250  17.927  1.00 24.33     0.041 C 
BRANCH   4   5
ATOM      5  CE  LYS A 131      25.177  24.055  17.236  1.00 26.91     0.338 C 
ATOM      6  NZ  LYS A 131      24.397  25.316  17.253  1.00 27.40     0.618 N 
ENDBRANCH   4   5
ENDBRANCH   3   4
ENDBRANCH   2   3
ENDBRANCH   1   2
END_RES LYS A 131
BEGIN_RES LYS A 135
REMARK  4 active torsions:
REMARK  status: ('A' for Active; 'I' for Inactive)
REMARK    5  A    between atoms: CA   and  CB  
REMARK    6  A    between atoms: CB   and  CG  
REMARK    7  A    between atoms: CG   and  CD  
REMARK    8  A    between atoms: CD   and  CE  
ROOT
ATOM      7  CA  LYS A 135      33.193  34.663   9.290  1.00 25.02     0.186 C 
ENDROOT
BRANCH   7   8
ATOM      8  CB  LYS A 135      32.060  35.360  10.034  1.00 26.63     0.034 C 
BRANCH   8   9
ATOM      9  CG  LYS A 135      32.470  35.913  11.374  1.00 29.45     0.005 C 
BRANCH   9  10
ATOM     10  CD  LYS A 135      31.489  35.485  12.455  1.00 32.00     0.041 C 
BRANCH  10  11
ATOM     11  CE  LYS A 135      31.036  36.683  13.268  1.00 34.25     0.338 C 
ATOM     12  NZ  LYS A 135      31.820  36.802  14.529  1.00 35.99     0.618 N 
ENDBRANCH  10  11
ENDBRANCH   9  10
ENDBRANCH   8   9
ENDBRANCH   7   8
END_RES LYS A 135
