REMARK VINA RESULT:    -4.993      5.277     11.622
REMARK INTER + INTRA:         -15.718
REMARK INTER:                  -9.278
REMARK INTRA:                  -6.439
REMARK UNBOUND:                -5.909
REMARK SMILES CC(=O)N[C@@H]1[C@@H](O)C[C@](O)(C(=O)O)O[C@H]1C(O)[C@H](O)CNC(=O)OCc1cn(CCNC(=O)NCc2ccco2)nn1
REMARK SMILES IDX 24 1 22 2 21 3 23 5 20 6 18 7 16 8 15 9 9 10 8 11 14 12 6 13
REMARK SMILES IDX 5 14 10 15 11 17 12 18 13 19 7 21 4 23 2 24 1 26 3 27 17 28
REMARK SMILES IDX 19 30 25 32 26 33 27 34 42 35 28 36 41 37 29 38 30 39 31 40
REMARK SMILES IDX 32 41 33 43 34 44 35 46 36 47 37 48 40 49 38 50 39 51
REMARK H PARENT 21 4 10 16 13 20 7 22 4 25 17 29 19 31 31 42 34 45
REMARK Flexibility Score: inf
ROOT
ATOM      1  O   UNL     1      26.348  35.918  15.366  1.00  0.00    -0.443 OA
ENDROOT
BRANCH   1   2
ATOM      2  C   UNL     1      27.176  35.861  14.249  1.00  0.00     0.407 C 
ATOM      3  N   UNL     1      26.814  35.289  13.021  1.00  0.00    -0.319 N 
ATOM      4  H   UNL     1      25.879  34.874  12.902  1.00  0.00     0.167 HD
ATOM      5  O   UNL     1      28.327  36.360  14.359  1.00  0.00    -0.225 OA
BRANCH   3   6
ATOM      6  C   UNL     1      27.768  35.284  11.907  1.00  0.00     0.154 C 
BRANCH   6   7
ATOM      7  C   UNL     1      27.227  36.150  10.801  1.00  0.00     0.165 C 
BRANCH   7   8
ATOM      8  C   UNL     1      27.929  37.477  10.715  1.00  0.00     0.176 C 
BRANCH   8   9
ATOM      9  C   UNL     1      27.421  38.331   9.589  1.00  0.00     0.178 C 
ATOM     10  C   UNL     1      26.041  38.122   7.715  1.00  0.00     0.269 C 
ATOM     11  C   UNL     1      26.721  39.267   7.037  1.00  0.00     0.112 C 
ATOM     12  O   UNL     1      26.767  37.489   8.672  1.00  0.00    -0.332 OA
ATOM     13  C   UNL     1      27.788  39.929   7.811  1.00  0.00     0.145 C 
ATOM     14  C   UNL     1      28.502  38.997   8.773  1.00  0.00     0.142 C 
BRANCH  10  15
ATOM     15  O   UNL     1      25.815  37.163   6.693  1.00  0.00    -0.357 OA
ATOM     16  H   UNL     1      24.846  37.041   6.536  1.00  0.00     0.214 HD
ENDBRANCH  10  15
BRANCH  10  17
ATOM     17  C   UNL     1      24.707  38.480   8.255  1.00  0.00     0.364 C 
ATOM     18  O   UNL     1      24.141  39.568   7.951  1.00  0.00    -0.246 OA
BRANCH  17  19
ATOM     19  O   UNL     1      24.001  37.654   9.121  1.00  0.00    -0.477 OA
ATOM     20  H   UNL     1      23.924  36.661   8.925  1.00  0.00     0.296 HD
ENDBRANCH  17  19
ENDBRANCH  10  17
BRANCH  13  21
ATOM     21  O   UNL     1      28.727  40.509   6.932  1.00  0.00    -0.391 OA
ATOM     22  H   UNL     1      28.332  41.232   6.405  1.00  0.00     0.211 HD
ENDBRANCH  13  21
BRANCH  14  23
ATOM     23  N   UNL     1      29.494  39.698   9.513  1.00  0.00    -0.348 N 
ATOM     24  C   UNL     1      30.856  39.614   9.089  1.00  0.00     0.217 C 
ATOM     25  H   UNL     1      29.303  40.286  10.351  1.00  0.00     0.163 HD
ATOM     26  C   UNL     1      31.960  40.306   9.788  1.00  0.00     0.114 C 
ATOM     27  O   UNL     1      31.154  38.924   8.071  1.00  0.00    -0.275 OA
ENDBRANCH  14  23
ENDBRANCH   8   9
BRANCH   8  28
ATOM     28  O   UNL     1      28.022  38.136  11.927  1.00  0.00    -0.388 OA
ATOM     29  H   UNL     1      27.228  38.685  12.148  1.00  0.00     0.211 HD
ENDBRANCH   8  28
ENDBRANCH   7   8
BRANCH   7  30
ATOM     30  O   UNL     1      25.892  36.460  11.181  1.00  0.00    -0.388 OA
ATOM     31  H   UNL     1      25.543  36.995  10.404  1.00  0.00     0.211 HD
ENDBRANCH   7  30
ENDBRANCH   6   7
ENDBRANCH   3   6
ENDBRANCH   1   2
BRANCH   1  32
ATOM     32  C   UNL     1      25.781  34.751  15.922  1.00  0.00     0.294 C 
BRANCH  32  33
ATOM     33  C   UNL     1      26.880  33.820  16.262  1.00  0.00     0.120 A 
ATOM     34  C   UNL     1      27.232  32.679  15.594  1.00  0.00     0.138 A 
ATOM     35  N   UNL     1      27.728  33.940  17.296  1.00  0.00    -0.132 NA
ATOM     36  N   UNL     1      28.281  32.138  16.238  1.00  0.00    -0.250 N 
ATOM     37  N   UNL     1      28.580  32.908  17.272  1.00  0.00    -0.067 NA
BRANCH  36  38
ATOM     38  C   UNL     1      28.996  30.908  15.883  1.00  0.00     0.167 C 
BRANCH  38  39
ATOM     39  C   UNL     1      30.447  31.113  16.231  1.00  0.00     0.141 C 
BRANCH  39  40
ATOM     40  N   UNL     1      31.076  31.911  15.209  1.00  0.00    -0.336 N 
ATOM     41  C   UNL     1      31.738  33.138  15.451  1.00  0.00     0.315 C 
ATOM     42  H   UNL     1      31.058  31.582  14.203  1.00  0.00     0.165 HD
ATOM     43  O   UNL     1      31.786  33.568  16.643  1.00  0.00    -0.249 OA
ATOM     44  N   UNL     1      32.325  33.853  14.375  1.00  0.00    -0.331 N 
ATOM     45  H   UNL     1      32.300  33.524  13.393  1.00  0.00     0.165 HD
BRANCH  44  46
ATOM     46  C   UNL     1      32.993  35.103  14.661  1.00  0.00     0.193 C 
BRANCH  46  47
ATOM     47  C   UNL     1      32.407  36.154  13.802  1.00  0.00     0.122 A 
ATOM     48  C   UNL     1      32.555  36.197  12.419  1.00  0.00     0.047 A 
ATOM     49  O   UNL     1      31.690  37.166  14.176  1.00  0.00    -0.467 OA
ATOM     50  C   UNL     1      31.865  37.318  12.012  1.00  0.00     0.042 A 
ATOM     51  C   UNL     1      31.343  37.887  13.155  1.00  0.00     0.195 A 
ENDBRANCH  46  47
ENDBRANCH  44  46
ENDBRANCH  39  40
ENDBRANCH  38  39
ENDBRANCH  36  38
ENDBRANCH  32  33
ENDBRANCH   1  32
TORSDOF 19
BEGIN_RES LYS A 131
REMARK  4 active torsions:
REMARK  status: ('A' for Active; 'I' for Inactive)
REMARK    1  A    between atoms: CA   and  CB  
REMARK    2  A    between atoms: CB   and  CG  
REMARK    3  A    between atoms: CG   and  CD  
REMARK    4  A    between atoms: CD   and  CE  
ROOT
ATOM      1  CA  LYS A 131      29.867  25.555  16.977  1.00 20.52     0.186 C 
ENDROOT
BRANCH   1   2
ATOM      2  CB  LYS A 131      28.345  25.722  17.026  1.00 20.94     0.034 C 
BRANCH   2   3
ATOM      3  CG  LYS A 131      27.599  24.459  16.626  1.00 22.96     0.005 C 
BRANCH   3   4
ATOM      4  CD  LYS A 131      27.000  23.754  17.812  1.00 24.33     0.041 C 
BRANCH   4   5
ATOM      5  CE  LYS A 131      26.227  24.757  18.662  1.00 26.91     0.338 C 
ATOM      6  NZ  LYS A 131      24.832  24.299  18.864  1.00 27.40     0.618 N 
ENDBRANCH   4   5
ENDBRANCH   3   4
ENDBRANCH   2   3
ENDBRANCH   1   2
END_RES LYS A 131
BEGIN_RES LYS A 135
REMARK  4 active torsions:
REMARK  status: ('A' for Active; 'I' for Inactive)
REMARK    5  A    between atoms: CA   and  CB  
REMARK    6  A    between atoms: CB   and  CG  
REMARK    7  A    between atoms: CG   and  CD  
REMARK    8  A    between atoms: CD   and  CE  
ROOT
ATOM      7  CA  LYS A 135      33.193  34.663   9.290  1.00 25.02     0.186 C 
ENDROOT
BRANCH   7   8
ATOM      8  CB  LYS A 135      32.060  35.360  10.034  1.00 26.63     0.034 C 
BRANCH   8   9
ATOM      9  CG  LYS A 135      30.689  34.885   9.626  1.00 29.45     0.005 C 
BRANCH   9  10
ATOM     10  CD  LYS A 135      30.182  35.675   8.429  1.00 32.00     0.041 C 
BRANCH  10  11
ATOM     11  CE  LYS A 135      29.033  34.948   7.759  1.00 34.25     0.338 C 
ATOM     12  NZ  LYS A 135      28.689  35.575   6.453  1.00 35.99     0.618 N 
ENDBRANCH  10  11
ENDBRANCH   9  10
ENDBRANCH   8   9
ENDBRANCH   7   8
END_RES LYS A 135
