REMARK VINA RESULT:    -4.835      2.658      3.570
REMARK INTER + INTRA:         -13.877
REMARK INTER:                  -7.910
REMARK INTRA:                  -5.967
REMARK UNBOUND:                -5.226
REMARK SMILES COc1ccc(-n2cc(COC(=O)NC[C@@H](O)C(O)[C@@H]3O[C@@](O)(C(=O)O)C[C@H](O)[C@H]3NC(C)=O)nn2)cc1
REMARK SMILES IDX 14 1 12 2 13 3 15 5 16 6 18 7 20 8 22 9 27 10 21 11 28 12
REMARK SMILES IDX 30 13 23 14 24 16 25 17 26 18 29 20 31 22 32 23 33 25 34 26
REMARK SMILES IDX 19 27 17 29 11 31 10 32 9 33 8 34 35 35 7 36 36 37 6 38 5 39
REMARK SMILES IDX 37 40 4 41 38 42 3 43 2 44 1 45
REMARK H PARENT 14 4 23 15 26 19 29 21 31 24 19 28 17 30
REMARK Flexibility Score: inf
ROOT
ATOM      1  N   UNL     1      29.147  27.373  19.922  1.00  0.00    -0.319 N 
ATOM      2  C   UNL     1      27.789  27.368  19.537  1.00  0.00     0.407 C 
ATOM      3  O   UNL     1      26.864  27.354  20.363  1.00  0.00    -0.225 OA
ATOM      4  H   UNL     1      29.838  27.357  19.104  1.00  0.00     0.167 HD
ENDROOT
BRANCH   1   5
ATOM      5  C   UNL     1      29.700  27.395  21.215  1.00  0.00     0.154 C 
BRANCH   5   6
ATOM      6  C   UNL     1      31.085  27.816  21.414  1.00  0.00     0.165 C 
BRANCH   6   7
ATOM      7  C   UNL     1      31.580  29.015  20.775  1.00  0.00     0.176 C 
BRANCH   7   8
ATOM      8  C   UNL     1      31.123  30.356  21.390  1.00  0.00     0.178 C 
ATOM      9  C   UNL     1      30.323  30.806  23.562  1.00  0.00     0.269 C 
ATOM     10  C   UNL     1      28.872  30.803  23.057  1.00  0.00     0.112 C 
ATOM     11  O   UNL     1      31.028  30.032  22.732  1.00  0.00    -0.332 OA
ATOM     12  C   UNL     1      28.894  31.499  21.751  1.00  0.00     0.145 C 
ATOM     13  C   UNL     1      29.941  30.942  20.769  1.00  0.00     0.142 C 
BRANCH   9  14
ATOM     14  O   UNL     1      30.235  30.075  24.779  1.00  0.00    -0.357 OA
ATOM     15  H   UNL     1      29.368  30.235  25.225  1.00  0.00     0.214 HD
ENDBRANCH   9  14
BRANCH   9  16
ATOM     16  C   UNL     1      30.831  32.127  23.877  1.00  0.00     0.364 C 
ATOM     17  O   UNL     1      30.104  32.962  24.471  1.00  0.00    -0.246 OA
BRANCH  16  18
ATOM     18  O   UNL     1      32.110  32.598  23.574  1.00  0.00    -0.477 OA
ATOM     19  H   UNL     1      32.265  33.416  22.980  1.00  0.00     0.296 HD
ENDBRANCH  16  18
ENDBRANCH   9  16
BRANCH  12  20
ATOM     20  O   UNL     1      27.666  31.466  21.073  1.00  0.00    -0.391 OA
ATOM     21  H   UNL     1      27.436  30.486  21.009  1.00  0.00     0.211 HD
ENDBRANCH  12  20
BRANCH  13  22
ATOM     22  N   UNL     1      30.132  32.047  19.882  1.00  0.00    -0.348 N 
ATOM     23  C   UNL     1      31.162  32.988  19.898  1.00  0.00     0.217 C 
ATOM     24  H   UNL     1      29.390  32.147  19.126  1.00  0.00     0.163 HD
ATOM     25  C   UNL     1      31.225  34.100  18.900  1.00  0.00     0.114 C 
ATOM     26  O   UNL     1      32.023  32.868  20.776  1.00  0.00    -0.275 OA
ENDBRANCH  13  22
ENDBRANCH   7   8
BRANCH   7  27
ATOM     27  O   UNL     1      32.968  28.973  20.679  1.00  0.00    -0.388 OA
ATOM     28  H   UNL     1      33.412  29.367  21.472  1.00  0.00     0.211 HD
ENDBRANCH   7  27
ENDBRANCH   6   7
BRANCH   6  29
ATOM     29  O   UNL     1      31.951  26.697  21.253  1.00  0.00    -0.388 OA
ATOM     30  H   UNL     1      32.551  26.845  20.476  1.00  0.00     0.211 HD
ENDBRANCH   6  29
ENDBRANCH   5   6
ENDBRANCH   1   5
BRANCH   2  31
ATOM     31  O   UNL     1      27.418  27.380  18.176  1.00  0.00    -0.443 OA
BRANCH  31  32
ATOM     32  C   UNL     1      26.449  28.295  17.728  1.00  0.00     0.294 C 
BRANCH  32  33
ATOM     33  C   UNL     1      27.018  29.651  17.706  1.00  0.00     0.121 A 
ATOM     34  C   UNL     1      28.003  30.062  16.801  1.00  0.00     0.144 A 
ATOM     35  N   UNL     1      26.773  30.722  18.455  1.00  0.00    -0.131 NA
ATOM     36  N   UNL     1      28.298  31.351  17.050  1.00  0.00    -0.220 N 
ATOM     37  N   UNL     1      27.524  31.718  18.069  1.00  0.00    -0.062 NA
BRANCH  36  38
ATOM     38  C   UNL     1      29.242  32.166  16.370  1.00  0.00     0.067 A 
ATOM     39  C   UNL     1      28.945  33.424  15.898  1.00  0.00     0.032 A 
ATOM     40  C   UNL     1      30.544  31.708  16.151  1.00  0.00     0.032 A 
ATOM     41  C   UNL     1      29.883  34.208  15.237  1.00  0.00     0.048 A 
ATOM     42  C   UNL     1      31.474  32.489  15.493  1.00  0.00     0.048 A 
ATOM     43  C   UNL     1      31.160  33.744  15.029  1.00  0.00     0.119 A 
BRANCH  43  44
ATOM     44  O   UNL     1      32.076  34.516  14.380  1.00  0.00    -0.497 OA
ATOM     45  C   UNL     1      31.667  35.359  13.324  1.00  0.00     0.278 C 
ENDBRANCH  43  44
ENDBRANCH  36  38
ENDBRANCH  32  33
ENDBRANCH  31  32
ENDBRANCH   2  31
TORSDOF 16
BEGIN_RES LYS A 131
REMARK  4 active torsions:
REMARK  status: ('A' for Active; 'I' for Inactive)
REMARK    1  A    between atoms: CA   and  CB  
REMARK    2  A    between atoms: CB   and  CG  
REMARK    3  A    between atoms: CG   and  CD  
REMARK    4  A    between atoms: CD   and  CE  
ROOT
ATOM      1  CA  LYS A 131      29.867  25.555  16.977  1.00 20.52     0.186 C 
ENDROOT
BRANCH   1   2
ATOM      2  CB  LYS A 131      28.345  25.722  17.026  1.00 20.94     0.034 C 
BRANCH   2   3
ATOM      3  CG  LYS A 131      27.599  24.427  16.743  1.00 22.96     0.005 C 
BRANCH   3   4
ATOM      4  CD  LYS A 131      27.004  23.833  17.989  1.00 24.33     0.041 C 
BRANCH   4   5
ATOM      5  CE  LYS A 131      25.597  24.385  18.195  1.00 26.91     0.338 C 
ATOM      6  NZ  LYS A 131      24.865  24.432  16.907  1.00 27.40     0.618 N 
ENDBRANCH   4   5
ENDBRANCH   3   4
ENDBRANCH   2   3
ENDBRANCH   1   2
END_RES LYS A 131
BEGIN_RES LYS A 135
REMARK  4 active torsions:
REMARK  status: ('A' for Active; 'I' for Inactive)
REMARK    5  A    between atoms: CA   and  CB  
REMARK    6  A    between atoms: CB   and  CG  
REMARK    7  A    between atoms: CG   and  CD  
REMARK    8  A    between atoms: CD   and  CE  
ROOT
ATOM      7  CA  LYS A 135      33.193  34.663   9.290  1.00 25.02     0.186 C 
ENDROOT
BRANCH   7   8
ATOM      8  CB  LYS A 135      32.060  35.360  10.034  1.00 26.63     0.034 C 
BRANCH   8   9
ATOM      9  CG  LYS A 135      30.706  34.751   9.776  1.00 29.45     0.005 C 
BRANCH   9  10
ATOM     10  CD  LYS A 135      30.497  34.517   8.288  1.00 32.00     0.041 C 
BRANCH  10  11
ATOM     11  CE  LYS A 135      29.083  34.888   7.884  1.00 34.25     0.338 C 
ATOM     12  NZ  LYS A 135      28.292  35.348   9.059  1.00 35.99     0.618 N 
ENDBRANCH  10  11
ENDBRANCH   9  10
ENDBRANCH   8   9
ENDBRANCH   7   8
END_RES LYS A 135
