REMARK VINA RESULT:    -4.489      5.616     10.569
REMARK INTER + INTRA:         -14.289
REMARK INTER:                  -8.148
REMARK INTRA:                  -6.141
REMARK UNBOUND:                -5.994
REMARK SMILES CC(=O)N[C@@H]1[C@@H](O)C[C@](O)(C(=O)O)O[C@H]1C(O)[C@H](O)CNC(=O)OCc1cn(CCN2CCCC2)nn1
REMARK SMILES IDX 21 1 22 2 23 3 20 5 18 6 16 7 15 8 9 9 8 10 14 11 6 12 5 13
REMARK SMILES IDX 10 14 11 16 12 17 13 18 7 20 4 22 2 23 1 25 3 26 17 27 19 29
REMARK SMILES IDX 24 31 25 32 26 33 27 34 37 35 28 36 36 37 29 38 30 39 31 40
REMARK SMILES IDX 32 41 35 42 33 43 34 44
REMARK H PARENT 21 4 10 15 13 19 7 21 4 24 17 28 19 30
REMARK Flexibility Score: inf
ROOT
ATOM      1  N   UNL     1      31.439  32.550  15.102  1.00  0.00    -0.319 N 
ATOM      2  C   UNL     1      31.955  33.760  15.600  1.00  0.00     0.407 C 
ATOM      3  O   UNL     1      31.951  33.994  16.815  1.00  0.00    -0.225 OA
ATOM      4  H   UNL     1      31.484  32.460  14.030  1.00  0.00     0.167 HD
ENDROOT
BRANCH   1   5
ATOM      5  C   UNL     1      30.883  31.476  15.862  1.00  0.00     0.154 C 
BRANCH   5   6
ATOM      6  C   UNL     1      29.384  31.477  15.779  1.00  0.00     0.165 C 
BRANCH   6   7
ATOM      7  C   UNL     1      28.751  31.685  17.151  1.00  0.00     0.176 C 
BRANCH   7   8
ATOM      8  C   UNL     1      28.926  30.361  17.914  1.00  0.00     0.178 C 
ATOM      9  C   UNL     1      26.916  29.292  18.480  1.00  0.00     0.269 C 
ATOM     10  C   UNL     1      26.828  30.306  19.604  1.00  0.00     0.112 C 
ATOM     11  O   UNL     1      27.935  29.497  17.603  1.00  0.00    -0.332 OA
ATOM     12  C   UNL     1      28.133  30.411  20.314  1.00  0.00     0.145 C 
ATOM     13  C   UNL     1      29.258  30.580  19.345  1.00  0.00     0.142 C 
BRANCH   9  14
ATOM     14  O   UNL     1      25.722  29.478  17.742  1.00  0.00    -0.357 OA
ATOM     15  H   UNL     1      25.447  30.440  17.836  1.00  0.00     0.214 HD
ENDBRANCH   9  14
BRANCH   9  16
ATOM     16  C   UNL     1      26.879  27.906  19.001  1.00  0.00     0.364 C 
ATOM     17  O   UNL     1      25.791  27.413  19.369  1.00  0.00    -0.246 OA
BRANCH  16  18
ATOM     18  O   UNL     1      28.031  27.146  19.087  1.00  0.00    -0.477 OA
ATOM     19  H   UNL     1      28.080  26.277  18.574  1.00  0.00     0.296 HD
ENDBRANCH  16  18
ENDBRANCH   9  16
BRANCH  12  20
ATOM     20  O   UNL     1      28.060  31.486  21.193  1.00  0.00    -0.391 OA
ATOM     21  H   UNL     1      27.158  31.904  21.151  1.00  0.00     0.211 HD
ENDBRANCH  12  20
BRANCH  13  22
ATOM     22  N   UNL     1      30.437  29.813  19.743  1.00  0.00    -0.348 N 
ATOM     23  C   UNL     1      31.356  30.276  20.693  1.00  0.00     0.217 C 
ATOM     24  H   UNL     1      30.569  28.893  19.283  1.00  0.00     0.163 HD
ATOM     25  C   UNL     1      32.527  29.429  21.037  1.00  0.00     0.114 C 
ATOM     26  O   UNL     1      31.190  31.407  21.254  1.00  0.00    -0.275 OA
ENDBRANCH  13  22
ENDBRANCH   7   8
BRANCH   7  27
ATOM     27  O   UNL     1      29.456  32.701  17.788  1.00  0.00    -0.388 OA
ATOM     28  H   UNL     1      29.171  33.599  17.550  1.00  0.00     0.211 HD
ENDBRANCH   7  27
ENDBRANCH   6   7
BRANCH   6  29
ATOM     29  O   UNL     1      28.840  30.389  15.134  1.00  0.00    -0.388 OA
ATOM     30  H   UNL     1      28.157  29.898  15.647  1.00  0.00     0.211 HD
ENDBRANCH   6  29
ENDBRANCH   5   6
ENDBRANCH   1   5
BRANCH   2  31
ATOM     31  O   UNL     1      32.489  34.747  14.766  1.00  0.00    -0.443 OA
BRANCH  31  32
ATOM     32  C   UNL     1      31.733  35.893  14.432  1.00  0.00     0.294 C 
BRANCH  32  33
ATOM     33  C   UNL     1      30.510  35.559  13.660  1.00  0.00     0.120 A 
ATOM     34  C   UNL     1      29.246  36.135  13.793  1.00  0.00     0.138 A 
ATOM     35  N   UNL     1      30.355  34.646  12.685  1.00  0.00    -0.132 NA
ATOM     36  N   UNL     1      28.386  35.575  12.924  1.00  0.00    -0.251 N 
ATOM     37  N   UNL     1      29.114  34.662  12.262  1.00  0.00    -0.067 NA
BRANCH  36  38
ATOM     38  C   UNL     1      26.981  35.857  12.716  1.00  0.00     0.161 C 
BRANCH  38  39
ATOM     39  C   UNL     1      26.124  35.420  13.856  1.00  0.00     0.108 C 
BRANCH  39  40
ATOM     40  N   UNL     1      26.314  34.049  14.258  1.00  0.00    -0.301 NA
ATOM     41  C   UNL     1      26.328  34.005  15.711  1.00  0.00     0.084 C 
ATOM     42  C   UNL     1      25.211  33.201  13.849  1.00  0.00     0.084 C 
ATOM     43  C   UNL     1      25.505  32.835  16.142  1.00  0.00     0.017 C 
ATOM     44  C   UNL     1      25.311  32.068  14.851  1.00  0.00     0.017 C 
ENDBRANCH  39  40
ENDBRANCH  38  39
ENDBRANCH  36  38
ENDBRANCH  32  33
ENDBRANCH  31  32
ENDBRANCH   2  31
TORSDOF 17
BEGIN_RES LYS A 131
REMARK  4 active torsions:
REMARK  status: ('A' for Active; 'I' for Inactive)
REMARK    1  A    between atoms: CA   and  CB  
REMARK    2  A    between atoms: CB   and  CG  
REMARK    3  A    between atoms: CG   and  CD  
REMARK    4  A    between atoms: CD   and  CE  
ROOT
ATOM      1  CA  LYS A 131      29.867  25.555  16.977  1.00 20.52     0.186 C 
ENDROOT
BRANCH   1   2
ATOM      2  CB  LYS A 131      28.345  25.722  17.026  1.00 20.94     0.034 C 
BRANCH   2   3
ATOM      3  CG  LYS A 131      27.601  24.401  16.907  1.00 22.96     0.005 C 
BRANCH   3   4
ATOM      4  CD  LYS A 131      26.141  24.541  17.235  1.00 24.33     0.041 C 
BRANCH   4   5
ATOM      5  CE  LYS A 131      25.747  23.486  18.264  1.00 26.91     0.338 C 
ATOM      6  NZ  LYS A 131      24.990  22.388  17.618  1.00 27.40     0.618 N 
ENDBRANCH   4   5
ENDBRANCH   3   4
ENDBRANCH   2   3
ENDBRANCH   1   2
END_RES LYS A 131
BEGIN_RES LYS A 135
REMARK  4 active torsions:
REMARK  status: ('A' for Active; 'I' for Inactive)
REMARK    5  A    between atoms: CA   and  CB  
REMARK    6  A    between atoms: CB   and  CG  
REMARK    7  A    between atoms: CG   and  CD  
REMARK    8  A    between atoms: CD   and  CE  
ROOT
ATOM      7  CA  LYS A 135      33.193  34.663   9.290  1.00 25.02     0.186 C 
ENDROOT
BRANCH   7   8
ATOM      8  CB  LYS A 135      32.060  35.360  10.034  1.00 26.63     0.034 C 
BRANCH   8   9
ATOM      9  CG  LYS A 135      30.834  35.587   9.188  1.00 29.45     0.005 C 
BRANCH   9  10
ATOM     10  CD  LYS A 135      30.185  34.262   8.818  1.00 32.00     0.041 C 
BRANCH  10  11
ATOM     11  CE  LYS A 135      28.752  34.478   8.370  1.00 34.25     0.338 C 
ATOM     12  NZ  LYS A 135      27.792  33.874   9.335  1.00 35.99     0.618 N 
ENDBRANCH  10  11
ENDBRANCH   9  10
ENDBRANCH   8   9
ENDBRANCH   7   8
END_RES LYS A 135
