REMARK VINA RESULT:    -4.541      5.637     10.650
REMARK INTER + INTRA:         -14.402
REMARK INTER:                  -6.984
REMARK INTRA:                  -7.418
REMARK UNBOUND:                -6.145
REMARK SMILES CC(=O)N[C@@H]1[C@@H](O)C[C@](O)(C(=O)O)O[C@H]1C(O)[C@H](O)CNC(=O)OCc1cn(C(C)(C)CO)nn1
REMARK SMILES IDX 21 1 22 2 23 3 20 5 18 6 16 7 15 8 9 9 8 10 14 11 6 12 5 13
REMARK SMILES IDX 10 14 11 16 12 17 13 18 7 20 4 22 2 23 1 25 3 26 17 27 19 29
REMARK SMILES IDX 24 31 25 32 26 33 27 34 35 35 28 36 34 37 29 38 30 39 31 40
REMARK SMILES IDX 32 41 33 42
REMARK H PARENT 21 4 10 15 13 19 7 21 4 24 17 28 19 30 33 43
REMARK Flexibility Score: inf
ROOT
ATOM      1  N   UNL     1      28.937  31.503  17.234  1.00  0.00    -0.319 N 
ATOM      2  C   UNL     1      28.157  30.741  16.306  1.00  0.00     0.407 C 
ATOM      3  O   UNL     1      28.709  30.043  15.390  1.00  0.00    -0.225 OA
ATOM      4  H   UNL     1      28.439  32.043  17.966  1.00  0.00     0.167 HD
ENDROOT
BRANCH   1   5
ATOM      5  C   UNL     1      30.381  31.483  17.137  1.00  0.00     0.154 C 
BRANCH   5   6
ATOM      6  C   UNL     1      30.917  32.514  16.222  1.00  0.00     0.165 C 
BRANCH   6   7
ATOM      7  C   UNL     1      30.075  33.697  15.926  1.00  0.00     0.176 C 
BRANCH   7   8
ATOM      8  C   UNL     1      30.868  34.978  16.011  1.00  0.00     0.178 C 
ATOM      9  C   UNL     1      31.747  35.214  13.828  1.00  0.00     0.269 C 
ATOM     10  C   UNL     1      33.157  34.943  14.386  1.00  0.00     0.112 C 
ATOM     11  O   UNL     1      30.874  35.614  14.787  1.00  0.00    -0.332 OA
ATOM     12  C   UNL     1      33.197  35.627  15.711  1.00  0.00     0.145 C 
ATOM     13  C   UNL     1      32.224  34.838  16.633  1.00  0.00     0.142 C 
BRANCH   9  14
ATOM     14  O   UNL     1      31.362  34.134  13.061  1.00  0.00    -0.357 OA
ATOM     15  H   UNL     1      31.971  33.373  13.221  1.00  0.00     0.214 HD
ENDBRANCH   9  14
BRANCH   9  16
ATOM     16  C   UNL     1      31.883  36.393  12.884  1.00  0.00     0.364 C 
ATOM     17  O   UNL     1      31.122  37.383  12.981  1.00  0.00    -0.246 OA
BRANCH  16  18
ATOM     18  O   UNL     1      32.867  36.339  11.921  1.00  0.00    -0.477 OA
ATOM     19  H   UNL     1      33.835  36.552  12.138  1.00  0.00     0.296 HD
ENDBRANCH  16  18
ENDBRANCH   9  16
BRANCH  12  20
ATOM     20  O   UNL     1      34.454  35.668  16.280  1.00  0.00    -0.391 OA
ATOM     21  H   UNL     1      34.736  34.726  16.426  1.00  0.00     0.211 HD
ENDBRANCH  12  20
BRANCH  13  22
ATOM     22  N   UNL     1      32.353  35.573  17.902  1.00  0.00    -0.348 N 
ATOM     23  C   UNL     1      32.150  34.986  19.155  1.00  0.00     0.217 C 
ATOM     24  H   UNL     1      32.609  36.580  17.834  1.00  0.00     0.163 HD
ATOM     25  C   UNL     1      32.270  35.710  20.447  1.00  0.00     0.114 C 
ATOM     26  O   UNL     1      31.845  33.763  19.205  1.00  0.00    -0.275 OA
ENDBRANCH  13  22
ENDBRANCH   7   8
BRANCH   7  27
ATOM     27  O   UNL     1      29.156  33.613  14.932  1.00  0.00    -0.388 OA
ATOM     28  H   UNL     1      29.533  33.544  14.017  1.00  0.00     0.211 HD
ENDBRANCH   7  27
ENDBRANCH   6   7
BRANCH   6  29
ATOM     29  O   UNL     1      31.274  31.908  14.995  1.00  0.00    -0.388 OA
ATOM     30  H   UNL     1      32.131  31.447  15.130  1.00  0.00     0.211 HD
ENDBRANCH   6  29
ENDBRANCH   5   6
ENDBRANCH   1   5
BRANCH   2  31
ATOM     31  O   UNL     1      26.791  30.778  16.422  1.00  0.00    -0.443 OA
BRANCH  31  32
ATOM     32  C   UNL     1      26.092  31.867  16.946  1.00  0.00     0.294 C 
BRANCH  32  33
ATOM     33  C   UNL     1      26.116  33.025  16.015  1.00  0.00     0.120 A 
ATOM     34  C   UNL     1      26.191  34.338  16.408  1.00  0.00     0.139 A 
ATOM     35  N   UNL     1      26.071  33.030  14.683  1.00  0.00    -0.132 NA
ATOM     36  N   UNL     1      26.191  35.107  15.314  1.00  0.00    -0.244 N 
ATOM     37  N   UNL     1      26.118  34.277  14.271  1.00  0.00    -0.066 NA
BRANCH  36  38
ATOM     38  C   UNL     1      26.258  36.545  15.300  1.00  0.00     0.082 C 
ATOM     39  C   UNL     1      25.651  37.123  16.561  1.00  0.00     0.039 C 
ATOM     40  C   UNL     1      25.510  37.055  14.075  1.00  0.00     0.039 C 
BRANCH  38  41
ATOM     41  C   UNL     1      27.692  36.986  15.151  1.00  0.00     0.186 C 
BRANCH  41  42
ATOM     42  O   UNL     1      28.261  36.385  14.024  1.00  0.00    -0.394 OA
ATOM     43  H   UNL     1      28.066  36.950  13.234  1.00  0.00     0.210 HD
ENDBRANCH  41  42
ENDBRANCH  38  41
ENDBRANCH  36  38
ENDBRANCH  32  33
ENDBRANCH  31  32
ENDBRANCH   2  31
TORSDOF 17
BEGIN_RES LYS A 131
REMARK  4 active torsions:
REMARK  status: ('A' for Active; 'I' for Inactive)
REMARK    1  A    between atoms: CA   and  CB  
REMARK    2  A    between atoms: CB   and  CG  
REMARK    3  A    between atoms: CG   and  CD  
REMARK    4  A    between atoms: CD   and  CE  
ROOT
ATOM      1  CA  LYS A 131      29.867  25.555  16.977  1.00 20.52     0.186 C 
ENDROOT
BRANCH   1   2
ATOM      2  CB  LYS A 131      28.345  25.722  17.026  1.00 20.94     0.034 C 
BRANCH   2   3
ATOM      3  CG  LYS A 131      27.599  24.478  16.568  1.00 22.96     0.005 C 
BRANCH   3   4
ATOM      4  CD  LYS A 131      26.938  23.761  17.712  1.00 24.33     0.041 C 
BRANCH   4   5
ATOM      5  CE  LYS A 131      25.426  23.946  17.623  1.00 26.91     0.338 C 
ATOM      6  NZ  LYS A 131      24.744  22.630  17.581  1.00 27.40     0.618 N 
ENDBRANCH   4   5
ENDBRANCH   3   4
ENDBRANCH   2   3
ENDBRANCH   1   2
END_RES LYS A 131
BEGIN_RES LYS A 135
REMARK  4 active torsions:
REMARK  status: ('A' for Active; 'I' for Inactive)
REMARK    5  A    between atoms: CA   and  CB  
REMARK    6  A    between atoms: CB   and  CG  
REMARK    7  A    between atoms: CG   and  CD  
REMARK    8  A    between atoms: CD   and  CE  
ROOT
ATOM      7  CA  LYS A 135      33.193  34.663   9.290  1.00 25.02     0.186 C 
ENDROOT
BRANCH   7   8
ATOM      8  CB  LYS A 135      32.060  35.360  10.034  1.00 26.63     0.034 C 
BRANCH   8   9
ATOM      9  CG  LYS A 135      30.698  34.796   9.722  1.00 29.45     0.005 C 
BRANCH   9  10
ATOM     10  CD  LYS A 135      30.567  34.499   8.236  1.00 32.00     0.041 C 
BRANCH  10  11
ATOM     11  CE  LYS A 135      29.198  34.910   7.730  1.00 34.25     0.338 C 
ATOM     12  NZ  LYS A 135      28.123  34.446   8.650  1.00 35.99     0.618 N 
ENDBRANCH  10  11
ENDBRANCH   9  10
ENDBRANCH   8   9
ENDBRANCH   7   8
END_RES LYS A 135
