REMARK VINA RESULT:    -3.962      6.358     11.913
REMARK INTER + INTRA:         -15.453
REMARK INTER:                  -9.241
REMARK INTRA:                  -6.212
REMARK UNBOUND:                -7.438
REMARK SMILES CC(=O)N[C@@H]1[C@@H](O)C[C@](O)(C(=O)O)O[C@H]1C(O)[C@H](O)CNC(=O)OCc1cn([C@@H](CCC(=O)O)C(=O)O)nn1
REMARK SMILES IDX 24 1 22 2 21 3 23 5 20 6 18 7 16 8 15 9 9 10 8 11 14 12 6 13
REMARK SMILES IDX 5 14 10 15 11 17 12 18 13 19 7 21 4 23 2 24 1 26 3 27 17 28
REMARK SMILES IDX 19 30 25 32 26 33 27 34 39 35 28 36 38 37 29 38 30 39 31 40
REMARK SMILES IDX 32 41 33 42 34 43 35 45 36 46 37 47
REMARK H PARENT 21 4 10 16 13 20 7 22 4 25 17 29 19 31 34 44 37 48
REMARK Flexibility Score: inf
ROOT
ATOM      1  O   UNL     1      28.505  30.228  16.140  1.00  0.00    -0.443 OA
ENDROOT
BRANCH   1   2
ATOM      2  C   UNL     1      27.506  29.500  16.799  1.00  0.00     0.407 C 
ATOM      3  N   UNL     1      27.787  28.595  17.833  1.00  0.00    -0.319 N 
ATOM      4  H   UNL     1      28.826  28.489  18.081  1.00  0.00     0.167 HD
ATOM      5  O   UNL     1      26.339  29.692  16.422  1.00  0.00    -0.225 OA
BRANCH   3   6
ATOM      6  C   UNL     1      26.844  27.811  18.579  1.00  0.00     0.154 C 
BRANCH   6   7
ATOM      7  C   UNL     1      27.323  27.535  19.949  1.00  0.00     0.165 C 
BRANCH   7   8
ATOM      8  C   UNL     1      28.816  27.750  20.120  1.00  0.00     0.176 C 
BRANCH   8   9
ATOM      9  C   UNL     1      29.078  28.951  21.033  1.00  0.00     0.178 C 
ATOM     10  C   UNL     1      30.457  30.436  19.861  1.00  0.00     0.269 C 
ATOM     11  C   UNL     1      31.564  29.493  20.238  1.00  0.00     0.112 C 
ATOM     12  O   UNL     1      29.231  30.119  20.361  1.00  0.00    -0.332 OA
ATOM     13  C   UNL     1      31.507  28.956  21.623  1.00  0.00     0.145 C 
ATOM     14  C   UNL     1      30.111  28.632  22.071  1.00  0.00     0.142 C 
BRANCH  10  15
ATOM     15  O   UNL     1      30.373  30.395  18.469  1.00  0.00    -0.357 OA
ATOM     16  H   UNL     1      29.507  30.715  18.143  1.00  0.00     0.214 HD
ENDBRANCH  10  15
BRANCH  10  17
ATOM     17  C   UNL     1      30.826  31.822  20.244  1.00  0.00     0.364 C 
ATOM     18  O   UNL     1      31.860  32.031  20.921  1.00  0.00    -0.246 OA
BRANCH  17  19
ATOM     19  O   UNL     1      30.054  32.920  19.876  1.00  0.00    -0.477 OA
ATOM     20  H   UNL     1      29.160  33.021  20.357  1.00  0.00     0.296 HD
ENDBRANCH  17  19
ENDBRANCH  10  17
BRANCH  13  21
ATOM     21  O   UNL     1      32.275  27.794  21.665  1.00  0.00    -0.391 OA
ATOM     22  H   UNL     1      31.946  27.122  21.012  1.00  0.00     0.211 HD
ENDBRANCH  13  21
BRANCH  14  23
ATOM     23  N   UNL     1      29.747  29.301  23.286  1.00  0.00    -0.348 N 
ATOM     24  C   UNL     1      28.961  28.623  24.251  1.00  0.00     0.217 C 
ATOM     25  H   UNL     1      30.063  30.299  23.463  1.00  0.00     0.163 HD
ATOM     26  C   UNL     1      28.583  29.309  25.504  1.00  0.00     0.114 C 
ATOM     27  O   UNL     1      28.561  27.438  24.085  1.00  0.00    -0.275 OA
ENDBRANCH  14  23
ENDBRANCH   8   9
BRANCH   8  28
ATOM     28  O   UNL     1      29.376  26.619  20.682  1.00  0.00    -0.388 OA
ATOM     29  H   UNL     1      30.248  26.448  20.245  1.00  0.00     0.211 HD
ENDBRANCH   8  28
ENDBRANCH   7   8
BRANCH   7  30
ATOM     30  O   UNL     1      26.891  26.345  20.439  1.00  0.00    -0.388 OA
ATOM     31  H   UNL     1      27.169  25.549  19.934  1.00  0.00     0.211 HD
ENDBRANCH   7  30
ENDBRANCH   6   7
ENDBRANCH   3   6
ENDBRANCH   1   2
BRANCH   1  32
ATOM     32  C   UNL     1      28.262  31.584  15.776  1.00  0.00     0.294 C 
BRANCH  32  33
ATOM     33  C   UNL     1      29.497  32.323  15.551  1.00  0.00     0.120 A 
ATOM     34  C   UNL     1      29.657  33.655  15.279  1.00  0.00     0.139 A 
ATOM     35  N   UNL     1      30.739  31.817  15.573  1.00  0.00    -0.132 NA
ATOM     36  N   UNL     1      30.960  33.938  15.142  1.00  0.00    -0.238 N 
ATOM     37  N   UNL     1      31.592  32.795  15.327  1.00  0.00    -0.066 NA
BRANCH  36  38
ATOM     38  C   UNL     1      31.643  35.187  14.851  1.00  0.00     0.219 C 
BRANCH  38  39
ATOM     39  C   UNL     1      32.787  35.380  15.777  1.00  0.00     0.051 C 
BRANCH  39  40
ATOM     40  C   UNL     1      32.579  36.338  16.889  1.00  0.00     0.125 C 
BRANCH  40  41
ATOM     41  C   UNL     1      32.031  35.728  18.099  1.00  0.00     0.303 C 
ATOM     42  O   UNL     1      32.085  34.464  18.294  1.00  0.00    -0.252 OA
BRANCH  41  43
ATOM     43  O   UNL     1      31.430  36.530  19.073  1.00  0.00    -0.481 OA
ATOM     44  H   UNL     1      31.520  37.531  18.968  1.00  0.00     0.296 HD
ENDBRANCH  41  43
ENDBRANCH  40  41
ENDBRANCH  39  40
ENDBRANCH  38  39
BRANCH  38  45
ATOM     45  C   UNL     1      31.878  35.409  13.435  1.00  0.00     0.328 C 
ATOM     46  O   UNL     1      32.341  36.429  12.928  1.00  0.00    -0.250 OA
BRANCH  45  47
ATOM     47  O   UNL     1      31.538  34.357  12.563  1.00  0.00    -0.480 OA
ATOM     48  H   UNL     1      30.565  34.146  12.421  1.00  0.00     0.296 HD
ENDBRANCH  45  47
ENDBRANCH  38  45
ENDBRANCH  36  38
ENDBRANCH  32  33
ENDBRANCH   1  32
TORSDOF 21
BEGIN_RES LYS A 131
REMARK  4 active torsions:
REMARK  status: ('A' for Active; 'I' for Inactive)
REMARK    1  A    between atoms: CA   and  CB  
REMARK    2  A    between atoms: CB   and  CG  
REMARK    3  A    between atoms: CG   and  CD  
REMARK    4  A    between atoms: CD   and  CE  
ROOT
ATOM      1  CA  LYS A 131      29.867  25.555  16.977  1.00 20.52     0.186 C 
ENDROOT
BRANCH   1   2
ATOM      2  CB  LYS A 131      28.345  25.722  17.026  1.00 20.94     0.034 C 
BRANCH   2   3
ATOM      3  CG  LYS A 131      27.599  24.431  16.727  1.00 22.96     0.005 C 
BRANCH   3   4
ATOM      4  CD  LYS A 131      26.725  24.003  17.873  1.00 24.33     0.041 C 
BRANCH   4   5
ATOM      5  CE  LYS A 131      25.265  24.021  17.434  1.00 26.91     0.338 C 
ATOM      6  NZ  LYS A 131      24.502  25.026  18.211  1.00 27.40     0.618 N 
ENDBRANCH   4   5
ENDBRANCH   3   4
ENDBRANCH   2   3
ENDBRANCH   1   2
END_RES LYS A 131
BEGIN_RES LYS A 135
REMARK  4 active torsions:
REMARK  status: ('A' for Active; 'I' for Inactive)
REMARK    5  A    between atoms: CA   and  CB  
REMARK    6  A    between atoms: CB   and  CG  
REMARK    7  A    between atoms: CG   and  CD  
REMARK    8  A    between atoms: CD   and  CE  
ROOT
ATOM      7  CA  LYS A 135      33.193  34.663   9.290  1.00 25.02     0.186 C 
ENDROOT
BRANCH   7   8
ATOM      8  CB  LYS A 135      32.060  35.360  10.034  1.00 26.63     0.034 C 
BRANCH   8   9
ATOM      9  CG  LYS A 135      30.819  35.549   9.201  1.00 29.45     0.005 C 
BRANCH   9  10
ATOM     10  CD  LYS A 135      30.149  34.212   8.925  1.00 32.00     0.041 C 
BRANCH  10  11
ATOM     11  CE  LYS A 135      28.734  34.420   8.418  1.00 34.25     0.338 C 
ATOM     12  NZ  LYS A 135      28.716  35.322   7.234  1.00 35.99     0.618 N 
ENDBRANCH  10  11
ENDBRANCH   9  10
ENDBRANCH   8   9
ENDBRANCH   7   8
END_RES LYS A 135
