REMARK VINA RESULT:    -6.053      0.000      0.000
REMARK INTER + INTRA:         -14.961
REMARK INTER:                  -9.005
REMARK INTRA:                  -5.956
REMARK UNBOUND:                -4.485
REMARK SMILES CC(=O)N[C@@H]1[C@@H](O)C[C@](O)(C(=O)O)O[C@H]1C(O)[C@H](O)CNC(=O)OCc1cn(-c2ccccc2)nn1
REMARK SMILES IDX 20 1 18 2 16 3 15 4 9 5 8 6 14 7 6 8 5 9 10 10 11 12 12 13
REMARK SMILES IDX 13 14 7 16 4 18 2 19 1 21 3 22 17 23 19 25 21 27 22 28 23 30
REMARK SMILES IDX 24 31 25 32 26 33 27 34 36 35 28 36 35 37 29 38 30 39 34 40
REMARK SMILES IDX 31 41 33 42 32 43
REMARK H PARENT 10 11 13 15 7 17 4 20 17 24 19 26 21 29
REMARK Flexibility Score: inf
ROOT
ATOM      1  C   UNL     1      23.629  36.791   8.559  1.00  0.00     0.154 C 
ENDROOT
BRANCH   1   2
ATOM      2  C   UNL     1      22.245  36.961   7.967  1.00  0.00     0.165 C 
BRANCH   2   3
ATOM      3  C   UNL     1      21.227  36.075   8.652  1.00  0.00     0.176 C 
BRANCH   3   4
ATOM      4  C   UNL     1      20.065  35.746   7.775  1.00  0.00     0.178 C 
ATOM      5  C   UNL     1      18.393  37.355   8.140  1.00  0.00     0.269 C 
ATOM      6  C   UNL     1      17.636  36.477   9.072  1.00  0.00     0.112 C 
ATOM      7  O   UNL     1      19.325  36.789   7.356  1.00  0.00    -0.332 OA
ATOM      8  C   UNL     1      18.323  35.191   9.427  1.00  0.00     0.145 C 
ATOM      9  C   UNL     1      19.186  34.662   8.327  1.00  0.00     0.142 C 
BRANCH   5  10
ATOM     10  O   UNL     1      19.026  38.332   8.938  1.00  0.00    -0.357 OA
ATOM     11  H   UNL     1      18.573  39.200   8.744  1.00  0.00     0.214 HD
ENDBRANCH   5  10
BRANCH   5  12
ATOM     12  C   UNL     1      17.446  38.108   7.274  1.00  0.00     0.364 C 
ATOM     13  O   UNL     1      16.351  38.545   7.692  1.00  0.00    -0.246 OA
BRANCH  12  14
ATOM     14  O   UNL     1      17.767  38.346   5.956  1.00  0.00    -0.477 OA
ATOM     15  H   UNL     1      18.264  37.695   5.361  1.00  0.00     0.296 HD
ENDBRANCH  12  14
ENDBRANCH   5  12
BRANCH   8  16
ATOM     16  O   UNL     1      19.085  35.356  10.596  1.00  0.00    -0.391 OA
ATOM     17  H   UNL     1      19.331  34.503  11.006  1.00  0.00     0.211 HD
ENDBRANCH   8  16
BRANCH   9  18
ATOM     18  N   UNL     1      18.301  34.230   7.243  1.00  0.00    -0.348 N 
ATOM     19  C   UNL     1      17.471  33.082   7.368  1.00  0.00     0.217 C 
ATOM     20  H   UNL     1      18.253  34.754   6.344  1.00  0.00     0.163 HD
ATOM     21  C   UNL     1      16.565  32.627   6.280  1.00  0.00     0.114 C 
ATOM     22  O   UNL     1      17.475  32.396   8.427  1.00  0.00    -0.275 OA
ENDBRANCH   9  18
ENDBRANCH   3   4
BRANCH   3  23
ATOM     23  O   UNL     1      21.932  34.915   9.011  1.00  0.00    -0.388 OA
ATOM     24  H   UNL     1      21.579  34.205   8.396  1.00  0.00     0.211 HD
ENDBRANCH   3  23
ENDBRANCH   2   3
BRANCH   2  25
ATOM     25  O   UNL     1      22.262  36.824   6.590  1.00  0.00    -0.388 OA
ATOM     26  H   UNL     1      22.706  37.567   6.133  1.00  0.00     0.211 HD
ENDBRANCH   2  25
ENDBRANCH   1   2
BRANCH   1  27
ATOM     27  N   UNL     1      23.674  36.972   9.976  1.00  0.00    -0.319 N 
ATOM     28  C   UNL     1      24.639  36.358  10.819  1.00  0.00     0.407 C 
ATOM     29  H   UNL     1      22.971  37.586  10.451  1.00  0.00     0.167 HD
ATOM     30  O   UNL     1      25.516  35.614  10.361  1.00  0.00    -0.225 OA
BRANCH  28  31
ATOM     31  O   UNL     1      24.636  36.567  12.194  1.00  0.00    -0.443 OA
BRANCH  31  32
ATOM     32  C   UNL     1      23.413  36.533  12.913  1.00  0.00     0.294 C 
BRANCH  32  33
ATOM     33  C   UNL     1      22.775  35.226  12.639  1.00  0.00     0.121 A 
ATOM     34  C   UNL     1      23.267  33.977  12.949  1.00  0.00     0.144 A 
ATOM     35  N   UNL     1      21.587  35.045  12.028  1.00  0.00    -0.131 NA
ATOM     36  N   UNL     1      22.353  33.096  12.512  1.00  0.00    -0.220 N 
ATOM     37  N   UNL     1      21.350  33.750  11.962  1.00  0.00    -0.062 NA
BRANCH  36  38
ATOM     38  C   UNL     1      22.465  31.683  12.632  1.00  0.00     0.066 A 
ATOM     39  C   UNL     1      21.351  30.894  12.406  1.00  0.00     0.028 A 
ATOM     40  C   UNL     1      23.671  31.097  12.970  1.00  0.00     0.028 A 
ATOM     41  C   UNL     1      21.495  29.524  12.531  1.00  0.00     0.002 A 
ATOM     42  C   UNL     1      23.796  29.736  13.090  1.00  0.00     0.002 A 
ATOM     43  C   UNL     1      22.690  28.945  12.866  1.00  0.00     0.000 A 
ENDBRANCH  36  38
ENDBRANCH  32  33
ENDBRANCH  31  32
ENDBRANCH  28  31
ENDBRANCH   1  27
TORSDOF 15
BEGIN_RES LYS A 131
REMARK  4 active torsions:
REMARK  status: ('A' for Active; 'I' for Inactive)
REMARK    1  A    between atoms: CA   and  CB  
REMARK    2  A    between atoms: CB   and  CG  
REMARK    3  A    between atoms: CG   and  CD  
REMARK    4  A    between atoms: CD   and  CE  
ROOT
ATOM      1  CA  LYS A 131      29.867  25.555  16.977  1.00 20.52     0.186 C 
ENDROOT
BRANCH   1   2
ATOM      2  CB  LYS A 131      28.345  25.722  17.026  1.00 20.94     0.034 C 
BRANCH   2   3
ATOM      3  CG  LYS A 131      27.601  24.403  16.886  1.00 22.96     0.005 C 
BRANCH   3   4
ATOM      4  CD  LYS A 131      26.634  24.176  18.015  1.00 24.33     0.041 C 
BRANCH   4   5
ATOM      5  CE  LYS A 131      26.079  25.516  18.487  1.00 26.91     0.338 C 
ATOM      6  NZ  LYS A 131      25.704  25.446  19.919  1.00 27.40     0.618 N 
ENDBRANCH   4   5
ENDBRANCH   3   4
ENDBRANCH   2   3
ENDBRANCH   1   2
END_RES LYS A 131
BEGIN_RES LYS A 135
REMARK  4 active torsions:
REMARK  status: ('A' for Active; 'I' for Inactive)
REMARK    5  A    between atoms: CA   and  CB  
REMARK    6  A    between atoms: CB   and  CG  
REMARK    7  A    between atoms: CG   and  CD  
REMARK    8  A    between atoms: CD   and  CE  
ROOT
ATOM      7  CA  LYS A 135      33.193  34.663   9.290  1.00 25.02     0.186 C 
ENDROOT
BRANCH   7   8
ATOM      8  CB  LYS A 135      32.060  35.360  10.034  1.00 26.63     0.034 C 
BRANCH   8   9
ATOM      9  CG  LYS A 135      30.871  35.674   9.163  1.00 29.45     0.005 C 
BRANCH   9  10
ATOM     10  CD  LYS A 135      30.371  34.419   8.464  1.00 32.00     0.041 C 
BRANCH  10  11
ATOM     11  CE  LYS A 135      28.855  34.403   8.418  1.00 34.25     0.338 C 
ATOM     12  NZ  LYS A 135      28.290  33.703   9.605  1.00 35.99     0.618 N 
ENDBRANCH  10  11
ENDBRANCH   9  10
ENDBRANCH   8   9
ENDBRANCH   7   8
END_RES LYS A 135
