REMARK VINA RESULT:    -3.995      1.891      3.933
REMARK INTER + INTRA:         -15.007
REMARK INTER:                  -7.971
REMARK INTRA:                  -7.036
REMARK UNBOUND:                -7.158
REMARK SMILES CCN(CC)CCn1cc(COC(=O)NC[C@@H](O)C(O)[C@@H]2O[C@@](O)(C(=O)O)C[C@H](O)[C@H]2NC(C)=O)nn1
REMARK SMILES IDX 15 1 13 2 14 3 16 5 17 6 19 7 21 8 23 9 28 10 22 11 29 12
REMARK SMILES IDX 31 13 24 14 25 16 26 17 27 18 30 20 32 22 33 23 34 25 35 26
REMARK SMILES IDX 20 27 18 29 12 31 11 32 10 33 9 34 36 35 8 36 37 37 7 38
REMARK SMILES IDX 6 39 3 40 2 41 1 42 4 43 5 44
REMARK H PARENT 15 4 24 15 27 19 30 21 32 24 20 28 18 30
REMARK Flexibility Score: inf
ROOT
ATOM      1  N   UNL     1      27.467  29.158  19.031  1.00  0.00    -0.319 N 
ATOM      2  C   UNL     1      27.075  28.633  17.762  1.00  0.00     0.407 C 
ATOM      3  O   UNL     1      26.167  27.787  17.691  1.00  0.00    -0.225 OA
ATOM      4  H   UNL     1      28.230  29.857  19.015  1.00  0.00     0.167 HD
ENDROOT
BRANCH   1   5
ATOM      5  C   UNL     1      26.873  28.768  20.272  1.00  0.00     0.154 C 
BRANCH   5   6
ATOM      6  C   UNL     1      27.655  27.728  21.024  1.00  0.00     0.165 C 
BRANCH   6   7
ATOM      7  C   UNL     1      29.139  27.927  20.808  1.00  0.00     0.176 C 
BRANCH   7   8
ATOM      8  C   UNL     1      29.755  28.733  21.915  1.00  0.00     0.178 C 
ATOM      9  C   UNL     1      30.952  30.220  20.541  1.00  0.00     0.269 C 
ATOM     10  C   UNL     1      32.208  29.398  20.799  1.00  0.00     0.112 C 
ATOM     11  O   UNL     1      29.975  30.011  21.469  1.00  0.00    -0.332 OA
ATOM     12  C   UNL     1      32.166  29.003  22.279  1.00  0.00     0.145 C 
ATOM     13  C   UNL     1      30.992  28.110  22.461  1.00  0.00     0.142 C 
BRANCH   9  14
ATOM     14  O   UNL     1      30.577  29.996  19.218  1.00  0.00    -0.357 OA
ATOM     15  H   UNL     1      30.984  30.677  18.612  1.00  0.00     0.214 HD
ENDBRANCH   9  14
BRANCH   9  16
ATOM     16  C   UNL     1      31.341  31.662  20.651  1.00  0.00     0.364 C 
ATOM     17  O   UNL     1      32.425  32.026  21.154  1.00  0.00    -0.246 OA
BRANCH  16  18
ATOM     18  O   UNL     1      30.471  32.622  20.179  1.00  0.00    -0.477 OA
ATOM     19  H   UNL     1      29.682  32.417  19.573  1.00  0.00     0.296 HD
ENDBRANCH  16  18
ENDBRANCH   9  16
BRANCH  12  20
ATOM     20  O   UNL     1      33.381  28.390  22.584  1.00  0.00    -0.391 OA
ATOM     21  H   UNL     1      33.963  29.115  22.977  1.00  0.00     0.211 HD
ENDBRANCH  12  20
BRANCH  13  22
ATOM     22  N   UNL     1      30.836  27.645  23.827  1.00  0.00    -0.348 N 
ATOM     23  C   UNL     1      30.317  26.361  24.159  1.00  0.00     0.217 C 
ATOM     24  H   UNL     1      31.108  28.253  24.650  1.00  0.00     0.163 HD
ATOM     25  C   UNL     1      30.177  25.933  25.587  1.00  0.00     0.114 C 
ATOM     26  O   UNL     1      29.970  25.574  23.258  1.00  0.00    -0.275 OA
ENDBRANCH  13  22
ENDBRANCH   7   8
BRANCH   7  27
ATOM     27  O   UNL     1      29.666  26.624  20.752  1.00  0.00    -0.388 OA
ATOM     28  H   UNL     1      30.454  26.684  20.149  1.00  0.00     0.211 HD
ENDBRANCH   7  27
ENDBRANCH   6   7
BRANCH   6  29
ATOM     29  O   UNL     1      27.194  26.475  20.735  1.00  0.00    -0.388 OA
ATOM     30  H   UNL     1      26.240  26.400  20.990  1.00  0.00     0.211 HD
ENDBRANCH   6  29
ENDBRANCH   5   6
ENDBRANCH   1   5
BRANCH   2  31
ATOM     31  O   UNL     1      27.669  29.033  16.577  1.00  0.00    -0.443 OA
BRANCH  31  32
ATOM     32  C   UNL     1      27.456  30.323  16.021  1.00  0.00     0.294 C 
BRANCH  32  33
ATOM     33  C   UNL     1      28.625  31.170  16.370  1.00  0.00     0.120 A 
ATOM     34  C   UNL     1      29.595  31.564  15.449  1.00  0.00     0.138 A 
ATOM     35  N   UNL     1      29.000  31.712  17.535  1.00  0.00    -0.132 NA
ATOM     36  N   UNL     1      30.490  32.310  16.090  1.00  0.00    -0.251 N 
ATOM     37  N   UNL     1      30.120  32.392  17.350  1.00  0.00    -0.067 NA
BRANCH  36  38
ATOM     38  C   UNL     1      31.659  32.919  15.516  1.00  0.00     0.161 C 
BRANCH  38  39
ATOM     39  C   UNL     1      31.597  34.416  15.760  1.00  0.00     0.108 C 
BRANCH  39  40
ATOM     40  N   UNL     1      30.432  35.036  15.217  1.00  0.00    -0.302 NA
BRANCH  40  41
ATOM     41  C   UNL     1      30.491  35.314  13.821  1.00  0.00     0.081 C 
ATOM     42  C   UNL     1      29.314  34.575  13.167  1.00  0.00     0.021 C 
ENDBRANCH  40  41
BRANCH  40  43
ATOM     43  C   UNL     1      29.882  36.052  16.049  1.00  0.00     0.081 C 
ATOM     44  C   UNL     1      28.577  35.685  16.685  1.00  0.00     0.021 C 
ENDBRANCH  40  43
ENDBRANCH  39  40
ENDBRANCH  38  39
ENDBRANCH  36  38
ENDBRANCH  32  33
ENDBRANCH  31  32
ENDBRANCH   2  31
TORSDOF 19
BEGIN_RES LYS A 131
REMARK  4 active torsions:
REMARK  status: ('A' for Active; 'I' for Inactive)
REMARK    1  A    between atoms: CA   and  CB  
REMARK    2  A    between atoms: CB   and  CG  
REMARK    3  A    between atoms: CG   and  CD  
REMARK    4  A    between atoms: CD   and  CE  
ROOT
ATOM      1  CA  LYS A 131      29.867  25.555  16.977  1.00 20.52     0.186 C 
ENDROOT
BRANCH   1   2
ATOM      2  CB  LYS A 131      28.345  25.722  17.026  1.00 20.94     0.034 C 
BRANCH   2   3
ATOM      3  CG  LYS A 131      27.601  24.401  16.900  1.00 22.96     0.005 C 
BRANCH   3   4
ATOM      4  CD  LYS A 131      26.548  24.241  17.962  1.00 24.33     0.041 C 
BRANCH   4   5
ATOM      5  CE  LYS A 131      25.597  23.115  17.569  1.00 26.91     0.338 C 
ATOM      6  NZ  LYS A 131      24.352  23.667  16.985  1.00 27.40     0.618 N 
ENDBRANCH   4   5
ENDBRANCH   3   4
ENDBRANCH   2   3
ENDBRANCH   1   2
END_RES LYS A 131
BEGIN_RES LYS A 135
REMARK  4 active torsions:
REMARK  status: ('A' for Active; 'I' for Inactive)
REMARK    5  A    between atoms: CA   and  CB  
REMARK    6  A    between atoms: CB   and  CG  
REMARK    7  A    between atoms: CG   and  CD  
REMARK    8  A    between atoms: CD   and  CE  
ROOT
ATOM      7  CA  LYS A 135      33.193  34.663   9.290  1.00 25.02     0.186 C 
ENDROOT
BRANCH   7   8
ATOM      8  CB  LYS A 135      32.060  35.360  10.034  1.00 26.63     0.034 C 
BRANCH   8   9
ATOM      9  CG  LYS A 135      30.703  34.763   9.761  1.00 29.45     0.005 C 
BRANCH   9  10
ATOM     10  CD  LYS A 135      30.465  34.634   8.265  1.00 32.00     0.041 C 
BRANCH  10  11
ATOM     11  CE  LYS A 135      29.003  34.870   7.936  1.00 34.25     0.338 C 
ATOM     12  NZ  LYS A 135      28.852  35.545   6.617  1.00 35.99     0.618 N 
ENDBRANCH  10  11
ENDBRANCH   9  10
ENDBRANCH   8   9
ENDBRANCH   7   8
END_RES LYS A 135
