REMARK VINA RESULT:    -4.624      1.593      2.077
REMARK INTER + INTRA:         -14.492
REMARK INTER:                  -9.381
REMARK INTRA:                  -5.111
REMARK UNBOUND:                -6.490
REMARK SMILES CC(=O)N[C@@H]1[C@@H](O)C[C@](O)(C(=O)O)O[C@H]1C(O)[C@H](O)CNC(=O)OCc1cn(-c2ccc3[nH]ncc3c2)nn1
REMARK SMILES IDX 20 1 18 2 16 3 15 4 9 5 8 6 14 7 6 8 5 9 10 10 11 12 12 13
REMARK SMILES IDX 13 14 7 16 4 18 2 19 1 21 3 22 17 23 19 25 21 27 22 28 23 30
REMARK SMILES IDX 24 31 25 32 26 33 27 34 39 35 28 36 38 37 29 38 30 39 37 40
REMARK SMILES IDX 31 41 36 42 32 43 35 44 33 45 34 46
REMARK H PARENT 10 11 13 15 7 17 4 20 17 24 19 26 21 29 33 47
REMARK Flexibility Score: inf
ROOT
ATOM      1  C   UNL     1      28.094  31.808  15.657  1.00  0.00     0.154 C 
ENDROOT
BRANCH   1   2
ATOM      2  C   UNL     1      29.489  32.104  15.997  1.00  0.00     0.165 C 
BRANCH   2   3
ATOM      3  C   UNL     1      30.208  32.793  14.816  1.00  0.00     0.176 C 
BRANCH   3   4
ATOM      4  C   UNL     1      30.387  34.236  14.997  1.00  0.00     0.178 C 
ATOM      5  C   UNL     1      29.838  35.240  12.957  1.00  0.00     0.269 C 
ATOM      6  C   UNL     1      31.242  34.917  12.530  1.00  0.00     0.112 C 
ATOM      7  O   UNL     1      29.591  35.088  14.290  1.00  0.00    -0.332 OA
ATOM      8  C   UNL     1      32.264  35.160  13.584  1.00  0.00     0.145 C 
ATOM      9  C   UNL     1      31.865  34.642  14.929  1.00  0.00     0.142 C 
BRANCH   5  10
ATOM     10  O   UNL     1      28.944  34.467  12.219  1.00  0.00    -0.357 OA
ATOM     11  H   UNL     1      29.403  33.779  11.677  1.00  0.00     0.214 HD
ENDBRANCH   5  10
BRANCH   5  12
ATOM     12  C   UNL     1      29.600  36.662  12.615  1.00  0.00     0.364 C 
ATOM     13  O   UNL     1      28.887  36.957  11.643  1.00  0.00    -0.246 OA
BRANCH  12  14
ATOM     14  O   UNL     1      30.173  37.656  13.380  1.00  0.00    -0.477 OA
ATOM     15  H   UNL     1      31.180  37.696  13.591  1.00  0.00     0.296 HD
ENDBRANCH  12  14
ENDBRANCH   5  12
BRANCH   8  16
ATOM     16  O   UNL     1      33.474  34.585  13.153  1.00  0.00    -0.391 OA
ATOM     17  H   UNL     1      33.234  34.013  12.385  1.00  0.00     0.211 HD
ENDBRANCH   8  16
BRANCH   9  18
ATOM     18  N   UNL     1      32.232  35.522  16.007  1.00  0.00    -0.348 N 
ATOM     19  C   UNL     1      32.256  35.098  17.363  1.00  0.00     0.217 C 
ATOM     20  H   UNL     1      32.497  36.532  15.799  1.00  0.00     0.163 HD
ATOM     21  C   UNL     1      32.639  36.039  18.432  1.00  0.00     0.114 C 
ATOM     22  O   UNL     1      31.946  33.908  17.626  1.00  0.00    -0.275 OA
ENDBRANCH   9  18
ENDBRANCH   3   4
BRANCH   3  23
ATOM     23  O   UNL     1      31.522  32.215  14.941  1.00  0.00    -0.388 OA
ATOM     24  H   UNL     1      32.005  32.286  14.086  1.00  0.00     0.211 HD
ENDBRANCH   3  23
ENDBRANCH   2   3
BRANCH   2  25
ATOM     25  O   UNL     1      30.137  30.812  16.076  1.00  0.00    -0.388 OA
ATOM     26  H   UNL     1      29.463  30.104  15.880  1.00  0.00     0.211 HD
ENDBRANCH   2  25
ENDBRANCH   1   2
BRANCH   1  27
ATOM     27  N   UNL     1      27.293  32.912  15.206  1.00  0.00    -0.319 N 
ATOM     28  C   UNL     1      26.576  33.741  16.108  1.00  0.00     0.407 C 
ATOM     29  H   UNL     1      27.260  33.161  14.205  1.00  0.00     0.167 HD
ATOM     30  O   UNL     1      26.655  33.488  17.338  1.00  0.00    -0.225 OA
BRANCH  28  31
ATOM     31  O   UNL     1      25.799  34.805  15.714  1.00  0.00    -0.443 OA
BRANCH  31  32
ATOM     32  C   UNL     1      26.233  35.848  14.862  1.00  0.00     0.294 C 
BRANCH  32  33
ATOM     33  C   UNL     1      25.806  35.501  13.464  1.00  0.00     0.121 A 
ATOM     34  C   UNL     1      24.893  36.151  12.663  1.00  0.00     0.144 A 
ATOM     35  N   UNL     1      26.251  34.456  12.712  1.00  0.00    -0.131 NA
ATOM     36  N   UNL     1      24.838  35.468  11.483  1.00  0.00    -0.220 N 
ATOM     37  N   UNL     1      25.672  34.446  11.542  1.00  0.00    -0.062 NA
BRANCH  36  38
ATOM     38  C   UNL     1      24.010  35.822  10.388  1.00  0.00     0.067 A 
ATOM     39  C   UNL     1      24.516  36.629   9.387  1.00  0.00     0.030 A 
ATOM     40  C   UNL     1      22.703  35.400  10.257  1.00  0.00     0.040 A 
ATOM     41  C   UNL     1      23.758  37.006   8.298  1.00  0.00     0.030 A 
ATOM     42  C   UNL     1      21.935  35.760   9.188  1.00  0.00     0.022 A 
ATOM     43  C   UNL     1      22.448  36.574   8.179  1.00  0.00     0.065 A 
ATOM     44  C   UNL     1      20.640  35.493   8.811  1.00  0.00     0.143 A 
ATOM     45  N   UNL     1      21.488  36.768   7.262  1.00  0.00    -0.278 N 
ATOM     46  N   UNL     1      20.401  36.127   7.627  1.00  0.00    -0.183 NA
ATOM     47  H   UNL     1      21.597  37.336   6.401  1.00  0.00     0.190 HD
ENDBRANCH  36  38
ENDBRANCH  32  33
ENDBRANCH  31  32
ENDBRANCH  28  31
ENDBRANCH   1  27
TORSDOF 15
BEGIN_RES LYS A 131
REMARK  4 active torsions:
REMARK  status: ('A' for Active; 'I' for Inactive)
REMARK    1  A    between atoms: CA   and  CB  
REMARK    2  A    between atoms: CB   and  CG  
REMARK    3  A    between atoms: CG   and  CD  
REMARK    4  A    between atoms: CD   and  CE  
ROOT
ATOM      1  CA  LYS A 131      29.867  25.555  16.977  1.00 20.52     0.186 C 
ENDROOT
BRANCH   1   2
ATOM      2  CB  LYS A 131      28.345  25.722  17.026  1.00 20.94     0.034 C 
BRANCH   2   3
ATOM      3  CG  LYS A 131      27.601  24.401  16.899  1.00 22.96     0.005 C 
BRANCH   3   4
ATOM      4  CD  LYS A 131      26.143  24.537  17.240  1.00 24.33     0.041 C 
BRANCH   4   5
ATOM      5  CE  LYS A 131      25.970  24.507  18.755  1.00 26.91     0.338 C 
ATOM      6  NZ  LYS A 131      24.534  24.571  19.114  1.00 27.40     0.618 N 
ENDBRANCH   4   5
ENDBRANCH   3   4
ENDBRANCH   2   3
ENDBRANCH   1   2
END_RES LYS A 131
BEGIN_RES LYS A 135
REMARK  4 active torsions:
REMARK  status: ('A' for Active; 'I' for Inactive)
REMARK    5  A    between atoms: CA   and  CB  
REMARK    6  A    between atoms: CB   and  CG  
REMARK    7  A    between atoms: CG   and  CD  
REMARK    8  A    between atoms: CD   and  CE  
ROOT
ATOM      7  CA  LYS A 135      33.193  34.663   9.290  1.00 25.02     0.186 C 
ENDROOT
BRANCH   7   8
ATOM      8  CB  LYS A 135      32.060  35.360  10.034  1.00 26.63     0.034 C 
BRANCH   8   9
ATOM      9  CG  LYS A 135      30.852  35.631   9.175  1.00 29.45     0.005 C 
BRANCH   9  10
ATOM     10  CD  LYS A 135      30.121  34.337   8.853  1.00 32.00     0.041 C 
BRANCH  10  11
ATOM     11  CE  LYS A 135      28.878  34.618   8.030  1.00 34.25     0.338 C 
ATOM     12  NZ  LYS A 135      27.764  35.105   8.890  1.00 35.99     0.618 N 
ENDBRANCH  10  11
ENDBRANCH   9  10
ENDBRANCH   8   9
ENDBRANCH   7   8
END_RES LYS A 135
