REMARK VINA RESULT:    -5.070      1.367      2.063
REMARK INTER + INTRA:         -15.330
REMARK INTER:                  -9.581
REMARK INTRA:                  -5.749
REMARK UNBOUND:                -6.554
REMARK SMILES CC(=O)N[C@@H]1[C@@H](O)C[C@](O)(C(=O)O)O[C@H]1C(O)[C@H](O)CNC(=O)OCc1cn(C23CC4CC(CC(C4)C2)C3)nn1
REMARK SMILES IDX 20 1 18 2 16 3 15 4 9 5 8 6 14 7 6 8 5 9 10 10 11 12 12 13
REMARK SMILES IDX 13 14 7 16 4 18 2 19 1 21 3 22 17 23 19 25 21 27 22 28 23 30
REMARK SMILES IDX 24 31 25 32 26 33 27 34 40 35 28 36 39 37 29 38 38 39 37 40
REMARK SMILES IDX 30 41 33 42 35 43 31 44 32 45 34 46 36 47
REMARK H PARENT 10 11 13 15 7 17 4 20 17 24 19 26 21 29
REMARK Flexibility Score: inf
ROOT
ATOM      1  C   UNL     1      26.847  27.347  19.476  1.00  0.00     0.154 C 
ENDROOT
BRANCH   1   2
ATOM      2  C   UNL     1      27.539  27.651  20.779  1.00  0.00     0.165 C 
BRANCH   2   3
ATOM      3  C   UNL     1      29.030  27.862  20.613  1.00  0.00     0.176 C 
BRANCH   3   4
ATOM      4  C   UNL     1      29.565  28.753  21.740  1.00  0.00     0.178 C 
ATOM      5  C   UNL     1      31.045  30.405  20.977  1.00  0.00     0.269 C 
ATOM      6  C   UNL     1      32.081  29.311  20.909  1.00  0.00     0.112 C 
ATOM      7  O   UNL     1      29.799  30.031  21.343  1.00  0.00    -0.332 OA
ATOM      8  C   UNL     1      32.044  28.509  22.162  1.00  0.00     0.145 C 
ATOM      9  C   UNL     1      30.641  28.102  22.527  1.00  0.00     0.142 C 
BRANCH   5  10
ATOM     10  O   UNL     1      30.960  30.905  19.657  1.00  0.00    -0.357 OA
ATOM     11  H   UNL     1      30.212  31.559  19.649  1.00  0.00     0.214 HD
ENDBRANCH   5  10
BRANCH   5  12
ATOM     12  C   UNL     1      31.616  31.494  21.809  1.00  0.00     0.364 C 
ATOM     13  O   UNL     1      32.676  32.099  21.490  1.00  0.00    -0.246 OA
BRANCH  12  14
ATOM     14  O   UNL     1      30.983  31.872  22.972  1.00  0.00    -0.477 OA
ATOM     15  H   UNL     1      31.470  31.951  23.866  1.00  0.00     0.296 HD
ENDBRANCH  12  14
ENDBRANCH   5  12
BRANCH   8  16
ATOM     16  O   UNL     1      32.886  27.389  21.974  1.00  0.00    -0.391 OA
ATOM     17  H   UNL     1      32.425  26.573  22.265  1.00  0.00     0.211 HD
ENDBRANCH   8  16
BRANCH   9  18
ATOM     18  N   UNL     1      30.408  28.369  23.940  1.00  0.00    -0.348 N 
ATOM     19  C   UNL     1      29.538  27.573  24.730  1.00  0.00     0.217 C 
ATOM     20  H   UNL     1      30.901  29.185  24.406  1.00  0.00     0.163 HD
ATOM     21  C   UNL     1      29.361  27.913  26.149  1.00  0.00     0.114 C 
ATOM     22  O   UNL     1      28.948  26.597  24.175  1.00  0.00    -0.275 OA
ENDBRANCH   9  18
ENDBRANCH   3   4
BRANCH   3  23
ATOM     23  O   UNL     1      29.732  26.703  20.483  1.00  0.00    -0.388 OA
ATOM     24  H   UNL     1      30.211  26.385  21.263  1.00  0.00     0.211 HD
ENDBRANCH   3  23
ENDBRANCH   2   3
BRANCH   2  25
ATOM     25  O   UNL     1      27.255  26.612  21.661  1.00  0.00    -0.388 OA
ATOM     26  H   UNL     1      26.542  26.927  22.303  1.00  0.00     0.211 HD
ENDBRANCH   2  25
ENDBRANCH   1   2
BRANCH   1  27
ATOM     27  N   UNL     1      27.661  27.919  18.418  1.00  0.00    -0.319 N 
ATOM     28  C   UNL     1      27.077  28.533  17.257  1.00  0.00     0.407 C 
ATOM     29  H   UNL     1      28.708  27.918  18.436  1.00  0.00     0.167 HD
ATOM     30  O   UNL     1      25.824  28.560  17.187  1.00  0.00    -0.225 OA
BRANCH  28  31
ATOM     31  O   UNL     1      27.834  29.077  16.249  1.00  0.00    -0.443 OA
BRANCH  31  32
ATOM     32  C   UNL     1      27.554  30.387  15.808  1.00  0.00     0.294 C 
BRANCH  32  33
ATOM     33  C   UNL     1      28.784  31.208  16.044  1.00  0.00     0.120 A 
ATOM     34  C   UNL     1      29.076  32.379  15.371  1.00  0.00     0.138 A 
ATOM     35  N   UNL     1      29.800  31.017  16.882  1.00  0.00    -0.132 NA
ATOM     36  N   UNL     1      30.235  32.836  15.823  1.00  0.00    -0.246 N 
ATOM     37  N   UNL     1      30.666  31.998  16.743  1.00  0.00    -0.066 NA
BRANCH  36  38
ATOM     38  C   UNL     1      30.884  34.063  15.354  1.00  0.00     0.065 C 
ATOM     39  C   UNL     1      32.365  33.736  15.218  1.00  0.00     0.034 C 
ATOM     40  C   UNL     1      30.683  35.181  16.329  1.00  0.00     0.034 C 
ATOM     41  C   UNL     1      30.296  34.459  14.022  1.00  0.00     0.034 C 
ATOM     42  C   UNL     1      33.099  34.961  14.707  1.00  0.00    -0.008 C 
ATOM     43  C   UNL     1      31.464  36.380  15.842  1.00  0.00    -0.008 C 
ATOM     44  C   UNL     1      31.038  35.673  13.505  1.00  0.00    -0.008 C 
ATOM     45  C   UNL     1      32.515  35.343  13.378  1.00  0.00     0.007 C 
ATOM     46  C   UNL     1      32.924  36.057  15.728  1.00  0.00     0.007 C 
ATOM     47  C   UNL     1      30.878  36.788  14.510  1.00  0.00     0.007 C 
ENDBRANCH  36  38
ENDBRANCH  32  33
ENDBRANCH  31  32
ENDBRANCH  28  31
ENDBRANCH   1  27
TORSDOF 15
BEGIN_RES LYS A 131
REMARK  4 active torsions:
REMARK  status: ('A' for Active; 'I' for Inactive)
REMARK    1  A    between atoms: CA   and  CB  
REMARK    2  A    between atoms: CB   and  CG  
REMARK    3  A    between atoms: CG   and  CD  
REMARK    4  A    between atoms: CD   and  CE  
ROOT
ATOM      1  CA  LYS A 131      29.867  25.555  16.977  1.00 20.52     0.186 C 
ENDROOT
BRANCH   1   2
ATOM      2  CB  LYS A 131      28.345  25.722  17.026  1.00 20.94     0.034 C 
BRANCH   2   3
ATOM      3  CG  LYS A 131      27.601  24.402  16.890  1.00 22.96     0.005 C 
BRANCH   3   4
ATOM      4  CD  LYS A 131      26.147  24.532  17.250  1.00 24.33     0.041 C 
BRANCH   4   5
ATOM      5  CE  LYS A 131      25.650  23.216  17.839  1.00 26.91     0.338 C 
ATOM      6  NZ  LYS A 131      24.359  22.826  17.222  1.00 27.40     0.618 N 
ENDBRANCH   4   5
ENDBRANCH   3   4
ENDBRANCH   2   3
ENDBRANCH   1   2
END_RES LYS A 131
BEGIN_RES LYS A 135
REMARK  4 active torsions:
REMARK  status: ('A' for Active; 'I' for Inactive)
REMARK    5  A    between atoms: CA   and  CB  
REMARK    6  A    between atoms: CB   and  CG  
REMARK    7  A    between atoms: CG   and  CD  
REMARK    8  A    between atoms: CD   and  CE  
ROOT
ATOM      7  CA  LYS A 135      33.193  34.663   9.290  1.00 25.02     0.186 C 
ENDROOT
BRANCH   7   8
ATOM      8  CB  LYS A 135      32.060  35.360  10.034  1.00 26.63     0.034 C 
BRANCH   8   9
ATOM      9  CG  LYS A 135      30.731  34.664   9.897  1.00 29.45     0.005 C 
BRANCH   9  10
ATOM     10  CD  LYS A 135      30.290  34.631   8.441  1.00 32.00     0.041 C 
BRANCH  10  11
ATOM     11  CE  LYS A 135      28.783  34.492   8.345  1.00 34.25     0.338 C 
ATOM     12  NZ  LYS A 135      28.226  33.826   9.554  1.00 35.99     0.618 N 
ENDBRANCH  10  11
ENDBRANCH   9  10
ENDBRANCH   8   9
ENDBRANCH   7   8
END_RES LYS A 135
