REMARK VINA RESULT:    -5.888      7.108     11.530
REMARK INTER + INTRA:         -14.724
REMARK INTER:                  -8.136
REMARK INTRA:                  -6.588
REMARK UNBOUND:                -4.533
REMARK SMILES CC(=O)N[C@@H]1[C@@H](O)C[C@](O)(C(=O)O)O[C@H]1C(O)[C@H](O)CNC(=O)OCc1cn(-c2cnc3ccccc3c2)nn1
REMARK SMILES IDX 20 1 18 2 16 3 15 4 9 5 8 6 14 7 6 8 5 9 10 10 11 12 12 13
REMARK SMILES IDX 13 14 7 16 4 18 2 19 1 21 3 22 17 23 19 25 21 27 22 28 23 30
REMARK SMILES IDX 24 31 25 32 26 33 27 34 40 35 28 36 39 37 29 38 30 39 38 40
REMARK SMILES IDX 31 41 37 42 32 43 36 44 33 45 35 46 34 47
REMARK H PARENT 10 11 13 15 7 17 4 20 17 24 19 26 21 29
REMARK Flexibility Score: inf
ROOT
ATOM      1  C   UNL     1      25.155  39.283  10.939  1.00  0.00     0.154 C 
ENDROOT
BRANCH   1   2
ATOM      2  C   UNL     1      26.622  38.966  11.021  1.00  0.00     0.165 C 
BRANCH   2   3
ATOM      3  C   UNL     1      27.231  38.560   9.706  1.00  0.00     0.176 C 
BRANCH   3   4
ATOM      4  C   UNL     1      28.704  38.277   9.764  1.00  0.00     0.178 C 
ATOM      5  C   UNL     1      30.559  39.132  10.863  1.00  0.00     0.269 C 
ATOM      6  C   UNL     1      31.439  38.246  10.016  1.00  0.00     0.112 C 
ATOM      7  O   UNL     1      29.271  38.672  10.967  1.00  0.00    -0.332 OA
ATOM      8  C   UNL     1      30.846  38.061   8.659  1.00  0.00     0.145 C 
ATOM      9  C   UNL     1      29.454  38.720   8.556  1.00  0.00     0.142 C 
BRANCH   5  10
ATOM     10  O   UNL     1      30.661  40.430  10.370  1.00  0.00    -0.357 OA
ATOM     11  H   UNL     1      31.582  40.733  10.268  1.00  0.00     0.214 HD
ENDBRANCH   5  10
BRANCH   5  12
ATOM     12  C   UNL     1      31.144  39.144  12.237  1.00  0.00     0.364 C 
ATOM     13  O   UNL     1      31.279  38.044  12.829  1.00  0.00    -0.246 OA
BRANCH  12  14
ATOM     14  O   UNL     1      31.536  40.310  12.870  1.00  0.00    -0.477 OA
ATOM     15  H   UNL     1      30.981  40.674  13.651  1.00  0.00     0.296 HD
ENDBRANCH  12  14
ENDBRANCH   5  12
BRANCH   8  16
ATOM     16  O   UNL     1      31.686  38.601   7.668  1.00  0.00    -0.391 OA
ATOM     17  H   UNL     1      32.490  38.037   7.570  1.00  0.00     0.211 HD
ENDBRANCH   8  16
BRANCH   9  18
ATOM     18  N   UNL     1      28.782  38.164   7.378  1.00  0.00    -0.348 N 
ATOM     19  C   UNL     1      28.775  38.806   6.112  1.00  0.00     0.217 C 
ATOM     20  H   UNL     1      28.280  37.261   7.452  1.00  0.00     0.163 HD
ATOM     21  C   UNL     1      28.084  38.228   4.929  1.00  0.00     0.114 C 
ATOM     22  O   UNL     1      29.367  39.903   5.953  1.00  0.00    -0.275 OA
ENDBRANCH   9  18
ENDBRANCH   3   4
BRANCH   3  23
ATOM     23  O   UNL     1      26.515  37.431   9.258  1.00  0.00    -0.388 OA
ATOM     24  H   UNL     1      26.268  36.920  10.068  1.00  0.00     0.211 HD
ENDBRANCH   3  23
ENDBRANCH   2   3
BRANCH   2  25
ATOM     25  O   UNL     1      26.868  37.993  12.011  1.00  0.00    -0.388 OA
ATOM     26  H   UNL     1      25.980  37.891  12.479  1.00  0.00     0.211 HD
ENDBRANCH   2  25
ENDBRANCH   1   2
BRANCH   1  27
ATOM     27  N   UNL     1      24.397  38.210  11.538  1.00  0.00    -0.319 N 
ATOM     28  C   UNL     1      23.576  37.335  10.798  1.00  0.00     0.407 C 
ATOM     29  H   UNL     1      24.426  38.032  12.580  1.00  0.00     0.167 HD
ATOM     30  O   UNL     1      23.455  37.439   9.560  1.00  0.00    -0.225 OA
BRANCH  28  31
ATOM     31  O   UNL     1      22.849  36.298  11.399  1.00  0.00    -0.443 OA
BRANCH  31  32
ATOM     32  C   UNL     1      23.347  34.953  11.347  1.00  0.00     0.294 C 
BRANCH  32  33
ATOM     33  C   UNL     1      24.782  34.923  11.695  1.00  0.00     0.121 A 
ATOM     34  C   UNL     1      25.356  34.580  12.879  1.00  0.00     0.144 A 
ATOM     35  N   UNL     1      25.769  35.245  10.852  1.00  0.00    -0.131 NA
ATOM     36  N   UNL     1      26.702  34.712  12.702  1.00  0.00    -0.219 N 
ATOM     37  N   UNL     1      26.929  35.114  11.473  1.00  0.00    -0.062 NA
BRANCH  36  38
ATOM     38  C   UNL     1      27.699  34.461  13.674  1.00  0.00     0.085 A 
ATOM     39  C   UNL     1      27.316  34.044  14.936  1.00  0.00     0.140 A 
ATOM     40  C   UNL     1      29.023  34.636  13.343  1.00  0.00     0.040 A 
ATOM     41  N   UNL     1      28.263  33.806  15.859  1.00  0.00    -0.254 NA
ATOM     42  C   UNL     1      29.988  34.384  14.314  1.00  0.00     0.002 A 
ATOM     43  C   UNL     1      29.582  33.969  15.565  1.00  0.00     0.070 A 
ATOM     44  C   UNL     1      31.306  34.550  14.014  1.00  0.00     0.010 A 
ATOM     45  C   UNL     1      30.538  33.719  16.529  1.00  0.00     0.029 A 
ATOM     46  C   UNL     1      32.278  34.298  14.983  1.00  0.00     0.001 A 
ATOM     47  C   UNL     1      31.886  33.884  16.234  1.00  0.00     0.002 A 
ENDBRANCH  36  38
ENDBRANCH  32  33
ENDBRANCH  31  32
ENDBRANCH  28  31
ENDBRANCH   1  27
TORSDOF 15
BEGIN_RES LYS A 131
REMARK  4 active torsions:
REMARK  status: ('A' for Active; 'I' for Inactive)
REMARK    1  A    between atoms: CA   and  CB  
REMARK    2  A    between atoms: CB   and  CG  
REMARK    3  A    between atoms: CG   and  CD  
REMARK    4  A    between atoms: CD   and  CE  
ROOT
ATOM      1  CA  LYS A 131      29.867  25.555  16.977  1.00 20.52     0.186 C 
ENDROOT
BRANCH   1   2
ATOM      2  CB  LYS A 131      28.345  25.722  17.026  1.00 20.94     0.034 C 
BRANCH   2   3
ATOM      3  CG  LYS A 131      27.601  24.403  16.887  1.00 22.96     0.005 C 
BRANCH   3   4
ATOM      4  CD  LYS A 131      26.769  24.091  18.100  1.00 24.33     0.041 C 
BRANCH   4   5
ATOM      5  CE  LYS A 131      26.151  25.378  18.637  1.00 26.91     0.338 C 
ATOM      6  NZ  LYS A 131      25.492  25.132  19.941  1.00 27.40     0.618 N 
ENDBRANCH   4   5
ENDBRANCH   3   4
ENDBRANCH   2   3
ENDBRANCH   1   2
END_RES LYS A 131
BEGIN_RES LYS A 135
REMARK  4 active torsions:
REMARK  status: ('A' for Active; 'I' for Inactive)
REMARK    5  A    between atoms: CA   and  CB  
REMARK    6  A    between atoms: CB   and  CG  
REMARK    7  A    between atoms: CG   and  CD  
REMARK    8  A    between atoms: CD   and  CE  
ROOT
ATOM      7  CA  LYS A 135      33.193  34.663   9.290  1.00 25.02     0.186 C 
ENDROOT
BRANCH   7   8
ATOM      8  CB  LYS A 135      32.060  35.360  10.034  1.00 26.63     0.034 C 
BRANCH   8   9
ATOM      9  CG  LYS A 135      30.777  34.570  10.054  1.00 29.45     0.005 C 
BRANCH   9  10
ATOM     10  CD  LYS A 135      30.506  33.951   8.691  1.00 32.00     0.041 C 
BRANCH  10  11
ATOM     11  CE  LYS A 135      29.581  34.836   7.878  1.00 34.25     0.338 C 
ATOM     12  NZ  LYS A 135      28.157  34.599   8.241  1.00 35.99     0.618 N 
ENDBRANCH  10  11
ENDBRANCH   9  10
ENDBRANCH   8   9
ENDBRANCH   7   8
END_RES LYS A 135
