REMARK VINA RESULT:    -5.735      4.998      8.837
REMARK INTER + INTRA:         -14.758
REMARK INTER:                 -10.154
REMARK INTRA:                  -4.604
REMARK UNBOUND:                -3.993
REMARK SMILES CC(=O)N[C@@H]1[C@@H](O)C[C@](O)(C(=O)O)O[C@H]1C(O)[C@H](O)CNC(=O)OCc1cn(Cc2ccc(C(=O)O)cc2)nn1
REMARK SMILES IDX 21 1 22 2 23 3 20 5 18 6 16 7 15 8 9 9 8 10 14 11 6 12 5 13
REMARK SMILES IDX 10 14 11 16 12 17 13 18 7 20 4 22 2 23 1 25 3 26 17 27 19 29
REMARK SMILES IDX 24 31 25 32 26 33 27 34 40 35 28 36 39 37 29 38 30 39 31 40
REMARK SMILES IDX 38 41 32 42 37 43 33 44 34 45 35 46 36 47
REMARK H PARENT 21 4 10 15 13 19 7 21 4 24 17 28 19 30 36 48
REMARK Flexibility Score: inf
ROOT
ATOM      1  N   UNL     1      27.923  33.600  15.351  1.00  0.00    -0.319 N 
ATOM      2  C   UNL     1      29.200  33.602  14.765  1.00  0.00     0.407 C 
ATOM      3  O   UNL     1      29.901  32.578  14.802  1.00  0.00    -0.225 OA
ATOM      4  H   UNL     1      27.389  34.519  15.279  1.00  0.00     0.167 HD
ENDROOT
BRANCH   1   5
ATOM      5  C   UNL     1      27.343  32.459  16.009  1.00  0.00     0.154 C 
BRANCH   5   6
ATOM      6  C   UNL     1      25.850  32.474  15.820  1.00  0.00     0.165 C 
BRANCH   6   7
ATOM      7  C   UNL     1      25.411  32.257  14.407  1.00  0.00     0.176 C 
BRANCH   7   8
ATOM      8  C   UNL     1      24.124  31.412  14.371  1.00  0.00     0.178 C 
ATOM      9  C   UNL     1      23.281  29.565  13.265  1.00  0.00     0.269 C 
ATOM     10  C   UNL     1      22.277  30.370  12.454  1.00  0.00     0.112 C 
ATOM     11  O   UNL     1      24.362  30.384  13.483  1.00  0.00    -0.332 OA
ATOM     12  C   UNL     1      21.896  31.616  13.185  1.00  0.00     0.145 C 
ATOM     13  C   UNL     1      23.051  32.304  13.861  1.00  0.00     0.142 C 
BRANCH   9  14
ATOM     14  O   UNL     1      23.707  28.545  12.366  1.00  0.00    -0.357 OA
ATOM     15  H   UNL     1      24.194  28.996  11.607  1.00  0.00     0.214 HD
ENDBRANCH   9  14
BRANCH   9  16
ATOM     16  C   UNL     1      22.671  28.959  14.451  1.00  0.00     0.364 C 
ATOM     17  O   UNL     1      21.465  28.542  14.380  1.00  0.00    -0.246 OA
BRANCH  16  18
ATOM     18  O   UNL     1      23.267  28.779  15.683  1.00  0.00    -0.477 OA
ATOM     19  H   UNL     1      23.390  29.601  16.259  1.00  0.00     0.296 HD
ENDBRANCH  16  18
ENDBRANCH   9  16
BRANCH  12  20
ATOM     20  O   UNL     1      21.392  32.517  12.217  1.00  0.00    -0.391 OA
ATOM     21  H   UNL     1      21.231  31.976  11.406  1.00  0.00     0.211 HD
ENDBRANCH  12  20
BRANCH  13  22
ATOM     22  N   UNL     1      22.543  33.223  14.859  1.00  0.00    -0.348 N 
ATOM     23  C   UNL     1      22.393  34.608  14.600  1.00  0.00     0.217 C 
ATOM     24  H   UNL     1      22.269  32.887  15.807  1.00  0.00     0.163 HD
ATOM     25  C   UNL     1      21.863  35.546  15.654  1.00  0.00     0.114 C 
ATOM     26  O   UNL     1      22.709  35.043  13.476  1.00  0.00    -0.275 OA
ENDBRANCH  13  22
ENDBRANCH   7   8
BRANCH   7  27
ATOM     27  O   UNL     1      25.285  33.401  13.656  1.00  0.00    -0.388 OA
ATOM     28  H   UNL     1      26.104  33.954  13.743  1.00  0.00     0.211 HD
ENDBRANCH   7  27
ENDBRANCH   6   7
BRANCH   6  29
ATOM     29  O   UNL     1      25.263  33.643  16.324  1.00  0.00    -0.388 OA
ATOM     30  H   UNL     1      25.979  34.226  16.706  1.00  0.00     0.211 HD
ENDBRANCH   6  29
ENDBRANCH   5   6
ENDBRANCH   1   5
BRANCH   2  31
ATOM     31  O   UNL     1      29.745  34.709  14.127  1.00  0.00    -0.443 OA
BRANCH  31  32
ATOM     32  C   UNL     1      29.844  34.842  12.730  1.00  0.00     0.294 C 
BRANCH  32  33
ATOM     33  C   UNL     1      28.497  34.987  12.142  1.00  0.00     0.120 A 
ATOM     34  C   UNL     1      28.120  34.559  10.868  1.00  0.00     0.138 A 
ATOM     35  N   UNL     1      27.379  35.537  12.655  1.00  0.00    -0.132 NA
ATOM     36  N   UNL     1      26.831  34.860  10.674  1.00  0.00    -0.248 N 
ATOM     37  N   UNL     1      26.406  35.450  11.765  1.00  0.00    -0.067 NA
BRANCH  36  38
ATOM     38  C   UNL     1      26.044  34.592   9.461  1.00  0.00     0.181 C 
BRANCH  38  39
ATOM     39  C   UNL     1      26.635  35.472   8.402  1.00  0.00    -0.026 A 
ATOM     40  C   UNL     1      27.536  34.947   7.519  1.00  0.00     0.006 A 
ATOM     41  C   UNL     1      26.300  36.799   8.297  1.00  0.00     0.006 A 
ATOM     42  C   UNL     1      28.110  35.743   6.523  1.00  0.00     0.016 A 
ATOM     43  C   UNL     1      26.869  37.592   7.307  1.00  0.00     0.016 A 
ATOM     44  C   UNL     1      27.781  37.072   6.409  1.00  0.00     0.059 A 
BRANCH  44  45
ATOM     45  C   UNL     1      28.369  37.912   5.375  1.00  0.00     0.335 C 
ATOM     46  O   UNL     1      27.699  38.431   4.455  1.00  0.00    -0.246 OA
BRANCH  45  47
ATOM     47  O   UNL     1      29.738  38.157   5.396  1.00  0.00    -0.478 OA
ATOM     48  H   UNL     1      30.274  38.209   4.547  1.00  0.00     0.297 HD
ENDBRANCH  45  47
ENDBRANCH  44  45
ENDBRANCH  38  39
ENDBRANCH  36  38
ENDBRANCH  32  33
ENDBRANCH  31  32
ENDBRANCH   2  31
TORSDOF 18
BEGIN_RES LYS A 131
REMARK  4 active torsions:
REMARK  status: ('A' for Active; 'I' for Inactive)
REMARK    1  A    between atoms: CA   and  CB  
REMARK    2  A    between atoms: CB   and  CG  
REMARK    3  A    between atoms: CG   and  CD  
REMARK    4  A    between atoms: CD   and  CE  
ROOT
ATOM      1  CA  LYS A 131      29.867  25.555  16.977  1.00 20.52     0.186 C 
ENDROOT
BRANCH   1   2
ATOM      2  CB  LYS A 131      28.345  25.722  17.026  1.00 20.94     0.034 C 
BRANCH   2   3
ATOM      3  CG  LYS A 131      27.625  24.454  17.460  1.00 22.96     0.005 C 
BRANCH   3   4
ATOM      4  CD  LYS A 131      26.196  24.426  16.993  1.00 24.33     0.041 C 
BRANCH   4   5
ATOM      5  CE  LYS A 131      25.451  23.301  17.704  1.00 26.91     0.338 C 
ATOM      6  NZ  LYS A 131      24.088  23.146  17.142  1.00 27.40     0.618 N 
ENDBRANCH   4   5
ENDBRANCH   3   4
ENDBRANCH   2   3
ENDBRANCH   1   2
END_RES LYS A 131
BEGIN_RES LYS A 135
REMARK  4 active torsions:
REMARK  status: ('A' for Active; 'I' for Inactive)
REMARK    5  A    between atoms: CA   and  CB  
REMARK    6  A    between atoms: CB   and  CG  
REMARK    7  A    between atoms: CG   and  CD  
REMARK    8  A    between atoms: CD   and  CE  
ROOT
ATOM      7  CA  LYS A 135      33.193  34.663   9.290  1.00 25.02     0.186 C 
ENDROOT
BRANCH   7   8
ATOM      8  CB  LYS A 135      32.060  35.360  10.034  1.00 26.63     0.034 C 
BRANCH   8   9
ATOM      9  CG  LYS A 135      30.838  35.598   9.185  1.00 29.45     0.005 C 
BRANCH   9  10
ATOM     10  CD  LYS A 135      30.434  37.064   9.225  1.00 32.00     0.041 C 
BRANCH  10  11
ATOM     11  CE  LYS A 135      30.923  37.716  10.504  1.00 34.25     0.338 C 
ATOM     12  NZ  LYS A 135      29.794  38.322  11.263  1.00 35.99     0.618 N 
ENDBRANCH  10  11
ENDBRANCH   9  10
ENDBRANCH   8   9
ENDBRANCH   7   8
END_RES LYS A 135
