REMARK VINA RESULT:    -4.578      7.941     13.322
REMARK INTER + INTRA:         -15.313
REMARK INTER:                 -10.083
REMARK INTRA:                  -5.230
REMARK UNBOUND:                -5.918
REMARK SMILES CC(=O)N[C@@H]1[C@@H](O)C[C@](O)(C(=O)O)O[C@H]1C(O)[C@H](O)CNC(=O)OCc1cn(CCCCCC(=O)O)nn1
REMARK SMILES IDX 25 1 24 2 22 3 21 4 23 6 20 7 18 8 16 9 15 10 9 11 8 12
REMARK SMILES IDX 14 13 6 14 5 15 10 16 11 18 12 19 13 20 7 22 4 24 2 25 1 27
REMARK SMILES IDX 3 28 17 29 19 31 26 33 27 34 38 35 28 36 37 37 29 38 30 39
REMARK SMILES IDX 31 40 32 41 33 42 34 43 35 44 36 45
REMARK H PARENT 21 5 10 17 13 21 7 23 4 26 17 30 19 32 36 46
REMARK Flexibility Score: inf
ROOT
ATOM      1  C   UNL     1      29.722  30.860  16.211  1.00  0.00     0.294 C 
ENDROOT
BRANCH   1   2
ATOM      2  O   UNL     1      28.522  30.345  15.645  1.00  0.00    -0.443 OA
BRANCH   2   3
ATOM      3  C   UNL     1      27.611  29.727  16.510  1.00  0.00     0.407 C 
ATOM      4  N   UNL     1      28.095  29.232  17.754  1.00  0.00    -0.319 N 
ATOM      5  H   UNL     1      29.120  29.361  17.965  1.00  0.00     0.167 HD
ATOM      6  O   UNL     1      26.413  29.638  16.144  1.00  0.00    -0.225 OA
BRANCH   4   7
ATOM      7  C   UNL     1      27.186  28.593  18.651  1.00  0.00     0.154 C 
BRANCH   7   8
ATOM      8  C   UNL     1      27.833  27.945  19.851  1.00  0.00     0.165 C 
BRANCH   8   9
ATOM      9  C   UNL     1      28.799  28.942  20.463  1.00  0.00     0.176 C 
BRANCH   9  10
ATOM     10  C   UNL     1      29.048  28.753  21.922  1.00  0.00     0.178 C 
ATOM     11  C   UNL     1      31.300  28.191  21.610  1.00  0.00     0.269 C 
ATOM     12  C   UNL     1      30.865  26.724  21.764  1.00  0.00     0.112 C 
ATOM     13  O   UNL     1      30.377  29.020  22.179  1.00  0.00    -0.332 OA
ATOM     14  C   UNL     1      29.934  26.713  22.951  1.00  0.00     0.145 C 
ATOM     15  C   UNL     1      28.653  27.447  22.512  1.00  0.00     0.142 C 
BRANCH  11  16
ATOM     16  O   UNL     1      31.599  28.459  20.276  1.00  0.00    -0.357 OA
ATOM     17  H   UNL     1      31.363  27.678  19.682  1.00  0.00     0.214 HD
ENDBRANCH  11  16
BRANCH  11  18
ATOM     18  C   UNL     1      32.559  28.323  22.387  1.00  0.00     0.364 C 
ATOM     19  O   UNL     1      32.873  29.442  22.894  1.00  0.00    -0.246 OA
BRANCH  18  20
ATOM     20  O   UNL     1      33.369  27.213  22.541  1.00  0.00    -0.477 OA
ATOM     21  H   UNL     1      33.229  26.672  23.407  1.00  0.00     0.296 HD
ENDBRANCH  18  20
ENDBRANCH  11  18
BRANCH  14  22
ATOM     22  O   UNL     1      29.629  25.417  23.366  1.00  0.00    -0.391 OA
ATOM     23  H   UNL     1      28.670  25.420  23.624  1.00  0.00     0.211 HD
ENDBRANCH  14  22
BRANCH  15  24
ATOM     24  N   UNL     1      27.777  27.604  23.664  1.00  0.00    -0.348 N 
ATOM     25  C   UNL     1      26.704  26.734  23.937  1.00  0.00     0.217 C 
ATOM     26  H   UNL     1      27.963  28.410  24.327  1.00  0.00     0.163 HD
ATOM     27  C   UNL     1      25.813  26.925  25.138  1.00  0.00     0.114 C 
ATOM     28  O   UNL     1      26.492  25.768  23.141  1.00  0.00    -0.275 OA
ENDBRANCH  15  24
ENDBRANCH   9  10
BRANCH   9  29
ATOM     29  O   UNL     1      28.109  30.185  20.360  1.00  0.00    -0.388 OA
ATOM     30  H   UNL     1      28.810  30.862  20.214  1.00  0.00     0.211 HD
ENDBRANCH   9  29
ENDBRANCH   8   9
BRANCH   8  31
ATOM     31  O   UNL     1      28.438  26.779  19.436  1.00  0.00    -0.388 OA
ATOM     32  H   UNL     1      28.180  26.014  20.007  1.00  0.00     0.211 HD
ENDBRANCH   8  31
ENDBRANCH   7   8
ENDBRANCH   4   7
ENDBRANCH   2   3
ENDBRANCH   1   2
BRANCH   1  33
ATOM     33  C   UNL     1      29.701  32.320  15.961  1.00  0.00     0.120 A 
ATOM     34  C   UNL     1      29.153  32.896  14.833  1.00  0.00     0.138 A 
ATOM     35  N   UNL     1      30.174  33.303  16.726  1.00  0.00    -0.132 NA
ATOM     36  N   UNL     1      29.331  34.226  14.983  1.00  0.00    -0.252 N 
ATOM     37  N   UNL     1      29.945  34.462  16.122  1.00  0.00    -0.067 NA
BRANCH  36  38
ATOM     38  C   UNL     1      28.877  35.182  13.971  1.00  0.00     0.146 C 
BRANCH  38  39
ATOM     39  C   UNL     1      29.895  35.195  12.862  1.00  0.00     0.024 C 
BRANCH  39  40
ATOM     40  C   UNL     1      30.618  36.520  12.741  1.00  0.00     0.002 C 
BRANCH  40  41
ATOM     41  C   UNL     1      32.098  36.379  12.825  1.00  0.00     0.012 C 
BRANCH  41  42
ATOM     42  C   UNL     1      32.602  36.016  14.195  1.00  0.00     0.122 C 
BRANCH  42  43
ATOM     43  C   UNL     1      33.269  34.707  14.258  1.00  0.00     0.303 C 
ATOM     44  O   UNL     1      34.438  34.560  13.867  1.00  0.00    -0.252 OA
BRANCH  43  45
ATOM     45  O   UNL     1      32.594  33.583  14.766  1.00  0.00    -0.481 OA
ATOM     46  H   UNL     1      32.120  33.634  15.674  1.00  0.00     0.296 HD
ENDBRANCH  43  45
ENDBRANCH  42  43
ENDBRANCH  41  42
ENDBRANCH  40  41
ENDBRANCH  39  40
ENDBRANCH  38  39
ENDBRANCH  36  38
ENDBRANCH   1  33
TORSDOF 21
BEGIN_RES LYS A 131
REMARK  4 active torsions:
REMARK  status: ('A' for Active; 'I' for Inactive)
REMARK    1  A    between atoms: CA   and  CB  
REMARK    2  A    between atoms: CB   and  CG  
REMARK    3  A    between atoms: CG   and  CD  
REMARK    4  A    between atoms: CD   and  CE  
ROOT
ATOM      1  CA  LYS A 131      29.867  25.555  16.977  1.00 20.52     0.186 C 
ENDROOT
BRANCH   1   2
ATOM      2  CB  LYS A 131      28.345  25.722  17.026  1.00 20.94     0.034 C 
BRANCH   2   3
ATOM      3  CG  LYS A 131      27.602  24.400  16.909  1.00 22.96     0.005 C 
BRANCH   3   4
ATOM      4  CD  LYS A 131      26.157  24.526  17.306  1.00 24.33     0.041 C 
BRANCH   4   5
ATOM      5  CE  LYS A 131      25.957  23.926  18.694  1.00 26.91     0.338 C 
ATOM      6  NZ  LYS A 131      25.544  24.974  19.658  1.00 27.40     0.618 N 
ENDBRANCH   4   5
ENDBRANCH   3   4
ENDBRANCH   2   3
ENDBRANCH   1   2
END_RES LYS A 131
BEGIN_RES LYS A 135
REMARK  4 active torsions:
REMARK  status: ('A' for Active; 'I' for Inactive)
REMARK    5  A    between atoms: CA   and  CB  
REMARK    6  A    between atoms: CB   and  CG  
REMARK    7  A    between atoms: CG   and  CD  
REMARK    8  A    between atoms: CD   and  CE  
ROOT
ATOM      7  CA  LYS A 135      33.193  34.663   9.290  1.00 25.02     0.186 C 
ENDROOT
BRANCH   7   8
ATOM      8  CB  LYS A 135      32.060  35.360  10.034  1.00 26.63     0.034 C 
BRANCH   8   9
ATOM      9  CG  LYS A 135      30.835  35.591   9.187  1.00 29.45     0.005 C 
BRANCH   9  10
ATOM     10  CD  LYS A 135      30.315  34.277   8.626  1.00 32.00     0.041 C 
BRANCH  10  11
ATOM     11  CE  LYS A 135      28.908  34.005   9.124  1.00 34.25     0.338 C 
ATOM     12  NZ  LYS A 135      27.972  35.083   8.699  1.00 35.99     0.618 N 
ENDBRANCH  10  11
ENDBRANCH   9  10
ENDBRANCH   8   9
ENDBRANCH   7   8
END_RES LYS A 135
