REMARK VINA RESULT:    -4.675      2.780      5.357
REMARK INTER + INTRA:         -15.185
REMARK INTER:                  -8.731
REMARK INTRA:                  -6.455
REMARK UNBOUND:                -6.275
REMARK SMILES CC(=O)N[C@@H]1[C@@H](O)C[C@](O)(C(=O)O)O[C@H]1C(O)[C@H](O)CNC(=O)OCc1cn(Cc2ccccc2OC(C)=O)nn1
REMARK SMILES IDX 21 1 22 2 23 3 20 5 18 6 16 7 15 8 9 9 8 10 14 11 6 12 5 13
REMARK SMILES IDX 10 14 11 16 12 17 13 18 7 20 4 22 2 23 1 25 3 26 17 27 19 29
REMARK SMILES IDX 24 31 25 32 26 33 27 34 41 35 28 36 40 37 29 38 30 39 35 40
REMARK SMILES IDX 31 41 34 42 32 43 33 44 36 45 37 46 39 47 38 48
REMARK H PARENT 21 4 10 15 13 19 7 21 4 24 17 28 19 30
REMARK Flexibility Score: inf
ROOT
ATOM      1  N   UNL     1      25.934  42.030   8.253  1.00  0.00    -0.319 N 
ATOM      2  C   UNL     1      24.522  41.913   8.425  1.00  0.00     0.407 C 
ATOM      3  O   UNL     1      23.953  42.716   9.195  1.00  0.00    -0.225 OA
ATOM      4  H   UNL     1      26.396  41.356   7.612  1.00  0.00     0.167 HD
ENDROOT
BRANCH   1   5
ATOM      5  C   UNL     1      26.683  43.042   8.948  1.00  0.00     0.154 C 
BRANCH   5   6
ATOM      6  C   UNL     1      27.750  42.345   9.799  1.00  0.00     0.165 C 
BRANCH   6   7
ATOM      7  C   UNL     1      28.750  41.690   8.887  1.00  0.00     0.176 C 
BRANCH   7   8
ATOM      8  C   UNL     1      29.043  40.303   9.393  1.00  0.00     0.178 C 
ATOM      9  C   UNL     1      30.150  39.197  11.113  1.00  0.00     0.269 C 
ATOM     10  C   UNL     1      31.202  38.667  10.167  1.00  0.00     0.112 C 
ATOM     11  O   UNL     1      29.704  40.393  10.578  1.00  0.00    -0.332 OA
ATOM     12  C   UNL     1      30.553  38.371   8.859  1.00  0.00     0.145 C 
ATOM     13  C   UNL     1      29.703  39.494   8.334  1.00  0.00     0.142 C 
BRANCH   9  14
ATOM     14  O   UNL     1      30.844  39.534  12.295  1.00  0.00    -0.357 OA
ATOM     15  H   UNL     1      31.810  39.362  12.211  1.00  0.00     0.214 HD
ENDBRANCH   9  14
BRANCH   9  16
ATOM     16  C   UNL     1      29.076  38.229  11.409  1.00  0.00     0.364 C 
ATOM     17  O   UNL     1      29.269  37.007  11.619  1.00  0.00    -0.246 OA
BRANCH  16  18
ATOM     18  O   UNL     1      27.768  38.672  11.464  1.00  0.00    -0.477 OA
ATOM     19  H   UNL     1      26.960  38.089  11.236  1.00  0.00     0.296 HD
ENDBRANCH  16  18
ENDBRANCH   9  16
BRANCH  12  20
ATOM     20  O   UNL     1      31.588  38.075   7.943  1.00  0.00    -0.391 OA
ATOM     21  H   UNL     1      32.419  38.544   8.250  1.00  0.00     0.211 HD
ENDBRANCH  12  20
BRANCH  13  22
ATOM     22  N   UNL     1      28.679  38.923   7.481  1.00  0.00    -0.348 N 
ATOM     23  C   UNL     1      28.859  38.778   6.072  1.00  0.00     0.217 C 
ATOM     24  H   UNL     1      27.773  38.600   7.883  1.00  0.00     0.163 HD
ATOM     25  C   UNL     1      27.779  38.188   5.250  1.00  0.00     0.114 C 
ATOM     26  O   UNL     1      29.928  39.150   5.544  1.00  0.00    -0.275 OA
ENDBRANCH  13  22
ENDBRANCH   7   8
BRANCH   7  27
ATOM     27  O   UNL     1      29.934  42.431   8.797  1.00  0.00    -0.388 OA
ATOM     28  H   UNL     1      29.908  42.965   7.969  1.00  0.00     0.211 HD
ENDBRANCH   7  27
ENDBRANCH   6   7
BRANCH   6  29
ATOM     29  O   UNL     1      27.095  41.472  10.638  1.00  0.00    -0.388 OA
ATOM     30  H   UNL     1      26.203  41.211  10.328  1.00  0.00     0.211 HD
ENDBRANCH   6  29
ENDBRANCH   5   6
ENDBRANCH   1   5
BRANCH   2  31
ATOM     31  O   UNL     1      23.821  40.930   7.747  1.00  0.00    -0.443 OA
BRANCH  31  32
ATOM     32  C   UNL     1      24.462  40.014   6.889  1.00  0.00     0.294 C 
BRANCH  32  33
ATOM     33  C   UNL     1      25.024  38.920   7.696  1.00  0.00     0.120 A 
ATOM     34  C   UNL     1      24.745  37.557   7.560  1.00  0.00     0.138 A 
ATOM     35  N   UNL     1      25.911  38.991   8.722  1.00  0.00    -0.132 NA
ATOM     36  N   UNL     1      25.453  36.910   8.478  1.00  0.00    -0.248 N 
ATOM     37  N   UNL     1      26.158  37.780   9.180  1.00  0.00    -0.067 NA
BRANCH  36  38
ATOM     38  C   UNL     1      25.466  35.477   8.686  1.00  0.00     0.185 C 
BRANCH  38  39
ATOM     39  C   UNL     1      26.912  35.072   8.713  1.00  0.00     0.016 A 
ATOM     40  C   UNL     1      27.392  34.441   9.830  1.00  0.00     0.135 A 
ATOM     41  C   UNL     1      27.714  35.340   7.634  1.00  0.00     0.009 A 
ATOM     42  C   UNL     1      28.705  34.053   9.904  1.00  0.00     0.047 A 
ATOM     43  C   UNL     1      29.056  34.950   7.694  1.00  0.00     0.001 A 
ATOM     44  C   UNL     1      29.515  34.321   8.820  1.00  0.00     0.004 A 
BRANCH  40  45
ATOM     45  O   UNL     1      26.548  34.188  10.901  1.00  0.00    -0.426 OA
BRANCH  45  46
ATOM     46  C   UNL     1      26.653  35.022  12.013  1.00  0.00     0.308 C 
ATOM     47  O   UNL     1      26.103  36.148  11.994  1.00  0.00    -0.252 OA
ATOM     48  C   UNL     1      27.405  34.594  13.217  1.00  0.00     0.139 C 
ENDBRANCH  45  46
ENDBRANCH  40  45
ENDBRANCH  38  39
ENDBRANCH  36  38
ENDBRANCH  32  33
ENDBRANCH  31  32
ENDBRANCH   2  31
TORSDOF 18
BEGIN_RES LYS A 131
REMARK  4 active torsions:
REMARK  status: ('A' for Active; 'I' for Inactive)
REMARK    1  A    between atoms: CA   and  CB  
REMARK    2  A    between atoms: CB   and  CG  
REMARK    3  A    between atoms: CG   and  CD  
REMARK    4  A    between atoms: CD   and  CE  
ROOT
ATOM      1  CA  LYS A 131      29.867  25.555  16.977  1.00 20.52     0.186 C 
ENDROOT
BRANCH   1   2
ATOM      2  CB  LYS A 131      28.345  25.722  17.026  1.00 20.94     0.034 C 
BRANCH   2   3
ATOM      3  CG  LYS A 131      27.602  24.397  16.949  1.00 22.96     0.005 C 
BRANCH   3   4
ATOM      4  CD  LYS A 131      26.123  24.563  17.162  1.00 24.33     0.041 C 
BRANCH   4   5
ATOM      5  CE  LYS A 131      25.542  23.272  17.728  1.00 26.91     0.338 C 
ATOM      6  NZ  LYS A 131      25.651  23.258  19.206  1.00 27.40     0.618 N 
ENDBRANCH   4   5
ENDBRANCH   3   4
ENDBRANCH   2   3
ENDBRANCH   1   2
END_RES LYS A 131
BEGIN_RES LYS A 135
REMARK  4 active torsions:
REMARK  status: ('A' for Active; 'I' for Inactive)
REMARK    5  A    between atoms: CA   and  CB  
REMARK    6  A    between atoms: CB   and  CG  
REMARK    7  A    between atoms: CG   and  CD  
REMARK    8  A    between atoms: CD   and  CE  
ROOT
ATOM      7  CA  LYS A 135      33.193  34.663   9.290  1.00 25.02     0.186 C 
ENDROOT
BRANCH   7   8
ATOM      8  CB  LYS A 135      32.060  35.360  10.034  1.00 26.63     0.034 C 
BRANCH   8   9
ATOM      9  CG  LYS A 135      32.046  35.075  11.514  1.00 29.45     0.005 C 
BRANCH   9  10
ATOM     10  CD  LYS A 135      32.643  36.238  12.290  1.00 32.00     0.041 C 
BRANCH  10  11
ATOM     11  CE  LYS A 135      32.068  36.294  13.693  1.00 34.25     0.338 C 
ATOM     12  NZ  LYS A 135      31.205  35.112  13.966  1.00 35.99     0.618 N 
ENDBRANCH  10  11
ENDBRANCH   9  10
ENDBRANCH   8   9
ENDBRANCH   7   8
END_RES LYS A 135
