REMARK VINA RESULT:    -5.865      2.559      8.181
REMARK INTER + INTRA:         -15.614
REMARK INTER:                  -8.795
REMARK INTRA:                  -6.819
REMARK UNBOUND:                -4.777
REMARK SMILES CC(=O)N[C@@H]1[C@@H](O)C[C@](O)(C(=O)O)O[C@H]1C(O)[C@H](O)CNC(=O)OCc1cn(C(C)(C)C(=O)c2c[nH]c3ccccc23)nn1
REMARK SMILES IDX 21 1 22 2 23 3 20 5 18 6 16 7 15 8 9 9 8 10 14 11 6 12 5 13
REMARK SMILES IDX 10 14 11 16 12 17 13 18 7 20 4 22 2 23 1 25 3 26 17 27 19 29
REMARK SMILES IDX 24 31 25 32 26 33 27 34 44 35 28 36 43 37 29 38 30 39 31 40
REMARK SMILES IDX 32 41 33 42 34 43 35 44 42 45 36 46 37 47 41 48 38 50 40 51
REMARK SMILES IDX 39 52
REMARK H PARENT 21 4 10 15 13 19 7 21 4 24 17 28 19 30 36 49
REMARK Flexibility Score: inf
ROOT
ATOM      1  N   UNL     1      26.402  38.175  13.798  1.00  0.00    -0.319 N 
ATOM      2  C   UNL     1      25.562  37.593  14.778  1.00  0.00     0.407 C 
ATOM      3  O   UNL     1      26.021  36.866  15.662  1.00  0.00    -0.225 OA
ATOM      4  H   UNL     1      25.898  38.797  13.080  1.00  0.00     0.167 HD
ENDROOT
BRANCH   1   5
ATOM      5  C   UNL     1      27.825  38.002  13.694  1.00  0.00     0.154 C 
BRANCH   5   6
ATOM      6  C   UNL     1      28.281  36.810  12.940  1.00  0.00     0.165 C 
BRANCH   6   7
ATOM      7  C   UNL     1      29.540  36.174  13.508  1.00  0.00     0.176 C 
BRANCH   7   8
ATOM      8  C   UNL     1      29.422  34.673  13.581  1.00  0.00     0.178 C 
ATOM      9  C   UNL     1      27.889  33.857  15.114  1.00  0.00     0.269 C 
ATOM     10  C   UNL     1      28.770  32.712  15.567  1.00  0.00     0.112 C 
ATOM     11  O   UNL     1      28.151  34.226  13.801  1.00  0.00    -0.332 OA
ATOM     12  C   UNL     1      30.036  32.625  14.739  1.00  0.00     0.145 C 
ATOM     13  C   UNL     1      30.467  34.073  14.497  1.00  0.00     0.142 C 
BRANCH   9  14
ATOM     14  O   UNL     1      27.964  34.959  15.965  1.00  0.00    -0.357 OA
ATOM     15  H   UNL     1      28.411  34.713  16.825  1.00  0.00     0.214 HD
ENDBRANCH   9  14
BRANCH   9  16
ATOM     16  C   UNL     1      26.484  33.369  15.159  1.00  0.00     0.364 C 
ATOM     17  O   UNL     1      26.229  32.252  15.711  1.00  0.00    -0.246 OA
BRANCH  16  18
ATOM     18  O   UNL     1      25.423  34.066  14.630  1.00  0.00    -0.477 OA
ATOM     19  H   UNL     1      25.523  34.949  14.147  1.00  0.00     0.296 HD
ENDBRANCH  16  18
ENDBRANCH   9  16
BRANCH  12  20
ATOM     20  O   UNL     1      31.024  31.900  15.362  1.00  0.00    -0.391 OA
ATOM     21  H   UNL     1      31.276  32.388  16.210  1.00  0.00     0.211 HD
ENDBRANCH  12  20
BRANCH  13  22
ATOM     22  N   UNL     1      31.760  34.141  13.872  1.00  0.00    -0.348 N 
ATOM     23  C   UNL     1      32.927  34.593  14.583  1.00  0.00     0.217 C 
ATOM     24  H   UNL     1      31.934  33.870  12.873  1.00  0.00     0.163 HD
ATOM     25  C   UNL     1      34.260  34.677  13.984  1.00  0.00     0.114 C 
ATOM     26  O   UNL     1      32.745  34.928  15.797  1.00  0.00    -0.275 OA
ENDBRANCH  13  22
ENDBRANCH   7   8
BRANCH   7  27
ATOM     27  O   UNL     1      30.565  36.521  12.623  1.00  0.00    -0.388 OA
ATOM     28  H   UNL     1      31.455  36.421  13.013  1.00  0.00     0.211 HD
ENDBRANCH   7  27
ENDBRANCH   6   7
BRANCH   6  29
ATOM     29  O   UNL     1      28.565  37.134  11.627  1.00  0.00    -0.388 OA
ATOM     30  H   UNL     1      29.275  36.516  11.311  1.00  0.00     0.211 HD
ENDBRANCH   6  29
ENDBRANCH   5   6
ENDBRANCH   1   5
BRANCH   2  31
ATOM     31  O   UNL     1      24.183  37.812  14.792  1.00  0.00    -0.443 OA
BRANCH  31  32
ATOM     32  C   UNL     1      23.301  36.879  14.242  1.00  0.00     0.294 C 
BRANCH  32  33
ATOM     33  C   UNL     1      23.120  37.129  12.789  1.00  0.00     0.120 A 
ATOM     34  C   UNL     1      23.626  36.353  11.757  1.00  0.00     0.139 A 
ATOM     35  N   UNL     1      22.448  38.122  12.171  1.00  0.00    -0.132 NA
ATOM     36  N   UNL     1      23.255  36.888  10.576  1.00  0.00    -0.239 N 
ATOM     37  N   UNL     1      22.541  37.962  10.863  1.00  0.00    -0.066 NA
BRANCH  36  38
ATOM     38  C   UNL     1      23.593  36.360   9.240  1.00  0.00     0.122 C 
ATOM     39  C   UNL     1      24.398  35.116   9.395  1.00  0.00     0.046 C 
ATOM     40  C   UNL     1      22.218  36.045   8.621  1.00  0.00     0.046 C 
BRANCH  38  41
ATOM     41  C   UNL     1      24.204  37.449   8.483  1.00  0.00     0.192 C 
ATOM     42  O   UNL     1      23.522  38.125   7.634  1.00  0.00    -0.291 OA
BRANCH  41  43
ATOM     43  C   UNL     1      25.596  37.871   8.594  1.00  0.00     0.045 A 
ATOM     44  C   UNL     1      26.100  38.700   9.595  1.00  0.00     0.095 A 
ATOM     45  C   UNL     1      26.599  37.539   7.721  1.00  0.00     0.010 A 
ATOM     46  N   UNL     1      27.393  38.865   9.326  1.00  0.00    -0.360 N 
ATOM     47  C   UNL     1      27.738  38.186   8.210  1.00  0.00     0.046 A 
ATOM     48  C   UNL     1      26.685  36.756   6.573  1.00  0.00     0.011 A 
ATOM     49  H   UNL     1      28.053  39.428   9.881  1.00  0.00     0.166 HD
ATOM     50  C   UNL     1      28.925  38.025   7.523  1.00  0.00     0.027 A 
ATOM     51  C   UNL     1      27.875  36.619   5.920  1.00  0.00     0.001 A 
ATOM     52  C   UNL     1      28.988  37.249   6.391  1.00  0.00     0.002 A 
ENDBRANCH  41  43
ENDBRANCH  38  41
ENDBRANCH  36  38
ENDBRANCH  32  33
ENDBRANCH  31  32
ENDBRANCH   2  31
TORSDOF 17
BEGIN_RES LYS A 131
REMARK  4 active torsions:
REMARK  status: ('A' for Active; 'I' for Inactive)
REMARK    1  A    between atoms: CA   and  CB  
REMARK    2  A    between atoms: CB   and  CG  
REMARK    3  A    between atoms: CG   and  CD  
REMARK    4  A    between atoms: CD   and  CE  
ROOT
ATOM      1  CA  LYS A 131      29.867  25.555  16.977  1.00 20.52     0.186 C 
ENDROOT
BRANCH   1   2
ATOM      2  CB  LYS A 131      28.345  25.722  17.026  1.00 20.94     0.034 C 
BRANCH   2   3
ATOM      3  CG  LYS A 131      27.602  24.399  16.918  1.00 22.96     0.005 C 
BRANCH   3   4
ATOM      4  CD  LYS A 131      26.642  24.194  18.057  1.00 24.33     0.041 C 
BRANCH   4   5
ATOM      5  CE  LYS A 131      25.755  25.426  18.203  1.00 26.91     0.338 C 
ATOM      6  NZ  LYS A 131      25.796  25.933  19.595  1.00 27.40     0.618 N 
ENDBRANCH   4   5
ENDBRANCH   3   4
ENDBRANCH   2   3
ENDBRANCH   1   2
END_RES LYS A 131
BEGIN_RES LYS A 135
REMARK  4 active torsions:
REMARK  status: ('A' for Active; 'I' for Inactive)
REMARK    5  A    between atoms: CA   and  CB  
REMARK    6  A    between atoms: CB   and  CG  
REMARK    7  A    between atoms: CG   and  CD  
REMARK    8  A    between atoms: CD   and  CE  
ROOT
ATOM      7  CA  LYS A 135      33.193  34.663   9.290  1.00 25.02     0.186 C 
ENDROOT
BRANCH   7   8
ATOM      8  CB  LYS A 135      32.060  35.360  10.034  1.00 26.63     0.034 C 
BRANCH   8   9
ATOM      9  CG  LYS A 135      30.806  35.517   9.212  1.00 29.45     0.005 C 
BRANCH   9  10
ATOM     10  CD  LYS A 135      30.090  34.183   9.067  1.00 32.00     0.041 C 
BRANCH  10  11
ATOM     11  CE  LYS A 135      28.612  34.399   8.802  1.00 34.25     0.338 C 
ATOM     12  NZ  LYS A 135      27.778  33.681   9.805  1.00 35.99     0.618 N 
ENDBRANCH  10  11
ENDBRANCH   9  10
ENDBRANCH   8   9
ENDBRANCH   7   8
END_RES LYS A 135
