REMARK VINA RESULT:    -3.786      1.903      4.184
REMARK INTER + INTRA:         -14.596
REMARK INTER:                  -8.489
REMARK INTRA:                  -6.107
REMARK UNBOUND:                -7.158
REMARK SMILES CCN(CC)CCn1cc(COC(=O)NC[C@@H](O)C(O)[C@@H]2O[C@@](O)(C(=O)O)C[C@H](O)[C@H]2NC(C)=O)nn1
REMARK SMILES IDX 15 1 13 2 14 3 16 5 17 6 19 7 21 8 23 9 28 10 22 11 29 12
REMARK SMILES IDX 31 13 24 14 25 16 26 17 27 18 30 20 32 22 33 23 34 25 35 26
REMARK SMILES IDX 20 27 18 29 12 31 11 32 10 33 9 34 36 35 8 36 37 37 7 38
REMARK SMILES IDX 6 39 3 40 2 41 1 42 4 43 5 44
REMARK H PARENT 15 4 24 15 27 19 30 21 32 24 20 28 18 30
REMARK Flexibility Score: inf
ROOT
ATOM      1  N   UNL     1      28.106  28.915  18.790  1.00  0.00    -0.319 N 
ATOM      2  C   UNL     1      27.351  28.961  17.578  1.00  0.00     0.407 C 
ATOM      3  O   UNL     1      26.542  28.055  17.312  1.00  0.00    -0.225 OA
ATOM      4  H   UNL     1      28.761  29.700  18.945  1.00  0.00     0.167 HD
ENDROOT
BRANCH   1   5
ATOM      5  C   UNL     1      27.995  27.866  19.757  1.00  0.00     0.154 C 
BRANCH   5   6
ATOM      6  C   UNL     1      29.094  27.863  20.781  1.00  0.00     0.165 C 
BRANCH   6   7
ATOM      7  C   UNL     1      30.005  29.054  20.581  1.00  0.00     0.176 C 
BRANCH   7   8
ATOM      8  C   UNL     1      30.328  29.728  21.884  1.00  0.00     0.178 C 
ATOM      9  C   UNL     1      30.045  31.938  21.130  1.00  0.00     0.269 C 
ATOM     10  C   UNL     1      31.558  32.054  20.999  1.00  0.00     0.112 C 
ATOM     11  O   UNL     1      29.655  30.921  21.950  1.00  0.00    -0.332 OA
ATOM     12  C   UNL     1      32.150  31.336  22.217  1.00  0.00     0.145 C 
ATOM     13  C   UNL     1      31.792  29.898  22.096  1.00  0.00     0.142 C 
BRANCH   9  14
ATOM     14  O   UNL     1      29.522  31.899  19.839  1.00  0.00    -0.357 OA
ATOM     15  H   UNL     1      29.288  30.964  19.577  1.00  0.00     0.214 HD
ENDBRANCH   9  14
BRANCH   9  16
ATOM     16  C   UNL     1      29.561  33.205  21.764  1.00  0.00     0.364 C 
ATOM     17  O   UNL     1      30.281  33.891  22.521  1.00  0.00    -0.246 OA
BRANCH  16  18
ATOM     18  O   UNL     1      28.276  33.629  21.503  1.00  0.00    -0.477 OA
ATOM     19  H   UNL     1      28.020  34.605  21.381  1.00  0.00     0.296 HD
ENDBRANCH  16  18
ENDBRANCH   9  16
BRANCH  12  20
ATOM     20  O   UNL     1      33.526  31.565  22.212  1.00  0.00    -0.391 OA
ATOM     21  H   UNL     1      33.677  32.342  22.838  1.00  0.00     0.211 HD
ENDBRANCH  12  20
BRANCH  13  22
ATOM     22  N   UNL     1      32.304  29.090  23.187  1.00  0.00    -0.348 N 
ATOM     23  C   UNL     1      32.583  27.699  23.061  1.00  0.00     0.217 C 
ATOM     24  H   UNL     1      32.495  29.509  24.141  1.00  0.00     0.163 HD
ATOM     25  C   UNL     1      33.111  26.913  24.221  1.00  0.00     0.114 C 
ATOM     26  O   UNL     1      32.390  27.116  21.977  1.00  0.00    -0.275 OA
ENDBRANCH  13  22
ENDBRANCH   7   8
BRANCH   7  27
ATOM     27  O   UNL     1      31.154  28.522  19.967  1.00  0.00    -0.388 OA
ATOM     28  H   UNL     1      31.001  28.623  18.990  1.00  0.00     0.211 HD
ENDBRANCH   7  27
ENDBRANCH   6   7
BRANCH   6  29
ATOM     29  O   UNL     1      29.726  26.652  20.807  1.00  0.00    -0.388 OA
ATOM     30  H   UNL     1      30.705  26.781  20.731  1.00  0.00     0.211 HD
ENDBRANCH   6  29
ENDBRANCH   5   6
ENDBRANCH   1   5
BRANCH   2  31
ATOM     31  O   UNL     1      27.480  29.991  16.662  1.00  0.00    -0.443 OA
BRANCH  31  32
ATOM     32  C   UNL     1      28.504  30.004  15.676  1.00  0.00     0.294 C 
BRANCH  32  33
ATOM     33  C   UNL     1      29.504  31.028  16.070  1.00  0.00     0.120 A 
ATOM     34  C   UNL     1      29.922  32.061  15.231  1.00  0.00     0.138 A 
ATOM     35  N   UNL     1      30.186  31.198  17.210  1.00  0.00    -0.132 NA
ATOM     36  N   UNL     1      30.816  32.790  15.894  1.00  0.00    -0.251 N 
ATOM     37  N   UNL     1      30.967  32.258  17.088  1.00  0.00    -0.067 NA
BRANCH  36  38
ATOM     38  C   UNL     1      31.502  33.953  15.399  1.00  0.00     0.161 C 
BRANCH  38  39
ATOM     39  C   UNL     1      30.471  34.962  14.927  1.00  0.00     0.108 C 
BRANCH  39  40
ATOM     40  N   UNL     1      30.554  35.255  13.532  1.00  0.00    -0.302 NA
BRANCH  40  41
ATOM     41  C   UNL     1      29.529  34.675  12.731  1.00  0.00     0.081 C 
ATOM     42  C   UNL     1      28.617  35.822  12.271  1.00  0.00     0.021 C 
ENDBRANCH  40  41
BRANCH  40  43
ATOM     43  C   UNL     1      31.879  35.202  13.013  1.00  0.00     0.081 C 
ATOM     44  C   UNL     1      32.340  36.477  12.376  1.00  0.00     0.021 C 
ENDBRANCH  40  43
ENDBRANCH  39  40
ENDBRANCH  38  39
ENDBRANCH  36  38
ENDBRANCH  32  33
ENDBRANCH  31  32
ENDBRANCH   2  31
TORSDOF 19
BEGIN_RES LYS A 131
REMARK  4 active torsions:
REMARK  status: ('A' for Active; 'I' for Inactive)
REMARK    1  A    between atoms: CA   and  CB  
REMARK    2  A    between atoms: CB   and  CG  
REMARK    3  A    between atoms: CG   and  CD  
REMARK    4  A    between atoms: CD   and  CE  
ROOT
ATOM      1  CA  LYS A 131      29.867  25.555  16.977  1.00 20.52     0.186 C 
ENDROOT
BRANCH   1   2
ATOM      2  CB  LYS A 131      28.345  25.722  17.026  1.00 20.94     0.034 C 
BRANCH   2   3
ATOM      3  CG  LYS A 131      27.601  24.402  16.895  1.00 22.96     0.005 C 
BRANCH   3   4
ATOM      4  CD  LYS A 131      26.184  24.499  17.387  1.00 24.33     0.041 C 
BRANCH   4   5
ATOM      5  CE  LYS A 131      25.917  23.385  18.394  1.00 26.91     0.338 C 
ATOM      6  NZ  LYS A 131      25.407  23.948  19.667  1.00 27.40     0.618 N 
ENDBRANCH   4   5
ENDBRANCH   3   4
ENDBRANCH   2   3
ENDBRANCH   1   2
END_RES LYS A 131
BEGIN_RES LYS A 135
REMARK  4 active torsions:
REMARK  status: ('A' for Active; 'I' for Inactive)
REMARK    5  A    between atoms: CA   and  CB  
REMARK    6  A    between atoms: CB   and  CG  
REMARK    7  A    between atoms: CG   and  CD  
REMARK    8  A    between atoms: CD   and  CE  
ROOT
ATOM      7  CA  LYS A 135      33.193  34.663   9.290  1.00 25.02     0.186 C 
ENDROOT
BRANCH   7   8
ATOM      8  CB  LYS A 135      32.060  35.360  10.034  1.00 26.63     0.034 C 
BRANCH   8   9
ATOM      9  CG  LYS A 135      30.786  35.459   9.235  1.00 29.45     0.005 C 
BRANCH   9  10
ATOM     10  CD  LYS A 135      30.135  34.092   9.091  1.00 32.00     0.041 C 
BRANCH  10  11
ATOM     11  CE  LYS A 135      28.655  34.235   8.795  1.00 34.25     0.338 C 
ATOM     12  NZ  LYS A 135      28.425  35.131   7.628  1.00 35.99     0.618 N 
ENDBRANCH  10  11
ENDBRANCH   9  10
ENDBRANCH   8   9
ENDBRANCH   7   8
END_RES LYS A 135
