REMARK VINA RESULT:    -6.112      3.138      6.869
REMARK INTER + INTRA:         -15.111
REMARK INTER:                  -9.862
REMARK INTRA:                  -5.249
REMARK UNBOUND:                -4.533
REMARK SMILES CC(=O)N[C@@H]1[C@@H](O)C[C@](O)(C(=O)O)O[C@H]1C(O)[C@H](O)CNC(=O)OCc1cn(-c2cnc3ccccc3c2)nn1
REMARK SMILES IDX 20 1 18 2 16 3 15 4 9 5 8 6 14 7 6 8 5 9 10 10 11 12 12 13
REMARK SMILES IDX 13 14 7 16 4 18 2 19 1 21 3 22 17 23 19 25 21 27 22 28 23 30
REMARK SMILES IDX 24 31 25 32 26 33 27 34 40 35 28 36 39 37 29 38 30 39 38 40
REMARK SMILES IDX 31 41 37 42 32 43 36 44 33 45 35 46 34 47
REMARK H PARENT 10 11 13 15 7 17 4 20 17 24 19 26 21 29
REMARK Flexibility Score: inf
ROOT
ATOM      1  C   UNL     1      30.619  29.915  20.341  1.00  0.00     0.154 C 
ENDROOT
BRANCH   1   2
ATOM      2  C   UNL     1      29.473  29.291  21.087  1.00  0.00     0.165 C 
BRANCH   2   3
ATOM      3  C   UNL     1      29.276  27.830  20.788  1.00  0.00     0.176 C 
BRANCH   3   4
ATOM      4  C   UNL     1      28.137  27.535  19.856  1.00  0.00     0.178 C 
ATOM      5  C   UNL     1      26.885  28.687  18.279  1.00  0.00     0.269 C 
ATOM      6  C   UNL     1      25.965  27.497  18.175  1.00  0.00     0.112 C 
ATOM      7  O   UNL     1      28.135  28.364  18.743  1.00  0.00    -0.332 OA
ATOM      8  C   UNL     1      25.861  26.797  19.488  1.00  0.00     0.145 C 
ATOM      9  C   UNL     1      26.816  27.413  20.534  1.00  0.00     0.142 C 
BRANCH   5  10
ATOM     10  O   UNL     1      26.236  29.664  19.029  1.00  0.00    -0.357 OA
ATOM     11  H   UNL     1      26.366  29.564  19.990  1.00  0.00     0.214 HD
ENDBRANCH   5  10
BRANCH   5  12
ATOM     12  C   UNL     1      27.047  29.238  16.900  1.00  0.00     0.364 C 
ATOM     13  O   UNL     1      26.011  29.412  16.211  1.00  0.00    -0.246 OA
BRANCH  12  14
ATOM     14  O   UNL     1      28.282  29.555  16.364  1.00  0.00    -0.477 OA
ATOM     15  H   UNL     1      28.384  29.663  15.351  1.00  0.00     0.296 HD
ENDBRANCH  12  14
ENDBRANCH   5  12
BRANCH   8  16
ATOM     16  O   UNL     1      24.544  26.849  19.980  1.00  0.00    -0.391 OA
ATOM     17  H   UNL     1      23.968  27.328  19.339  1.00  0.00     0.211 HD
ENDBRANCH   8  16
BRANCH   9  18
ATOM     18  N   UNL     1      26.958  26.451  21.631  1.00  0.00    -0.348 N 
ATOM     19  C   UNL     1      26.173  26.499  22.812  1.00  0.00     0.217 C 
ATOM     20  H   UNL     1      27.661  25.693  21.561  1.00  0.00     0.163 HD
ATOM     21  C   UNL     1      26.335  25.516  23.917  1.00  0.00     0.114 C 
ATOM     22  O   UNL     1      25.301  27.391  22.960  1.00  0.00    -0.275 OA
ENDBRANCH   9  18
ENDBRANCH   3   4
BRANCH   3  23
ATOM     23  O   UNL     1      30.495  27.354  20.264  1.00  0.00    -0.388 OA
ATOM     24  H   UNL     1      31.191  27.994  20.553  1.00  0.00     0.211 HD
ENDBRANCH   3  23
ENDBRANCH   2   3
BRANCH   2  25
ATOM     25  O   UNL     1      28.283  30.015  20.870  1.00  0.00    -0.388 OA
ATOM     26  H   UNL     1      27.711  29.791  21.671  1.00  0.00     0.211 HD
ENDBRANCH   2  25
ENDBRANCH   1   2
BRANCH   1  27
ATOM     27  N   UNL     1      30.199  30.239  18.998  1.00  0.00    -0.319 N 
ATOM     28  C   UNL     1      30.318  31.528  18.440  1.00  0.00     0.407 C 
ATOM     29  H   UNL     1      29.775  29.507  18.363  1.00  0.00     0.167 HD
ATOM     30  O   UNL     1      30.801  32.481  19.085  1.00  0.00    -0.225 OA
BRANCH  28  31
ATOM     31  O   UNL     1      29.906  31.822  17.132  1.00  0.00    -0.443 OA
BRANCH  31  32
ATOM     32  C   UNL     1      30.802  32.492  16.233  1.00  0.00     0.294 C 
BRANCH  32  33
ATOM     33  C   UNL     1      30.121  33.632  15.585  1.00  0.00     0.121 A 
ATOM     34  C   UNL     1      29.632  33.711  14.319  1.00  0.00     0.144 A 
ATOM     35  N   UNL     1      29.877  34.804  16.182  1.00  0.00    -0.131 NA
ATOM     36  N   UNL     1      29.098  34.961  14.195  1.00  0.00    -0.219 N 
ATOM     37  N   UNL     1      29.256  35.602  15.329  1.00  0.00    -0.062 NA
BRANCH  36  38
ATOM     38  C   UNL     1      28.474  35.490  13.041  1.00  0.00     0.085 A 
ATOM     39  C   UNL     1      28.394  36.862  12.889  1.00  0.00     0.140 A 
ATOM     40  C   UNL     1      27.961  34.630  12.097  1.00  0.00     0.040 A 
ATOM     41  N   UNL     1      27.801  37.364  11.794  1.00  0.00    -0.254 NA
ATOM     42  C   UNL     1      27.351  35.169  10.969  1.00  0.00     0.002 A 
ATOM     43  C   UNL     1      27.283  36.541  10.840  1.00  0.00     0.070 A 
ATOM     44  C   UNL     1      26.834  34.342  10.019  1.00  0.00     0.010 A 
ATOM     45  C   UNL     1      26.678  37.079   9.722  1.00  0.00     0.029 A 
ATOM     46  C   UNL     1      26.222  34.877   8.886  1.00  0.00     0.001 A 
ATOM     47  C   UNL     1      26.149  36.242   8.746  1.00  0.00     0.002 A 
ENDBRANCH  36  38
ENDBRANCH  32  33
ENDBRANCH  31  32
ENDBRANCH  28  31
ENDBRANCH   1  27
TORSDOF 15
BEGIN_RES LYS A 131
REMARK  4 active torsions:
REMARK  status: ('A' for Active; 'I' for Inactive)
REMARK    1  A    between atoms: CA   and  CB  
REMARK    2  A    between atoms: CB   and  CG  
REMARK    3  A    between atoms: CG   and  CD  
REMARK    4  A    between atoms: CD   and  CE  
ROOT
ATOM      1  CA  LYS A 131      29.867  25.555  16.977  1.00 20.52     0.186 C 
ENDROOT
BRANCH   1   2
ATOM      2  CB  LYS A 131      28.345  25.722  17.026  1.00 20.94     0.034 C 
BRANCH   2   3
ATOM      3  CG  LYS A 131      27.599  24.478  16.569  1.00 22.96     0.005 C 
BRANCH   3   4
ATOM      4  CD  LYS A 131      26.986  23.730  17.721  1.00 24.33     0.041 C 
BRANCH   4   5
ATOM      5  CE  LYS A 131      25.476  23.639  17.522  1.00 26.91     0.338 C 
ATOM      6  NZ  LYS A 131      25.013  22.243  17.704  1.00 27.40     0.618 N 
ENDBRANCH   4   5
ENDBRANCH   3   4
ENDBRANCH   2   3
ENDBRANCH   1   2
END_RES LYS A 131
BEGIN_RES LYS A 135
REMARK  4 active torsions:
REMARK  status: ('A' for Active; 'I' for Inactive)
REMARK    5  A    between atoms: CA   and  CB  
REMARK    6  A    between atoms: CB   and  CG  
REMARK    7  A    between atoms: CG   and  CD  
REMARK    8  A    between atoms: CD   and  CE  
ROOT
ATOM      7  CA  LYS A 135      33.193  34.663   9.290  1.00 25.02     0.186 C 
ENDROOT
BRANCH   7   8
ATOM      8  CB  LYS A 135      32.060  35.360  10.034  1.00 26.63     0.034 C 
BRANCH   8   9
ATOM      9  CG  LYS A 135      30.748  34.621   9.963  1.00 29.45     0.005 C 
BRANCH   9  10
ATOM     10  CD  LYS A 135      30.302  34.457   8.519  1.00 32.00     0.041 C 
BRANCH  10  11
ATOM     11  CE  LYS A 135      29.742  35.761   7.983  1.00 34.25     0.338 C 
ATOM     12  NZ  LYS A 135      29.034  35.549   6.690  1.00 35.99     0.618 N 
ENDBRANCH  10  11
ENDBRANCH   9  10
ENDBRANCH   8   9
ENDBRANCH   7   8
END_RES LYS A 135
