REMARK VINA RESULT:    -5.070      1.824      3.090
REMARK INTER + INTRA:         -14.570
REMARK INTER:                  -8.646
REMARK INTRA:                  -5.924
REMARK UNBOUND:                -5.796
REMARK SMILES CC(=O)N[C@@H]1[C@@H](O)C[C@](O)(C(=O)O)O[C@H]1C(O)[C@H](O)CNC(=O)OCc1cn(C2CCCCC2)nn1
REMARK SMILES IDX 20 1 18 2 16 3 15 4 9 5 8 6 14 7 6 8 5 9 10 10 11 12 12 13
REMARK SMILES IDX 13 14 7 16 4 18 2 19 1 21 3 22 17 23 19 25 21 27 22 28 23 30
REMARK SMILES IDX 24 31 25 32 26 33 27 34 36 35 28 36 35 37 29 38 30 39 34 40
REMARK SMILES IDX 31 41 33 42 32 43
REMARK H PARENT 10 11 13 15 7 17 4 20 17 24 19 26 21 29
REMARK Flexibility Score: inf
ROOT
ATOM      1  C   UNL     1      29.368  32.097  21.035  1.00  0.00     0.154 C 
ENDROOT
BRANCH   1   2
ATOM      2  C   UNL     1      30.667  31.766  20.316  1.00  0.00     0.165 C 
BRANCH   2   3
ATOM      3  C   UNL     1      30.589  30.329  19.902  1.00  0.00     0.176 C 
BRANCH   3   4
ATOM      4  C   UNL     1      30.276  29.359  21.020  1.00  0.00     0.178 C 
ATOM      5  C   UNL     1      32.225  28.897  22.258  1.00  0.00     0.269 C 
ATOM      6  C   UNL     1      31.959  27.403  22.183  1.00  0.00     0.112 C 
ATOM      7  O   UNL     1      31.052  29.561  22.128  1.00  0.00    -0.332 OA
ATOM      8  C   UNL     1      31.275  27.036  20.892  1.00  0.00     0.145 C 
ATOM      9  C   UNL     1      30.099  27.943  20.595  1.00  0.00     0.142 C 
BRANCH   5  10
ATOM     10  O   UNL     1      33.228  29.266  21.364  1.00  0.00    -0.357 OA
ATOM     11  H   UNL     1      32.833  29.251  20.436  1.00  0.00     0.214 HD
ENDBRANCH   5  10
BRANCH   5  12
ATOM     12  C   UNL     1      32.730  29.135  23.638  1.00  0.00     0.364 C 
ATOM     13  O   UNL     1      33.926  28.892  23.917  1.00  0.00    -0.246 OA
BRANCH  12  14
ATOM     14  O   UNL     1      31.888  29.620  24.596  1.00  0.00    -0.477 OA
ATOM     15  H   UNL     1      31.257  29.054  25.149  1.00  0.00     0.296 HD
ENDBRANCH  12  14
ENDBRANCH   5  12
BRANCH   8  16
ATOM     16  O   UNL     1      32.180  27.002  19.839  1.00  0.00    -0.391 OA
ATOM     17  H   UNL     1      32.568  27.899  19.696  1.00  0.00     0.211 HD
ENDBRANCH   8  16
BRANCH   9  18
ATOM     18  N   UNL     1      28.890  27.361  21.182  1.00  0.00    -0.348 N 
ATOM     19  C   UNL     1      27.724  27.292  20.390  1.00  0.00     0.217 C 
ATOM     20  H   UNL     1      28.873  27.002  22.156  1.00  0.00     0.163 HD
ATOM     21  C   UNL     1      26.442  26.715  20.899  1.00  0.00     0.114 C 
ATOM     22  O   UNL     1      27.686  27.714  19.191  1.00  0.00    -0.275 OA
ENDBRANCH   9  18
ENDBRANCH   3   4
BRANCH   3  23
ATOM     23  O   UNL     1      29.887  30.134  18.742  1.00  0.00    -0.388 OA
ATOM     24  H   UNL     1      30.289  29.424  18.148  1.00  0.00     0.211 HD
ENDBRANCH   3  23
ENDBRANCH   2   3
BRANCH   2  25
ATOM     25  O   UNL     1      31.707  32.087  21.155  1.00  0.00    -0.388 OA
ATOM     26  H   UNL     1      32.347  32.640  20.682  1.00  0.00     0.211 HD
ENDBRANCH   2  25
ENDBRANCH   1   2
BRANCH   1  27
ATOM     27  N   UNL     1      28.406  32.534  20.050  1.00  0.00    -0.319 N 
ATOM     28  C   UNL     1      27.242  31.820  19.672  1.00  0.00     0.407 C 
ATOM     29  H   UNL     1      28.540  33.460  19.539  1.00  0.00     0.167 HD
ATOM     30  O   UNL     1      26.994  30.716  20.213  1.00  0.00    -0.225 OA
BRANCH  28  31
ATOM     31  O   UNL     1      26.365  32.316  18.712  1.00  0.00    -0.443 OA
BRANCH  31  32
ATOM     32  C   UNL     1      26.121  31.577  17.543  1.00  0.00     0.294 C 
BRANCH  32  33
ATOM     33  C   UNL     1      27.396  31.466  16.787  1.00  0.00     0.120 A 
ATOM     34  C   UNL     1      28.091  32.519  16.178  1.00  0.00     0.138 A 
ATOM     35  N   UNL     1      28.151  30.384  16.517  1.00  0.00    -0.132 NA
ATOM     36  N   UNL     1      29.200  32.041  15.587  1.00  0.00    -0.249 N 
ATOM     37  N   UNL     1      29.208  30.738  15.809  1.00  0.00    -0.067 NA
BRANCH  36  38
ATOM     38  C   UNL     1      30.192  32.808  14.846  1.00  0.00     0.109 C 
ATOM     39  C   UNL     1      29.677  34.215  14.639  1.00  0.00     0.027 C 
ATOM     40  C   UNL     1      31.477  32.890  15.640  1.00  0.00     0.027 C 
ATOM     41  C   UNL     1      30.358  35.201  15.570  1.00  0.00     0.002 C 
ATOM     42  C   UNL     1      32.368  33.894  14.929  1.00  0.00     0.002 C 
ATOM     43  C   UNL     1      31.827  35.272  15.254  1.00  0.00     0.000 C 
ENDBRANCH  36  38
ENDBRANCH  32  33
ENDBRANCH  31  32
ENDBRANCH  28  31
ENDBRANCH   1  27
TORSDOF 15
BEGIN_RES LYS A 131
REMARK  4 active torsions:
REMARK  status: ('A' for Active; 'I' for Inactive)
REMARK    1  A    between atoms: CA   and  CB  
REMARK    2  A    between atoms: CB   and  CG  
REMARK    3  A    between atoms: CG   and  CD  
REMARK    4  A    between atoms: CD   and  CE  
ROOT
ATOM      1  CA  LYS A 131      29.867  25.555  16.977  1.00 20.52     0.186 C 
ENDROOT
BRANCH   1   2
ATOM      2  CB  LYS A 131      28.345  25.722  17.026  1.00 20.94     0.034 C 
BRANCH   2   3
ATOM      3  CG  LYS A 131      27.602  24.397  16.945  1.00 22.96     0.005 C 
BRANCH   3   4
ATOM      4  CD  LYS A 131      26.492  24.308  17.954  1.00 24.33     0.041 C 
BRANCH   4   5
ATOM      5  CE  LYS A 131      25.166  24.655  17.285  1.00 26.91     0.338 C 
ATOM      6  NZ  LYS A 131      24.590  25.884  17.881  1.00 27.40     0.618 N 
ENDBRANCH   4   5
ENDBRANCH   3   4
ENDBRANCH   2   3
ENDBRANCH   1   2
END_RES LYS A 131
BEGIN_RES LYS A 135
REMARK  4 active torsions:
REMARK  status: ('A' for Active; 'I' for Inactive)
REMARK    5  A    between atoms: CA   and  CB  
REMARK    6  A    between atoms: CB   and  CG  
REMARK    7  A    between atoms: CG   and  CD  
REMARK    8  A    between atoms: CD   and  CE  
ROOT
ATOM      7  CA  LYS A 135      33.193  34.663   9.290  1.00 25.02     0.186 C 
ENDROOT
BRANCH   7   8
ATOM      8  CB  LYS A 135      32.060  35.360  10.034  1.00 26.63     0.034 C 
BRANCH   8   9
ATOM      9  CG  LYS A 135      30.717  34.704   9.838  1.00 29.45     0.005 C 
BRANCH   9  10
ATOM     10  CD  LYS A 135      30.223  34.908   8.414  1.00 32.00     0.041 C 
BRANCH  10  11
ATOM     11  CE  LYS A 135      28.773  34.482   8.288  1.00 34.25     0.338 C 
ATOM     12  NZ  LYS A 135      28.296  33.826   9.537  1.00 35.99     0.618 N 
ENDBRANCH  10  11
ENDBRANCH   9  10
ENDBRANCH   8   9
ENDBRANCH   7   8
END_RES LYS A 135
