REMARK VINA RESULT:    -3.896      7.526     12.538
REMARK INTER + INTRA:         -14.396
REMARK INTER:                  -8.691
REMARK INTRA:                  -5.705
REMARK UNBOUND:                -7.426
REMARK SMILES CC(=O)N[C@@H]1[C@@H](O)C[C@](O)(C(=O)O)O[C@H]1C(O)[C@H](O)CNC(=O)OCc1cn(Cc2ccccc2Br)nn1
REMARK SMILES IDX 21 1 22 2 23 3 20 5 18 6 16 7 15 8 9 9 8 10 14 11 6 12 5 13
REMARK SMILES IDX 10 14 11 16 12 17 13 18 7 20 4 22 2 23 1 25 3 26 17 27 19 29
REMARK SMILES IDX 24 31 25 32 26 33 27 34 38 35 28 36 37 37 29 38 30 39 31 40
REMARK SMILES IDX 35 41 32 42 34 43 36 44 33 45
REMARK H PARENT 21 4 10 15 13 19 7 21 4 24 17 28 19 30
REMARK Flexibility Score: inf
ROOT
ATOM      1  N   UNL     1      24.468  39.913   6.477  1.00  0.00    -0.319 N 
ATOM      2  C   UNL     1      25.180  40.820   5.685  1.00  0.00     0.407 C 
ATOM      3  O   UNL     1      24.752  42.002   5.568  1.00  0.00    -0.225 OA
ATOM      4  H   UNL     1      24.860  38.933   6.551  1.00  0.00     0.167 HD
ENDROOT
BRANCH   1   5
ATOM      5  C   UNL     1      23.247  40.216   7.192  1.00  0.00     0.154 C 
BRANCH   5   6
ATOM      6  C   UNL     1      23.212  39.429   8.484  1.00  0.00     0.165 C 
BRANCH   6   7
ATOM      7  C   UNL     1      22.620  38.052   8.275  1.00  0.00     0.176 C 
BRANCH   7   8
ATOM      8  C   UNL     1      23.032  37.083   9.366  1.00  0.00     0.178 C 
ATOM      9  C   UNL     1      22.394  36.452  11.518  1.00  0.00     0.269 C 
ATOM     10  C   UNL     1      23.759  36.664  12.054  1.00  0.00     0.112 C 
ATOM     11  O   UNL     1      22.183  37.264  10.415  1.00  0.00    -0.332 OA
ATOM     12  C   UNL     1      24.740  37.348  11.184  1.00  0.00     0.145 C 
ATOM     13  C   UNL     1      24.487  37.233   9.709  1.00  0.00     0.142 C 
BRANCH   9  14
ATOM     14  O   UNL     1      21.455  36.900  12.483  1.00  0.00    -0.357 OA
ATOM     15  H   UNL     1      20.660  36.305  12.510  1.00  0.00     0.214 HD
ENDBRANCH   9  14
BRANCH   9  16
ATOM     16  C   UNL     1      22.122  35.036  11.264  1.00  0.00     0.364 C 
ATOM     17  O   UNL     1      22.872  34.104  11.666  1.00  0.00    -0.246 OA
BRANCH  16  18
ATOM     18  O   UNL     1      20.989  34.680  10.546  1.00  0.00    -0.477 OA
ATOM     19  H   UNL     1      20.932  34.747   9.537  1.00  0.00     0.296 HD
ENDBRANCH  16  18
ENDBRANCH   9  16
BRANCH  12  20
ATOM     20  O   UNL     1      24.873  38.697  11.563  1.00  0.00    -0.391 OA
ATOM     21  H   UNL     1      25.863  38.880  11.491  1.00  0.00     0.211 HD
ENDBRANCH  12  20
BRANCH  13  22
ATOM     22  N   UNL     1      25.305  36.201   9.110  1.00  0.00    -0.348 N 
ATOM     23  C   UNL     1      26.057  36.409   7.927  1.00  0.00     0.217 C 
ATOM     24  H   UNL     1      25.352  35.263   9.556  1.00  0.00     0.163 HD
ATOM     25  C   UNL     1      26.904  35.356   7.298  1.00  0.00     0.114 C 
ATOM     26  O   UNL     1      25.984  37.570   7.399  1.00  0.00    -0.275 OA
ENDBRANCH  13  22
ENDBRANCH   7   8
BRANCH   7  27
ATOM     27  O   UNL     1      22.949  37.585   7.007  1.00  0.00    -0.388 OA
ATOM     28  H   UNL     1      22.449  36.726   6.844  1.00  0.00     0.211 HD
ENDBRANCH   7  27
ENDBRANCH   6   7
BRANCH   6  29
ATOM     29  O   UNL     1      22.393  40.185   9.357  1.00  0.00    -0.388 OA
ATOM     30  H   UNL     1      22.824  40.352  10.210  1.00  0.00     0.211 HD
ENDBRANCH   6  29
ENDBRANCH   5   6
ENDBRANCH   1   5
BRANCH   2  31
ATOM     31  O   UNL     1      26.350  40.519   5.003  1.00  0.00    -0.443 OA
BRANCH  31  32
ATOM     32  C   UNL     1      27.606  40.896   5.540  1.00  0.00     0.294 C 
BRANCH  32  33
ATOM     33  C   UNL     1      28.355  39.725   6.043  1.00  0.00     0.120 A 
ATOM     34  C   UNL     1      29.056  39.631   7.254  1.00  0.00     0.138 A 
ATOM     35  N   UNL     1      28.533  38.526   5.478  1.00  0.00    -0.132 NA
ATOM     36  N   UNL     1      29.615  38.440   7.385  1.00  0.00    -0.248 N 
ATOM     37  N   UNL     1      29.271  37.769   6.261  1.00  0.00    -0.067 NA
BRANCH  36  38
ATOM     38  C   UNL     1      30.437  37.815   8.394  1.00  0.00     0.182 C 
BRANCH  38  39
ATOM     39  C   UNL     1      29.920  36.574   8.956  1.00  0.00    -0.012 A 
ATOM     40  C   UNL     1      30.325  35.334   8.454  1.00  0.00     0.007 A 
ATOM     41  C   UNL     1      29.051  36.557  10.008  1.00  0.00     0.023 A 
ATOM     42  C   UNL     1      29.854  34.179   9.015  1.00  0.00     0.000 A 
ATOM     43  C   UNL     1      28.578  35.387  10.572  1.00  0.00     0.016 A 
ATOM     44  Br  UNL     1      28.373  38.198  10.765  1.00  0.00    -0.050 Br
ATOM     45  C   UNL     1      28.981  34.173  10.074  1.00  0.00     0.001 A 
ENDBRANCH  38  39
ENDBRANCH  36  38
ENDBRANCH  32  33
ENDBRANCH  31  32
ENDBRANCH   2  31
TORSDOF 16
BEGIN_RES LYS A 131
REMARK  4 active torsions:
REMARK  status: ('A' for Active; 'I' for Inactive)
REMARK    1  A    between atoms: CA   and  CB  
REMARK    2  A    between atoms: CB   and  CG  
REMARK    3  A    between atoms: CG   and  CD  
REMARK    4  A    between atoms: CD   and  CE  
ROOT
ATOM      1  CA  LYS A 131      29.867  25.555  16.977  1.00 20.52     0.186 C 
ENDROOT
BRANCH   1   2
ATOM      2  CB  LYS A 131      28.345  25.722  17.026  1.00 20.94     0.034 C 
BRANCH   2   3
ATOM      3  CG  LYS A 131      27.600  24.418  16.787  1.00 22.96     0.005 C 
BRANCH   3   4
ATOM      4  CD  LYS A 131      26.871  23.948  18.016  1.00 24.33     0.041 C 
BRANCH   4   5
ATOM      5  CE  LYS A 131      25.517  24.644  18.102  1.00 26.91     0.338 C 
ATOM      6  NZ  LYS A 131      24.717  24.377  16.883  1.00 27.40     0.618 N 
ENDBRANCH   4   5
ENDBRANCH   3   4
ENDBRANCH   2   3
ENDBRANCH   1   2
END_RES LYS A 131
BEGIN_RES LYS A 135
REMARK  4 active torsions:
REMARK  status: ('A' for Active; 'I' for Inactive)
REMARK    5  A    between atoms: CA   and  CB  
REMARK    6  A    between atoms: CB   and  CG  
REMARK    7  A    between atoms: CG   and  CD  
REMARK    8  A    between atoms: CD   and  CE  
ROOT
ATOM      7  CA  LYS A 135      33.193  34.663   9.290  1.00 25.02     0.186 C 
ENDROOT
BRANCH   7   8
ATOM      8  CB  LYS A 135      32.060  35.360  10.034  1.00 26.63     0.034 C 
BRANCH   8   9
ATOM      9  CG  LYS A 135      32.497  36.017  11.318  1.00 29.45     0.005 C 
BRANCH   9  10
ATOM     10  CD  LYS A 135      31.752  35.425  12.504  1.00 32.00     0.041 C 
BRANCH  10  11
ATOM     11  CE  LYS A 135      32.409  35.840  13.807  1.00 34.25     0.338 C 
ATOM     12  NZ  LYS A 135      33.425  34.841  14.238  1.00 35.99     0.618 N 
ENDBRANCH  10  11
ENDBRANCH   9  10
ENDBRANCH   8   9
ENDBRANCH   7   8
END_RES LYS A 135
