REMARK VINA RESULT:    -5.207      4.087      8.455
REMARK INTER + INTRA:         -15.015
REMARK INTER:                  -9.656
REMARK INTRA:                  -5.359
REMARK UNBOUND:                -4.785
REMARK SMILES C=CCCCCn1cc(COC(=O)NC[C@@H](O)C(O)[C@@H]2O[C@@](O)(C(=O)O)C[C@H](O)[C@H]2NC(C)=O)nn1
REMARK SMILES IDX 11 1 12 2 14 3 13 5 15 6 16 7 18 8 20 9 22 10 27 11 21 12
REMARK SMILES IDX 28 13 30 14 23 15 24 17 25 18 26 19 29 21 31 23 32 24 33 26
REMARK SMILES IDX 34 27 19 28 17 30 10 32 9 33 8 34 35 35 7 36 36 37 6 38 5 39
REMARK SMILES IDX 4 40 3 41 2 42 1 43
REMARK H PARENT 14 4 23 16 26 20 29 22 31 25 19 29 17 31
REMARK Flexibility Score: inf
ROOT
ATOM      1  O   UNL     1      29.595  34.289  13.060  1.00  0.00    -0.443 OA
ENDROOT
BRANCH   1   2
ATOM      2  C   UNL     1      30.457  33.900  14.067  1.00  0.00     0.407 C 
ATOM      3  N   UNL     1      30.201  32.638  14.697  1.00  0.00    -0.319 N 
ATOM      4  H   UNL     1      29.389  32.079  14.372  1.00  0.00     0.167 HD
ATOM      5  O   UNL     1      31.441  34.625  14.426  1.00  0.00    -0.225 OA
BRANCH   3   6
ATOM      6  C   UNL     1      31.026  32.141  15.745  1.00  0.00     0.154 C 
BRANCH   6   7
ATOM      7  C   UNL     1      30.312  31.163  16.681  1.00  0.00     0.165 C 
BRANCH   7   8
ATOM      8  C   UNL     1      28.879  31.123  16.214  1.00  0.00     0.176 C 
BRANCH   8   9
ATOM      9  C   UNL     1      27.900  30.763  17.284  1.00  0.00     0.178 C 
ATOM     10  C   UNL     1      27.342  28.797  18.385  1.00  0.00     0.269 C 
ATOM     11  C   UNL     1      26.113  29.574  18.809  1.00  0.00     0.112 C 
ATOM     12  O   UNL     1      28.339  29.667  17.978  1.00  0.00    -0.332 OA
ATOM     13  C   UNL     1      25.481  30.138  17.558  1.00  0.00     0.145 C 
ATOM     14  C   UNL     1      26.569  30.488  16.570  1.00  0.00     0.142 C 
BRANCH  10  15
ATOM     15  O   UNL     1      27.028  27.855  17.411  1.00  0.00    -0.357 OA
ATOM     16  H   UNL     1      26.199  27.383  17.649  1.00  0.00     0.214 HD
ENDBRANCH  10  15
BRANCH  10  17
ATOM     17  C   UNL     1      27.811  28.049  19.579  1.00  0.00     0.364 C 
ATOM     18  O   UNL     1      27.711  28.512  20.744  1.00  0.00    -0.246 OA
BRANCH  17  19
ATOM     19  O   UNL     1      28.395  26.776  19.478  1.00  0.00    -0.477 OA
ATOM     20  H   UNL     1      29.253  26.613  20.000  1.00  0.00     0.296 HD
ENDBRANCH  17  19
ENDBRANCH  10  17
BRANCH  13  21
ATOM     21  O   UNL     1      24.685  29.167  16.979  1.00  0.00    -0.391 OA
ATOM     22  H   UNL     1      24.176  29.558  16.227  1.00  0.00     0.211 HD
ENDBRANCH  13  21
BRANCH  14  23
ATOM     23  N   UNL     1      26.234  31.671  15.797  1.00  0.00    -0.348 N 
ATOM     24  C   UNL     1      25.357  31.648  14.676  1.00  0.00     0.217 C 
ATOM     25  H   UNL     1      26.632  32.623  16.035  1.00  0.00     0.163 HD
ATOM     26  C   UNL     1      25.021  32.871  13.888  1.00  0.00     0.114 C 
ATOM     27  O   UNL     1      24.866  30.527  14.365  1.00  0.00    -0.275 OA
ENDBRANCH  14  23
ENDBRANCH   8   9
BRANCH   8  28
ATOM     28  O   UNL     1      28.848  30.228  15.132  1.00  0.00    -0.388 OA
ATOM     29  H   UNL     1      29.332  30.587  14.346  1.00  0.00     0.211 HD
ENDBRANCH   8  28
ENDBRANCH   7   8
BRANCH   7  30
ATOM     30  O   UNL     1      30.461  31.522  18.003  1.00  0.00    -0.388 OA
ATOM     31  H   UNL     1      31.328  31.328  18.397  1.00  0.00     0.211 HD
ENDBRANCH   7  30
ENDBRANCH   6   7
ENDBRANCH   3   6
ENDBRANCH   1   2
BRANCH   1  32
ATOM     32  C   UNL     1      28.257  34.598  13.351  1.00  0.00     0.294 C 
BRANCH  32  33
ATOM     33  C   UNL     1      27.698  35.276  12.135  1.00  0.00     0.120 A 
ATOM     34  C   UNL     1      26.989  34.618  11.143  1.00  0.00     0.138 A 
ATOM     35  N   UNL     1      27.748  36.554  11.760  1.00  0.00    -0.132 NA
ATOM     36  N   UNL     1      26.637  35.512  10.210  1.00  0.00    -0.252 N 
ATOM     37  N   UNL     1      27.110  36.677  10.609  1.00  0.00    -0.067 NA
BRANCH  36  38
ATOM     38  C   UNL     1      25.887  35.319   8.977  1.00  0.00     0.146 C 
BRANCH  38  39
ATOM     39  C   UNL     1      24.438  35.662   9.200  1.00  0.00     0.024 C 
BRANCH  39  40
ATOM     40  C   UNL     1      24.097  37.014   8.625  1.00  0.00     0.006 C 
BRANCH  40  41
ATOM     41  C   UNL     1      22.794  37.002   7.868  1.00  0.00     0.027 C 
BRANCH  41  42
ATOM     42  C   UNL     1      21.774  36.242   8.625  1.00  0.00    -0.035 C 
ATOM     43  C   UNL     1      20.940  35.402   8.053  1.00  0.00     0.004 C 
ENDBRANCH  41  42
ENDBRANCH  40  41
ENDBRANCH  39  40
ENDBRANCH  38  39
ENDBRANCH  36  38
ENDBRANCH  32  33
ENDBRANCH   1  32
TORSDOF 19
BEGIN_RES LYS A 131
REMARK  4 active torsions:
REMARK  status: ('A' for Active; 'I' for Inactive)
REMARK    1  A    between atoms: CA   and  CB  
REMARK    2  A    between atoms: CB   and  CG  
REMARK    3  A    between atoms: CG   and  CD  
REMARK    4  A    between atoms: CD   and  CE  
ROOT
ATOM      1  CA  LYS A 131      29.867  25.555  16.977  1.00 20.52     0.186 C 
ENDROOT
BRANCH   1   2
ATOM      2  CB  LYS A 131      28.345  25.722  17.026  1.00 20.94     0.034 C 
BRANCH   2   3
ATOM      3  CG  LYS A 131      27.599  24.431  16.724  1.00 22.96     0.005 C 
BRANCH   3   4
ATOM      4  CD  LYS A 131      26.929  23.865  17.945  1.00 24.33     0.041 C 
BRANCH   4   5
ATOM      5  CE  LYS A 131      25.583  23.263  17.554  1.00 26.91     0.338 C 
ATOM      6  NZ  LYS A 131      24.710  24.294  16.946  1.00 27.40     0.618 N 
ENDBRANCH   4   5
ENDBRANCH   3   4
ENDBRANCH   2   3
ENDBRANCH   1   2
END_RES LYS A 131
BEGIN_RES LYS A 135
REMARK  4 active torsions:
REMARK  status: ('A' for Active; 'I' for Inactive)
REMARK    5  A    between atoms: CA   and  CB  
REMARK    6  A    between atoms: CB   and  CG  
REMARK    7  A    between atoms: CG   and  CD  
REMARK    8  A    between atoms: CD   and  CE  
ROOT
ATOM      7  CA  LYS A 135      33.193  34.663   9.290  1.00 25.02     0.186 C 
ENDROOT
BRANCH   7   8
ATOM      8  CB  LYS A 135      32.060  35.360  10.034  1.00 26.63     0.034 C 
BRANCH   8   9
ATOM      9  CG  LYS A 135      30.697  34.802   9.715  1.00 29.45     0.005 C 
BRANCH   9  10
ATOM     10  CD  LYS A 135      30.590  34.458   8.238  1.00 32.00     0.041 C 
BRANCH  10  11
ATOM     11  CE  LYS A 135      29.352  35.090   7.632  1.00 34.25     0.338 C 
ATOM     12  NZ  LYS A 135      29.316  36.556   7.892  1.00 35.99     0.618 N 
ENDBRANCH  10  11
ENDBRANCH   9  10
ENDBRANCH   8   9
ENDBRANCH   7   8
END_RES LYS A 135
