REMARK VINA RESULT:    -5.442      2.566      4.174
REMARK INTER + INTRA:         -14.963
REMARK INTER:                  -9.750
REMARK INTRA:                  -5.214
REMARK UNBOUND:                -5.226
REMARK SMILES COc1ccc(-n2cc(COC(=O)NC[C@@H](O)C(O)[C@@H]3O[C@@](O)(C(=O)O)C[C@H](O)[C@H]3NC(C)=O)nn2)cc1
REMARK SMILES IDX 14 1 12 2 13 3 15 5 16 6 18 7 20 8 22 9 27 10 21 11 28 12
REMARK SMILES IDX 30 13 23 14 24 16 25 17 26 18 29 20 31 22 32 23 33 25 34 26
REMARK SMILES IDX 19 27 17 29 11 31 10 32 9 33 8 34 35 35 7 36 36 37 6 38 5 39
REMARK SMILES IDX 37 40 4 41 38 42 3 43 2 44 1 45
REMARK H PARENT 14 4 23 15 26 19 29 21 31 24 19 28 17 30
REMARK Flexibility Score: inf
ROOT
ATOM      1  N   UNL     1      25.636  28.637  18.780  1.00  0.00    -0.319 N 
ATOM      2  C   UNL     1      24.727  28.639  17.700  1.00  0.00     0.407 C 
ATOM      3  O   UNL     1      24.159  27.608  17.309  1.00  0.00    -0.225 OA
ATOM      4  H   UNL     1      26.072  29.591  18.991  1.00  0.00     0.167 HD
ENDROOT
BRANCH   1   5
ATOM      5  C   UNL     1      26.034  27.565  19.600  1.00  0.00     0.154 C 
BRANCH   5   6
ATOM      6  C   UNL     1      27.380  27.534  20.166  1.00  0.00     0.165 C 
BRANCH   6   7
ATOM      7  C   UNL     1      28.141  28.757  20.301  1.00  0.00     0.176 C 
BRANCH   7   8
ATOM      8  C   UNL     1      29.369  28.697  21.235  1.00  0.00     0.178 C 
ATOM      9  C   UNL     1      31.546  27.906  20.790  1.00  0.00     0.269 C 
ATOM     10  C   UNL     1      31.234  26.575  21.491  1.00  0.00     0.112 C 
ATOM     11  O   UNL     1      30.385  28.396  20.345  1.00  0.00    -0.332 OA
ATOM     12  C   UNL     1      30.438  26.923  22.689  1.00  0.00     0.145 C 
ATOM     13  C   UNL     1      29.221  27.816  22.387  1.00  0.00     0.142 C 
BRANCH   9  14
ATOM     14  O   UNL     1      32.253  27.492  19.628  1.00  0.00    -0.357 OA
ATOM     15  H   UNL     1      32.690  26.618  19.773  1.00  0.00     0.214 HD
ENDBRANCH   9  14
BRANCH   9  16
ATOM     16  C   UNL     1      32.419  28.778  21.551  1.00  0.00     0.364 C 
ATOM     17  O   UNL     1      32.260  30.024  21.515  1.00  0.00    -0.246 OA
BRANCH  16  18
ATOM     18  O   UNL     1      33.474  28.362  22.364  1.00  0.00    -0.477 OA
ATOM     19  H   UNL     1      34.116  29.022  22.809  1.00  0.00     0.296 HD
ENDBRANCH  16  18
ENDBRANCH   9  16
BRANCH  12  20
ATOM     20  O   UNL     1      29.941  25.807  23.381  1.00  0.00    -0.391 OA
ATOM     21  H   UNL     1      30.407  25.018  22.959  1.00  0.00     0.211 HD
ENDBRANCH  12  20
BRANCH  13  22
ATOM     22  N   UNL     1      28.973  28.419  23.661  1.00  0.00    -0.348 N 
ATOM     23  C   UNL     1      27.986  28.083  24.587  1.00  0.00     0.217 C 
ATOM     24  H   UNL     1      29.630  29.217  23.913  1.00  0.00     0.163 HD
ATOM     25  C   UNL     1      27.846  28.814  25.885  1.00  0.00     0.114 C 
ATOM     26  O   UNL     1      27.226  27.154  24.291  1.00  0.00    -0.275 OA
ENDBRANCH  13  22
ENDBRANCH   7   8
BRANCH   7  27
ATOM     27  O   UNL     1      28.507  29.239  19.049  1.00  0.00    -0.388 OA
ATOM     28  H   UNL     1      28.844  28.524  18.453  1.00  0.00     0.211 HD
ENDBRANCH   7  27
ENDBRANCH   6   7
BRANCH   6  29
ATOM     29  O   UNL     1      28.123  26.475  19.572  1.00  0.00    -0.388 OA
ATOM     30  H   UNL     1      28.905  26.844  19.083  1.00  0.00     0.211 HD
ENDBRANCH   6  29
ENDBRANCH   5   6
ENDBRANCH   1   5
BRANCH   2  31
ATOM     31  O   UNL     1      24.421  29.829  17.009  1.00  0.00    -0.443 OA
BRANCH  31  32
ATOM     32  C   UNL     1      24.960  30.048  15.729  1.00  0.00     0.294 C 
BRANCH  32  33
ATOM     33  C   UNL     1      26.415  30.243  15.830  1.00  0.00     0.121 A 
ATOM     34  C   UNL     1      27.066  31.422  15.448  1.00  0.00     0.144 A 
ATOM     35  N   UNL     1      27.384  29.441  16.263  1.00  0.00    -0.131 NA
ATOM     36  N   UNL     1      28.385  31.270  15.669  1.00  0.00    -0.220 N 
ATOM     37  N   UNL     1      28.538  30.046  16.168  1.00  0.00    -0.062 NA
BRANCH  36  38
ATOM     38  C   UNL     1      29.414  32.218  15.425  1.00  0.00     0.067 A 
ATOM     39  C   UNL     1      29.178  33.457  14.875  1.00  0.00     0.032 A 
ATOM     40  C   UNL     1      30.740  31.919  15.746  1.00  0.00     0.032 A 
ATOM     41  C   UNL     1      30.199  34.372  14.646  1.00  0.00     0.048 A 
ATOM     42  C   UNL     1      31.753  32.830  15.517  1.00  0.00     0.048 A 
ATOM     43  C   UNL     1      31.499  34.064  14.967  1.00  0.00     0.119 A 
BRANCH  43  44
ATOM     44  O   UNL     1      32.496  34.965  14.741  1.00  0.00    -0.497 OA
ATOM     45  C   UNL     1      32.733  35.440  13.433  1.00  0.00     0.278 C 
ENDBRANCH  43  44
ENDBRANCH  36  38
ENDBRANCH  32  33
ENDBRANCH  31  32
ENDBRANCH   2  31
TORSDOF 16
BEGIN_RES LYS A 131
REMARK  4 active torsions:
REMARK  status: ('A' for Active; 'I' for Inactive)
REMARK    1  A    between atoms: CA   and  CB  
REMARK    2  A    between atoms: CB   and  CG  
REMARK    3  A    between atoms: CG   and  CD  
REMARK    4  A    between atoms: CD   and  CE  
ROOT
ATOM      1  CA  LYS A 131      29.867  25.555  16.977  1.00 20.52     0.186 C 
ENDROOT
BRANCH   1   2
ATOM      2  CB  LYS A 131      28.345  25.722  17.026  1.00 20.94     0.034 C 
BRANCH   2   3
ATOM      3  CG  LYS A 131      27.601  24.401  16.903  1.00 22.96     0.005 C 
BRANCH   3   4
ATOM      4  CD  LYS A 131      26.155  24.527  17.294  1.00 24.33     0.041 C 
BRANCH   4   5
ATOM      5  CE  LYS A 131      25.800  23.431  18.294  1.00 26.91     0.338 C 
ATOM      6  NZ  LYS A 131      25.103  22.314  17.614  1.00 27.40     0.618 N 
ENDBRANCH   4   5
ENDBRANCH   3   4
ENDBRANCH   2   3
ENDBRANCH   1   2
END_RES LYS A 131
BEGIN_RES LYS A 135
REMARK  4 active torsions:
REMARK  status: ('A' for Active; 'I' for Inactive)
REMARK    5  A    between atoms: CA   and  CB  
REMARK    6  A    between atoms: CB   and  CG  
REMARK    7  A    between atoms: CG   and  CD  
REMARK    8  A    between atoms: CD   and  CE  
ROOT
ATOM      7  CA  LYS A 135      33.193  34.663   9.290  1.00 25.02     0.186 C 
ENDROOT
BRANCH   7   8
ATOM      8  CB  LYS A 135      32.060  35.360  10.034  1.00 26.63     0.034 C 
BRANCH   8   9
ATOM      9  CG  LYS A 135      30.752  34.615   9.974  1.00 29.45     0.005 C 
BRANCH   9  10
ATOM     10  CD  LYS A 135      30.288  34.459   8.534  1.00 32.00     0.041 C 
BRANCH  10  11
ATOM     11  CE  LYS A 135      29.615  35.729   8.051  1.00 34.25     0.338 C 
ATOM     12  NZ  LYS A 135      28.883  35.497   6.775  1.00 35.99     0.618 N 
ENDBRANCH  10  11
ENDBRANCH   9  10
ENDBRANCH   8   9
ENDBRANCH   7   8
END_RES LYS A 135
