REMARK VINA RESULT:    -5.701      3.882      6.787
REMARK INTER + INTRA:         -14.262
REMARK INTER:                  -7.604
REMARK INTRA:                  -6.658
REMARK UNBOUND:                -4.396
REMARK SMILES CC(=O)N[C@@H]1[C@@H](O)C[C@](O)(C(=O)O)O[C@H]1C(O)[C@H](O)CNC(=O)OCc1cn(-c2ccccc2Br)nn1
REMARK SMILES IDX 20 1 18 2 16 3 15 4 9 5 8 6 14 7 6 8 5 9 10 10 11 12 12 13
REMARK SMILES IDX 13 14 7 16 4 18 2 19 1 21 3 22 17 23 19 25 21 27 22 28 23 30
REMARK SMILES IDX 24 31 25 32 26 33 27 34 37 35 28 36 36 37 29 38 30 39 34 40
REMARK SMILES IDX 31 41 33 42 35 43 32 44
REMARK H PARENT 10 11 13 15 7 17 4 20 17 24 19 26 21 29
REMARK Flexibility Score: inf
ROOT
ATOM      1  C   UNL     1      26.641  35.229  16.045  1.00  0.00     0.154 C 
ENDROOT
BRANCH   1   2
ATOM      2  C   UNL     1      27.982  34.558  15.898  1.00  0.00     0.165 C 
BRANCH   2   3
ATOM      3  C   UNL     1      29.042  35.606  16.036  1.00  0.00     0.176 C 
BRANCH   3   4
ATOM      4  C   UNL     1      30.437  35.095  16.307  1.00  0.00     0.178 C 
ATOM      5  C   UNL     1      31.587  34.892  14.274  1.00  0.00     0.269 C 
ATOM      6  C   UNL     1      32.486  33.801  14.857  1.00  0.00     0.112 C 
ATOM      7  O   UNL     1      31.233  35.670  15.324  1.00  0.00    -0.332 OA
ATOM      8  C   UNL     1      31.572  32.916  15.654  1.00  0.00     0.145 C 
ATOM      9  C   UNL     1      30.569  33.648  16.506  1.00  0.00     0.142 C 
BRANCH   5  10
ATOM     10  O   UNL     1      30.579  34.257  13.593  1.00  0.00    -0.357 OA
ATOM     11  H   UNL     1      30.018  34.952  13.168  1.00  0.00     0.214 HD
ENDBRANCH   5  10
BRANCH   5  12
ATOM     12  C   UNL     1      32.375  35.699  13.301  1.00  0.00     0.364 C 
ATOM     13  O   UNL     1      32.190  36.940  13.248  1.00  0.00    -0.246 OA
BRANCH  12  14
ATOM     14  O   UNL     1      33.309  35.111  12.455  1.00  0.00    -0.477 OA
ATOM     15  H   UNL     1      33.147  34.229  11.976  1.00  0.00     0.296 HD
ENDBRANCH  12  14
ENDBRANCH   5  12
BRANCH   8  16
ATOM     16  O   UNL     1      30.902  32.109  14.733  1.00  0.00    -0.391 OA
ATOM     17  H   UNL     1      30.561  32.626  13.983  1.00  0.00     0.211 HD
ENDBRANCH   8  16
BRANCH   9  18
ATOM     18  N   UNL     1      30.907  33.405  17.924  1.00  0.00    -0.348 N 
ATOM     19  C   UNL     1      30.322  32.343  18.648  1.00  0.00     0.217 C 
ATOM     20  H   UNL     1      31.602  34.033  18.422  1.00  0.00     0.163 HD
ATOM     21  C   UNL     1      30.653  32.096  20.093  1.00  0.00     0.114 C 
ATOM     22  O   UNL     1      29.505  31.598  18.051  1.00  0.00    -0.275 OA
ENDBRANCH   9  18
ENDBRANCH   3   4
BRANCH   3  23
ATOM     23  O   UNL     1      28.943  36.533  15.031  1.00  0.00    -0.388 OA
ATOM     24  H   UNL     1      28.599  36.141  14.173  1.00  0.00     0.211 HD
ENDBRANCH   3  23
ENDBRANCH   2   3
BRANCH   2  25
ATOM     25  O   UNL     1      28.066  33.930  14.682  1.00  0.00    -0.388 OA
ATOM     26  H   UNL     1      27.468  34.335  13.995  1.00  0.00     0.211 HD
ENDBRANCH   2  25
ENDBRANCH   1   2
BRANCH   1  27
ATOM     27  N   UNL     1      26.188  36.009  14.943  1.00  0.00    -0.319 N 
ATOM     28  C   UNL     1      25.405  35.506  13.881  1.00  0.00     0.407 C 
ATOM     29  H   UNL     1      26.440  37.051  14.882  1.00  0.00     0.167 HD
ATOM     30  O   UNL     1      25.039  34.311  13.798  1.00  0.00    -0.225 OA
BRANCH  28  31
ATOM     31  O   UNL     1      25.015  36.389  12.863  1.00  0.00    -0.443 OA
BRANCH  31  32
ATOM     32  C   UNL     1      25.561  36.182  11.581  1.00  0.00     0.294 C 
BRANCH  32  33
ATOM     33  C   UNL     1      27.017  36.458  11.654  1.00  0.00     0.121 A 
ATOM     34  C   UNL     1      27.663  37.492  10.964  1.00  0.00     0.144 A 
ATOM     35  N   UNL     1      28.005  35.854  12.325  1.00  0.00    -0.131 NA
ATOM     36  N   UNL     1      28.979  37.472  11.237  1.00  0.00    -0.219 N 
ATOM     37  N   UNL     1      29.159  36.461  12.070  1.00  0.00    -0.062 NA
BRANCH  36  38
ATOM     38  C   UNL     1      29.962  38.369  10.721  1.00  0.00     0.081 A 
ATOM     39  C   UNL     1      30.516  38.197   9.472  1.00  0.00     0.029 A 
ATOM     40  C   UNL     1      30.397  39.449  11.459  1.00  0.00     0.043 A 
ATOM     41  C   UNL     1      31.477  39.084   8.983  1.00  0.00     0.002 A 
ATOM     42  C   UNL     1      31.350  40.333  10.977  1.00  0.00     0.018 A 
ATOM     43  Br  UNL     1      29.631  39.698  13.202  1.00  0.00    -0.048 Br
ATOM     44  C   UNL     1      31.906  40.163   9.727  1.00  0.00     0.001 A 
ENDBRANCH  36  38
ENDBRANCH  32  33
ENDBRANCH  31  32
ENDBRANCH  28  31
ENDBRANCH   1  27
TORSDOF 15
BEGIN_RES LYS A 131
REMARK  4 active torsions:
REMARK  status: ('A' for Active; 'I' for Inactive)
REMARK    1  A    between atoms: CA   and  CB  
REMARK    2  A    between atoms: CB   and  CG  
REMARK    3  A    between atoms: CG   and  CD  
REMARK    4  A    between atoms: CD   and  CE  
ROOT
ATOM      1  CA  LYS A 131      29.867  25.555  16.977  1.00 20.52     0.186 C 
ENDROOT
BRANCH   1   2
ATOM      2  CB  LYS A 131      28.345  25.722  17.026  1.00 20.94     0.034 C 
BRANCH   2   3
ATOM      3  CG  LYS A 131      27.602  24.398  16.939  1.00 22.96     0.005 C 
BRANCH   3   4
ATOM      4  CD  LYS A 131      26.503  24.296  17.960  1.00 24.33     0.041 C 
BRANCH   4   5
ATOM      5  CE  LYS A 131      25.365  23.449  17.401  1.00 26.91     0.338 C 
ATOM      6  NZ  LYS A 131      24.255  24.313  16.934  1.00 27.40     0.618 N 
ENDBRANCH   4   5
ENDBRANCH   3   4
ENDBRANCH   2   3
ENDBRANCH   1   2
END_RES LYS A 131
BEGIN_RES LYS A 135
REMARK  4 active torsions:
REMARK  status: ('A' for Active; 'I' for Inactive)
REMARK    5  A    between atoms: CA   and  CB  
REMARK    6  A    between atoms: CB   and  CG  
REMARK    7  A    between atoms: CG   and  CD  
REMARK    8  A    between atoms: CD   and  CE  
ROOT
ATOM      7  CA  LYS A 135      33.193  34.663   9.290  1.00 25.02     0.186 C 
ENDROOT
BRANCH   7   8
ATOM      8  CB  LYS A 135      32.060  35.360  10.034  1.00 26.63     0.034 C 
BRANCH   8   9
ATOM      9  CG  LYS A 135      30.764  34.592  10.014  1.00 29.45     0.005 C 
BRANCH   9  10
ATOM     10  CD  LYS A 135      30.294  34.369   8.585  1.00 32.00     0.041 C 
BRANCH  10  11
ATOM     11  CE  LYS A 135      28.789  34.535   8.487  1.00 34.25     0.338 C 
ATOM     12  NZ  LYS A 135      28.093  33.751   9.544  1.00 35.99     0.618 N 
ENDBRANCH  10  11
ENDBRANCH   9  10
ENDBRANCH   8   9
ENDBRANCH   7   8
END_RES LYS A 135
