REMARK VINA RESULT:    -3.867      2.219      4.529
REMARK INTER + INTRA:         -13.393
REMARK INTER:                  -5.950
REMARK INTRA:                  -7.443
REMARK UNBOUND:                -6.362
REMARK SMILES CC(=O)N[C@@H]1[C@@H](O)C[C@](O)(C(=O)O)O[C@H]1C(O)[C@H](O)CNC(=O)OCc1cn(CC(=O)O)nn1
REMARK SMILES IDX 21 1 22 2 23 3 20 5 18 6 16 7 15 8 9 9 8 10 14 11 6 12 5 13
REMARK SMILES IDX 10 14 11 16 12 17 13 18 7 20 4 22 2 23 1 25 3 26 17 27 19 29
REMARK SMILES IDX 24 31 25 32 26 33 27 34 34 35 28 36 33 37 29 38 30 39 31 40
REMARK SMILES IDX 32 41
REMARK H PARENT 21 4 10 15 13 19 7 21 4 24 17 28 19 30 32 42
REMARK Flexibility Score: inf
ROOT
ATOM      1  N   UNL     1      25.323  36.011  17.875  1.00  0.00    -0.319 N 
ATOM      2  C   UNL     1      25.181  37.204  17.141  1.00  0.00     0.407 C 
ATOM      3  O   UNL     1      26.046  38.079  17.137  1.00  0.00    -0.225 OA
ATOM      4  H   UNL     1      24.507  35.332  17.787  1.00  0.00     0.167 HD
ENDROOT
BRANCH   1   5
ATOM      5  C   UNL     1      26.435  35.639  18.709  1.00  0.00     0.154 C 
BRANCH   5   6
ATOM      6  C   UNL     1      27.214  34.443  18.261  1.00  0.00     0.165 C 
BRANCH   6   7
ATOM      7  C   UNL     1      28.343  34.763  17.355  1.00  0.00     0.176 C 
BRANCH   7   8
ATOM      8  C   UNL     1      28.981  33.582  16.676  1.00  0.00     0.178 C 
ATOM      9  C   UNL     1      29.415  31.297  17.033  1.00  0.00     0.269 C 
ATOM     10  C   UNL     1      30.713  31.369  16.299  1.00  0.00     0.112 C 
ATOM     11  O   UNL     1      28.881  32.449  17.496  1.00  0.00    -0.332 OA
ATOM     12  C   UNL     1      30.762  32.574  15.413  1.00  0.00     0.145 C 
ATOM     13  C   UNL     1      30.435  33.767  16.332  1.00  0.00     0.142 C 
BRANCH   9  14
ATOM     14  O   UNL     1      29.616  30.373  18.101  1.00  0.00    -0.357 OA
ATOM     15  H   UNL     1      30.550  30.532  18.406  1.00  0.00     0.214 HD
ENDBRANCH   9  14
BRANCH   9  16
ATOM     16  C   UNL     1      28.423  30.611  16.151  1.00  0.00     0.364 C 
ATOM     17  O   UNL     1      27.216  30.916  16.071  1.00  0.00    -0.246 OA
BRANCH  16  18
ATOM     18  O   UNL     1      28.860  29.566  15.364  1.00  0.00    -0.477 OA
ATOM     19  H   UNL     1      28.236  29.017  14.777  1.00  0.00     0.296 HD
ENDBRANCH  16  18
ENDBRANCH   9  16
BRANCH  12  20
ATOM     20  O   UNL     1      32.007  32.753  14.818  1.00  0.00    -0.391 OA
ATOM     21  H   UNL     1      31.841  32.988  13.868  1.00  0.00     0.211 HD
ENDBRANCH  12  20
BRANCH  13  22
ATOM     22  N   UNL     1      30.794  34.974  15.662  1.00  0.00    -0.348 N 
ATOM     23  C   UNL     1      32.025  35.653  15.913  1.00  0.00     0.217 C 
ATOM     24  H   UNL     1      30.159  35.385  14.954  1.00  0.00     0.163 HD
ATOM     25  C   UNL     1      32.432  36.907  15.240  1.00  0.00     0.114 C 
ATOM     26  O   UNL     1      32.806  35.151  16.756  1.00  0.00    -0.275 OA
ENDBRANCH  13  22
ENDBRANCH   7   8
BRANCH   7  27
ATOM     27  O   UNL     1      28.030  35.798  16.489  1.00  0.00    -0.388 OA
ATOM     28  H   UNL     1      28.144  36.687  16.913  1.00  0.00     0.211 HD
ENDBRANCH   7  27
ENDBRANCH   6   7
BRANCH   6  29
ATOM     29  O   UNL     1      26.323  33.533  17.671  1.00  0.00    -0.388 OA
ATOM     30  H   UNL     1      25.384  33.788  17.821  1.00  0.00     0.211 HD
ENDBRANCH   6  29
ENDBRANCH   5   6
ENDBRANCH   1   5
BRANCH   2  31
ATOM     31  O   UNL     1      24.041  37.442  16.378  1.00  0.00    -0.443 OA
BRANCH  31  32
ATOM     32  C   UNL     1      23.716  36.782  15.195  1.00  0.00     0.294 C 
BRANCH  32  33
ATOM     33  C   UNL     1      24.805  35.944  14.636  1.00  0.00     0.120 A 
ATOM     34  C   UNL     1      25.592  36.147  13.546  1.00  0.00     0.139 A 
ATOM     35  N   UNL     1      25.224  34.755  15.161  1.00  0.00    -0.132 NA
ATOM     36  N   UNL     1      26.445  35.113  13.431  1.00  0.00    -0.241 N 
ATOM     37  N   UNL     1      26.211  34.281  14.412  1.00  0.00    -0.066 NA
BRANCH  36  38
ATOM     38  C   UNL     1      27.444  34.962  12.393  1.00  0.00     0.268 C 
BRANCH  38  39
ATOM     39  C   UNL     1      28.786  35.219  12.952  1.00  0.00     0.325 C 
ATOM     40  O   UNL     1      29.752  34.486  12.597  1.00  0.00    -0.250 OA
BRANCH  39  41
ATOM     41  O   UNL     1      28.989  36.246  13.849  1.00  0.00    -0.480 OA
ATOM     42  H   UNL     1      29.908  36.698  13.831  1.00  0.00     0.296 HD
ENDBRANCH  39  41
ENDBRANCH  38  39
ENDBRANCH  36  38
ENDBRANCH  32  33
ENDBRANCH  31  32
ENDBRANCH   2  31
TORSDOF 17
BEGIN_RES LYS A 131
REMARK  4 active torsions:
REMARK  status: ('A' for Active; 'I' for Inactive)
REMARK    1  A    between atoms: CA   and  CB  
REMARK    2  A    between atoms: CB   and  CG  
REMARK    3  A    between atoms: CG   and  CD  
REMARK    4  A    between atoms: CD   and  CE  
ROOT
ATOM      1  CA  LYS A 131      29.867  25.555  16.977  1.00 20.52     0.186 C 
ENDROOT
BRANCH   1   2
ATOM      2  CB  LYS A 131      28.345  25.722  17.026  1.00 20.94     0.034 C 
BRANCH   2   3
ATOM      3  CG  LYS A 131      27.601  24.406  16.863  1.00 22.96     0.005 C 
BRANCH   3   4
ATOM      4  CD  LYS A 131      26.568  24.202  17.937  1.00 24.33     0.041 C 
BRANCH   4   5
ATOM      5  CE  LYS A 131      25.226  23.863  17.295  1.00 26.91     0.338 C 
ATOM      6  NZ  LYS A 131      24.642  22.655  17.923  1.00 27.40     0.618 N 
ENDBRANCH   4   5
ENDBRANCH   3   4
ENDBRANCH   2   3
ENDBRANCH   1   2
END_RES LYS A 131
BEGIN_RES LYS A 135
REMARK  4 active torsions:
REMARK  status: ('A' for Active; 'I' for Inactive)
REMARK    5  A    between atoms: CA   and  CB  
REMARK    6  A    between atoms: CB   and  CG  
REMARK    7  A    between atoms: CG   and  CD  
REMARK    8  A    between atoms: CD   and  CE  
ROOT
ATOM      7  CA  LYS A 135      33.193  34.663   9.290  1.00 25.02     0.186 C 
ENDROOT
BRANCH   7   8
ATOM      8  CB  LYS A 135      32.060  35.360  10.034  1.00 26.63     0.034 C 
BRANCH   8   9
ATOM      9  CG  LYS A 135      30.787  35.462   9.234  1.00 29.45     0.005 C 
BRANCH   9  10
ATOM     10  CD  LYS A 135      30.145  34.093   9.071  1.00 32.00     0.041 C 
BRANCH  10  11
ATOM     11  CE  LYS A 135      28.647  34.227   8.872  1.00 34.25     0.338 C 
ATOM     12  NZ  LYS A 135      28.337  35.114   7.716  1.00 35.99     0.618 N 
ENDBRANCH  10  11
ENDBRANCH   9  10
ENDBRANCH   8   9
ENDBRANCH   7   8
END_RES LYS A 135
