REMARK VINA RESULT:    -4.449      1.712      2.153
REMARK INTER + INTRA:         -13.958
REMARK INTER:                  -8.481
REMARK INTRA:                  -5.477
REMARK UNBOUND:                -5.477
REMARK SMILES CC(=O)N[C@@H]1[C@@H](O)C[C@](O)(C(=O)O)O[C@H]1C(O)[C@H](O)CNC(=O)OCc1cn(CC(O)CO)nn1
REMARK SMILES IDX 21 1 22 2 23 3 20 5 18 6 16 7 15 8 9 9 8 10 14 11 6 12 5 13
REMARK SMILES IDX 10 14 11 16 12 17 13 18 7 20 4 22 2 23 1 25 3 26 17 27 19 29
REMARK SMILES IDX 24 31 25 32 26 33 27 34 35 35 28 36 34 37 29 38 30 39 31 40
REMARK SMILES IDX 32 42 33 43
REMARK H PARENT 21 4 10 15 13 19 7 21 4 24 17 28 19 30 31 41 33 44
REMARK Flexibility Score: inf
ROOT
ATOM      1  N   UNL     1      27.922  28.954  17.612  1.00  0.00    -0.319 N 
ATOM      2  C   UNL     1      27.553  29.720  16.478  1.00  0.00     0.407 C 
ATOM      3  O   UNL     1      26.394  29.693  16.030  1.00  0.00    -0.225 OA
ATOM      4  H   UNL     1      28.938  29.044  17.916  1.00  0.00     0.167 HD
ENDROOT
BRANCH   1   5
ATOM      5  C   UNL     1      26.988  28.122  18.289  1.00  0.00     0.154 C 
BRANCH   5   6
ATOM      6  C   UNL     1      27.382  27.798  19.713  1.00  0.00     0.165 C 
BRANCH   6   7
ATOM      7  C   UNL     1      28.770  28.394  19.920  1.00  0.00     0.176 C 
BRANCH   7   8
ATOM      8  C   UNL     1      28.756  29.364  21.107  1.00  0.00     0.178 C 
ATOM      9  C   UNL     1      30.085  31.251  20.851  1.00  0.00     0.269 C 
ATOM     10  C   UNL     1      30.161  31.448  22.353  1.00  0.00     0.112 C 
ATOM     11  O   UNL     1      28.891  30.623  20.594  1.00  0.00    -0.332 OA
ATOM     12  C   UNL     1      30.271  30.099  22.975  1.00  0.00     0.145 C 
ATOM     13  C   UNL     1      29.791  28.963  22.109  1.00  0.00     0.142 C 
BRANCH   9  14
ATOM     14  O   UNL     1      31.202  30.501  20.488  1.00  0.00    -0.357 OA
ATOM     15  H   UNL     1      30.978  29.750  19.894  1.00  0.00     0.214 HD
ENDBRANCH   9  14
BRANCH   9  16
ATOM     16  C   UNL     1      30.102  32.552  20.134  1.00  0.00     0.364 C 
ATOM     17  O   UNL     1      29.189  33.382  20.372  1.00  0.00    -0.246 OA
BRANCH  16  18
ATOM     18  O   UNL     1      31.102  32.827  19.232  1.00  0.00    -0.477 OA
ATOM     19  H   UNL     1      31.288  33.781  18.939  1.00  0.00     0.296 HD
ENDBRANCH  16  18
ENDBRANCH   9  16
BRANCH  12  20
ATOM     20  O   UNL     1      31.623  29.864  23.253  1.00  0.00    -0.391 OA
ATOM     21  H   UNL     1      31.811  30.104  24.179  1.00  0.00     0.211 HD
ENDBRANCH  12  20
BRANCH  13  22
ATOM     22  N   UNL     1      29.265  27.959  23.009  1.00  0.00    -0.348 N 
ATOM     23  C   UNL     1      30.049  26.814  23.307  1.00  0.00     0.217 C 
ATOM     24  H   UNL     1      28.322  28.037  23.455  1.00  0.00     0.163 HD
ATOM     25  C   UNL     1      29.553  25.738  24.234  1.00  0.00     0.114 C 
ATOM     26  O   UNL     1      31.194  26.624  22.824  1.00  0.00    -0.275 OA
ENDBRANCH  13  22
ENDBRANCH   7   8
BRANCH   7  27
ATOM     27  O   UNL     1      29.682  27.379  20.077  1.00  0.00    -0.388 OA
ATOM     28  H   UNL     1      29.796  27.132  21.037  1.00  0.00     0.211 HD
ENDBRANCH   7  27
ENDBRANCH   6   7
BRANCH   6  29
ATOM     29  O   UNL     1      27.396  26.418  19.915  1.00  0.00    -0.388 OA
ATOM     30  H   UNL     1      27.958  26.244  20.694  1.00  0.00     0.211 HD
ENDBRANCH   6  29
ENDBRANCH   5   6
ENDBRANCH   1   5
BRANCH   2  31
ATOM     31  O   UNL     1      28.488  30.538  15.823  1.00  0.00    -0.443 OA
BRANCH  31  32
ATOM     32  C   UNL     1      29.545  31.065  16.571  1.00  0.00     0.294 C 
BRANCH  32  33
ATOM     33  C   UNL     1      30.266  32.135  15.837  1.00  0.00     0.120 A 
ATOM     34  C   UNL     1      29.824  32.824  14.746  1.00  0.00     0.138 A 
ATOM     35  N   UNL     1      31.482  32.610  16.121  1.00  0.00    -0.132 NA
ATOM     36  N   UNL     1      30.806  33.702  14.410  1.00  0.00    -0.249 N 
ATOM     37  N   UNL     1      31.814  33.559  15.260  1.00  0.00    -0.067 NA
BRANCH  36  38
ATOM     38  C   UNL     1      30.738  34.639  13.291  1.00  0.00     0.180 C 
BRANCH  38  39
ATOM     39  C   UNL     1      31.998  35.478  13.366  1.00  0.00     0.161 C 
BRANCH  39  40
ATOM     40  O   UNL     1      32.970  34.924  12.542  1.00  0.00    -0.389 OA
ATOM     41  H   UNL     1      32.581  34.830  11.631  1.00  0.00     0.211 HD
ENDBRANCH  39  40
BRANCH  39  42
ATOM     42  C   UNL     1      31.701  36.914  12.919  1.00  0.00     0.189 C 
BRANCH  42  43
ATOM     43  O   UNL     1      30.603  37.400  13.631  1.00  0.00    -0.394 OA
ATOM     44  H   UNL     1      30.927  38.015  14.355  1.00  0.00     0.210 HD
ENDBRANCH  42  43
ENDBRANCH  39  42
ENDBRANCH  38  39
ENDBRANCH  36  38
ENDBRANCH  32  33
ENDBRANCH  31  32
ENDBRANCH   2  31
TORSDOF 19
BEGIN_RES LYS A 131
REMARK  4 active torsions:
REMARK  status: ('A' for Active; 'I' for Inactive)
REMARK    1  A    between atoms: CA   and  CB  
REMARK    2  A    between atoms: CB   and  CG  
REMARK    3  A    between atoms: CG   and  CD  
REMARK    4  A    between atoms: CD   and  CE  
ROOT
ATOM      1  CA  LYS A 131      29.867  25.555  16.977  1.00 20.52     0.186 C 
ENDROOT
BRANCH   1   2
ATOM      2  CB  LYS A 131      28.345  25.722  17.026  1.00 20.94     0.034 C 
BRANCH   2   3
ATOM      3  CG  LYS A 131      27.601  24.402  16.891  1.00 22.96     0.005 C 
BRANCH   3   4
ATOM      4  CD  LYS A 131      26.150  24.529  17.263  1.00 24.33     0.041 C 
BRANCH   4   5
ATOM      5  CE  LYS A 131      25.642  23.194  17.796  1.00 26.91     0.338 C 
ATOM      6  NZ  LYS A 131      25.508  23.241  19.271  1.00 27.40     0.618 N 
ENDBRANCH   4   5
ENDBRANCH   3   4
ENDBRANCH   2   3
ENDBRANCH   1   2
END_RES LYS A 131
BEGIN_RES LYS A 135
REMARK  4 active torsions:
REMARK  status: ('A' for Active; 'I' for Inactive)
REMARK    5  A    between atoms: CA   and  CB  
REMARK    6  A    between atoms: CB   and  CG  
REMARK    7  A    between atoms: CG   and  CD  
REMARK    8  A    between atoms: CD   and  CE  
ROOT
ATOM      7  CA  LYS A 135      33.193  34.663   9.290  1.00 25.02     0.186 C 
ENDROOT
BRANCH   7   8
ATOM      8  CB  LYS A 135      32.060  35.360  10.034  1.00 26.63     0.034 C 
BRANCH   8   9
ATOM      9  CG  LYS A 135      30.782  35.446   9.241  1.00 29.45     0.005 C 
BRANCH   9  10
ATOM     10  CD  LYS A 135      30.235  34.057   8.952  1.00 32.00     0.041 C 
BRANCH  10  11
ATOM     11  CE  LYS A 135      28.768  33.973   9.329  1.00 34.25     0.338 C 
ATOM     12  NZ  LYS A 135      28.434  34.949  10.404  1.00 35.99     0.618 N 
ENDBRANCH  10  11
ENDBRANCH   9  10
ENDBRANCH   8   9
ENDBRANCH   7   8
END_RES LYS A 135
