REMARK VINA RESULT:    -4.208      7.325     13.803
REMARK INTER + INTRA:         -13.970
REMARK INTER:                  -6.706
REMARK INTRA:                  -7.264
REMARK UNBOUND:                -5.949
REMARK SMILES CCOC(=O)Cn1cc(COC(=O)NC[C@@H](O)C(O)[C@@H]2O[C@@](O)(C(=O)O)C[C@H](O)[C@H]2NC(C)=O)nn1
REMARK SMILES IDX 14 1 12 2 13 3 15 5 16 6 18 7 20 8 22 9 27 10 21 11 28 12
REMARK SMILES IDX 30 13 23 14 24 16 25 17 26 18 29 20 31 22 32 23 33 25 34 26
REMARK SMILES IDX 19 27 17 29 11 31 10 32 9 33 8 34 35 35 7 36 36 37 6 38 4 39
REMARK SMILES IDX 5 40 3 41 2 42 1 43
REMARK H PARENT 14 4 23 15 26 19 29 21 31 24 19 28 17 30
REMARK Flexibility Score: inf
ROOT
ATOM      1  N   UNL     1      25.264  39.951   6.044  1.00  0.00    -0.319 N 
ATOM      2  C   UNL     1      25.523  41.229   5.501  1.00  0.00     0.407 C 
ATOM      3  O   UNL     1      25.209  42.274   6.080  1.00  0.00    -0.225 OA
ATOM      4  H   UNL     1      25.603  39.145   5.421  1.00  0.00     0.167 HD
ENDROOT
BRANCH   1   5
ATOM      5  C   UNL     1      24.619  39.671   7.285  1.00  0.00     0.154 C 
BRANCH   5   6
ATOM      6  C   UNL     1      25.360  40.019   8.530  1.00  0.00     0.165 C 
BRANCH   6   7
ATOM      7  C   UNL     1      26.666  39.327   8.684  1.00  0.00     0.176 C 
BRANCH   7   8
ATOM      8  C   UNL     1      26.993  38.829  10.065  1.00  0.00     0.178 C 
ATOM      9  C   UNL     1      29.302  38.627  10.374  1.00  0.00     0.269 C 
ATOM     10  C   UNL     1      29.202  37.593  11.474  1.00  0.00     0.112 C 
ATOM     11  O   UNL     1      28.203  39.426  10.412  1.00  0.00    -0.332 OA
ATOM     12  C   UNL     1      27.870  36.942  11.424  1.00  0.00     0.145 C 
ATOM     13  C   UNL     1      27.051  37.332  10.182  1.00  0.00     0.142 C 
BRANCH   9  14
ATOM     14  O   UNL     1      29.521  37.937   9.195  1.00  0.00    -0.357 OA
ATOM     15  H   UNL     1      30.377  38.247   8.820  1.00  0.00     0.214 HD
ENDBRANCH   9  14
BRANCH   9  16
ATOM     16  C   UNL     1      30.492  39.453  10.681  1.00  0.00     0.364 C 
ATOM     17  O   UNL     1      31.367  38.984  11.439  1.00  0.00    -0.246 OA
BRANCH  16  18
ATOM     18  O   UNL     1      30.653  40.711  10.157  1.00  0.00    -0.477 OA
ATOM     19  H   UNL     1      29.860  41.312   9.933  1.00  0.00     0.296 HD
ENDBRANCH  16  18
ENDBRANCH   9  16
BRANCH  12  20
ATOM     20  O   UNL     1      27.922  35.554  11.499  1.00  0.00    -0.391 OA
ATOM     21  H   UNL     1      28.830  35.189  11.479  1.00  0.00     0.211 HD
ENDBRANCH  12  20
BRANCH  13  22
ATOM     22  N   UNL     1      25.743  36.764  10.437  1.00  0.00    -0.348 N 
ATOM     23  C   UNL     1      24.951  36.089   9.492  1.00  0.00     0.217 C 
ATOM     24  H   UNL     1      25.363  36.867  11.403  1.00  0.00     0.163 HD
ATOM     25  C   UNL     1      23.613  35.514   9.775  1.00  0.00     0.114 C 
ATOM     26  O   UNL     1      25.427  35.971   8.320  1.00  0.00    -0.275 OA
ENDBRANCH  13  22
ENDBRANCH   7   8
BRANCH   7  27
ATOM     27  O   UNL     1      26.847  38.370   7.715  1.00  0.00    -0.388 OA
ATOM     28  H   UNL     1      27.307  38.693   6.899  1.00  0.00     0.211 HD
ENDBRANCH   7  27
ENDBRANCH   6   7
BRANCH   6  29
ATOM     29  O   UNL     1      24.573  39.614   9.629  1.00  0.00    -0.388 OA
ATOM     30  H   UNL     1      24.460  40.374  10.272  1.00  0.00     0.211 HD
ENDBRANCH   6  29
ENDBRANCH   5   6
ENDBRANCH   1   5
BRANCH   2  31
ATOM     31  O   UNL     1      26.165  41.363   4.248  1.00  0.00    -0.443 OA
BRANCH  31  32
ATOM     32  C   UNL     1      26.978  40.327   3.732  1.00  0.00     0.294 C 
BRANCH  32  33
ATOM     33  C   UNL     1      28.081  40.121   4.707  1.00  0.00     0.120 A 
ATOM     34  C   UNL     1      29.060  41.012   5.081  1.00  0.00     0.139 A 
ATOM     35  N   UNL     1      28.342  38.998   5.432  1.00  0.00    -0.132 NA
ATOM     36  N   UNL     1      29.852  40.390   5.999  1.00  0.00    -0.241 N 
ATOM     37  N   UNL     1      29.388  39.167   6.189  1.00  0.00    -0.066 NA
BRANCH  36  38
ATOM     38  C   UNL     1      31.009  40.929   6.676  1.00  0.00     0.268 C 
BRANCH  38  39
ATOM     39  C   UNL     1      32.063  39.912   6.811  1.00  0.00     0.327 C 
ATOM     40  O   UNL     1      32.152  39.263   7.876  1.00  0.00    -0.250 OA
BRANCH  39  41
ATOM     41  O   UNL     1      32.931  39.709   5.738  1.00  0.00    -0.465 OA
BRANCH  41  42
ATOM     42  C   UNL     1      34.319  39.917   6.017  1.00  0.00     0.229 C 
ATOM     43  C   UNL     1      35.076  38.714   5.515  1.00  0.00     0.049 C 
ENDBRANCH  41  42
ENDBRANCH  39  41
ENDBRANCH  38  39
ENDBRANCH  36  38
ENDBRANCH  32  33
ENDBRANCH  31  32
ENDBRANCH   2  31
TORSDOF 18
BEGIN_RES LYS A 131
REMARK  4 active torsions:
REMARK  status: ('A' for Active; 'I' for Inactive)
REMARK    1  A    between atoms: CA   and  CB  
REMARK    2  A    between atoms: CB   and  CG  
REMARK    3  A    between atoms: CG   and  CD  
REMARK    4  A    between atoms: CD   and  CE  
ROOT
ATOM      1  CA  LYS A 131      29.867  25.555  16.977  1.00 20.52     0.186 C 
ENDROOT
BRANCH   1   2
ATOM      2  CB  LYS A 131      28.345  25.722  17.026  1.00 20.94     0.034 C 
BRANCH   2   3
ATOM      3  CG  LYS A 131      27.599  24.438  16.698  1.00 22.96     0.005 C 
BRANCH   3   4
ATOM      4  CD  LYS A 131      26.981  23.814  17.919  1.00 24.33     0.041 C 
BRANCH   4   5
ATOM      5  CE  LYS A 131      25.592  23.287  17.575  1.00 26.91     0.338 C 
ATOM      6  NZ  LYS A 131      24.795  24.334  16.894  1.00 27.40     0.618 N 
ENDBRANCH   4   5
ENDBRANCH   3   4
ENDBRANCH   2   3
ENDBRANCH   1   2
END_RES LYS A 131
BEGIN_RES LYS A 135
REMARK  4 active torsions:
REMARK  status: ('A' for Active; 'I' for Inactive)
REMARK    5  A    between atoms: CA   and  CB  
REMARK    6  A    between atoms: CB   and  CG  
REMARK    7  A    between atoms: CG   and  CD  
REMARK    8  A    between atoms: CD   and  CE  
ROOT
ATOM      7  CA  LYS A 135      33.193  34.663   9.290  1.00 25.02     0.186 C 
ENDROOT
BRANCH   7   8
ATOM      8  CB  LYS A 135      32.060  35.360  10.034  1.00 26.63     0.034 C 
BRANCH   8   9
ATOM      9  CG  LYS A 135      30.720  34.696   9.850  1.00 29.45     0.005 C 
BRANCH   9  10
ATOM     10  CD  LYS A 135      30.382  34.570   8.372  1.00 32.00     0.041 C 
BRANCH  10  11
ATOM     11  CE  LYS A 135      28.885  34.684   8.156  1.00 34.25     0.338 C 
ATOM     12  NZ  LYS A 135      28.578  35.505   6.952  1.00 35.99     0.618 N 
ENDBRANCH  10  11
ENDBRANCH   9  10
ENDBRANCH   8   9
ENDBRANCH   7   8
END_RES LYS A 135
