REMARK VINA RESULT:    -5.356      1.632      2.162
REMARK INTER + INTRA:         -15.108
REMARK INTER:                  -9.727
REMARK INTRA:                  -5.381
REMARK UNBOUND:                -5.212
REMARK SMILES CC(=O)N[C@@H]1[C@@H](O)C[C@](O)(C(=O)O)O[C@H]1C(O)[C@H](O)CNC(=O)OCc1cn(Cc2cccc(C#N)c2)nn1
REMARK SMILES IDX 21 1 22 2 23 3 20 5 18 6 16 7 15 8 9 9 8 10 14 11 6 12 5 13
REMARK SMILES IDX 10 14 11 16 12 17 13 18 7 20 4 22 2 23 1 25 3 26 17 27 19 29
REMARK SMILES IDX 24 31 25 32 26 33 27 34 39 35 28 36 38 37 29 38 30 39 31 40
REMARK SMILES IDX 37 41 32 42 34 43 33 44 35 45 36 46
REMARK H PARENT 21 4 10 15 13 19 7 21 4 24 17 28 19 30
REMARK Flexibility Score: inf
ROOT
ATOM      1  N   UNL     1      29.428  30.425  17.528  1.00  0.00    -0.319 N 
ATOM      2  C   UNL     1      28.435  30.552  18.506  1.00  0.00     0.407 C 
ATOM      3  O   UNL     1      28.380  31.564  19.233  1.00  0.00    -0.225 OA
ATOM      4  H   UNL     1      29.407  29.536  16.943  1.00  0.00     0.167 HD
ENDROOT
BRANCH   1   5
ATOM      5  C   UNL     1      30.445  31.413  17.282  1.00  0.00     0.154 C 
BRANCH   5   6
ATOM      6  C   UNL     1      30.146  32.282  16.093  1.00  0.00     0.165 C 
BRANCH   6   7
ATOM      7  C   UNL     1      29.367  33.508  16.368  1.00  0.00     0.176 C 
BRANCH   7   8
ATOM      8  C   UNL     1      29.304  34.514  15.207  1.00  0.00     0.178 C 
ATOM      9  C   UNL     1      28.084  35.025  13.352  1.00  0.00     0.269 C 
ATOM     10  C   UNL     1      29.263  34.735  12.447  1.00  0.00     0.112 C 
ATOM     11  O   UNL     1      28.220  34.245  14.470  1.00  0.00    -0.332 OA
ATOM     12  C   UNL     1      30.563  35.101  13.110  1.00  0.00     0.145 C 
ATOM     13  C   UNL     1      30.621  34.679  14.549  1.00  0.00     0.142 C 
BRANCH   9  14
ATOM     14  O   UNL     1      26.909  34.641  12.658  1.00  0.00    -0.357 OA
ATOM     15  H   UNL     1      26.248  35.357  12.883  1.00  0.00     0.214 HD
ENDBRANCH   9  14
BRANCH   9  16
ATOM     16  C   UNL     1      27.979  36.471  13.572  1.00  0.00     0.364 C 
ATOM     17  O   UNL     1      27.541  36.952  14.642  1.00  0.00    -0.246 OA
BRANCH  16  18
ATOM     18  O   UNL     1      28.355  37.429  12.607  1.00  0.00    -0.477 OA
ATOM     19  H   UNL     1      29.357  37.465  12.406  1.00  0.00     0.296 HD
ENDBRANCH  16  18
ENDBRANCH   9  16
BRANCH  12  20
ATOM     20  O   UNL     1      31.590  34.496  12.387  1.00  0.00    -0.391 OA
ATOM     21  H   UNL     1      31.259  33.830  11.748  1.00  0.00     0.211 HD
ENDBRANCH  12  20
BRANCH  13  22
ATOM     22  N   UNL     1      31.452  35.618  15.278  1.00  0.00    -0.348 N 
ATOM     23  C   UNL     1      32.882  35.460  15.390  1.00  0.00     0.217 C 
ATOM     24  H   UNL     1      31.086  36.470  15.773  1.00  0.00     0.163 HD
ATOM     25  C   UNL     1      33.698  36.455  16.154  1.00  0.00     0.114 C 
ATOM     26  O   UNL     1      33.448  34.489  14.849  1.00  0.00    -0.275 OA
ENDBRANCH  13  22
ENDBRANCH   7   8
BRANCH   7  27
ATOM     27  O   UNL     1      29.830  34.219  17.476  1.00  0.00    -0.388 OA
ATOM     28  H   UNL     1      29.296  35.030  17.664  1.00  0.00     0.211 HD
ENDBRANCH   7  27
ENDBRANCH   6   7
BRANCH   6  29
ATOM     29  O   UNL     1      29.647  31.464  15.079  1.00  0.00    -0.388 OA
ATOM     30  H   UNL     1      29.236  32.047  14.395  1.00  0.00     0.211 HD
ENDBRANCH   6  29
ENDBRANCH   5   6
ENDBRANCH   1   5
BRANCH   2  31
ATOM     31  O   UNL     1      27.465  29.573  18.727  1.00  0.00    -0.443 OA
BRANCH  31  32
ATOM     32  C   UNL     1      26.964  28.864  17.623  1.00  0.00     0.294 C 
BRANCH  32  33
ATOM     33  C   UNL     1      26.059  29.745  16.858  1.00  0.00     0.120 A 
ATOM     34  C   UNL     1      26.195  30.186  15.561  1.00  0.00     0.138 A 
ATOM     35  N   UNL     1      24.911  30.281  17.312  1.00  0.00    -0.132 NA
ATOM     36  N   UNL     1      25.139  30.967  15.267  1.00  0.00    -0.248 N 
ATOM     37  N   UNL     1      24.385  30.997  16.359  1.00  0.00    -0.067 NA
BRANCH  36  38
ATOM     38  C   UNL     1      24.798  31.661  14.054  1.00  0.00     0.181 C 
BRANCH  38  39
ATOM     39  C   UNL     1      23.599  31.034  13.403  1.00  0.00    -0.025 A 
ATOM     40  C   UNL     1      23.638  29.710  13.028  1.00  0.00     0.006 A 
ATOM     41  C   UNL     1      22.451  31.743  13.174  1.00  0.00     0.025 A 
ATOM     42  C   UNL     1      22.521  29.117  12.427  1.00  0.00     0.002 A 
ATOM     43  C   UNL     1      21.332  31.192  12.585  1.00  0.00     0.052 A 
ATOM     44  C   UNL     1      21.371  29.868  12.211  1.00  0.00     0.019 A 
BRANCH  43  45
ATOM     45  C   UNL     1      20.119  31.913  12.335  1.00  0.00     0.099 C 
ATOM     46  N   UNL     1      19.124  32.495  12.149  1.00  0.00    -0.192 NA
ENDBRANCH  43  45
ENDBRANCH  38  39
ENDBRANCH  36  38
ENDBRANCH  32  33
ENDBRANCH  31  32
ENDBRANCH   2  31
TORSDOF 17
BEGIN_RES LYS A 131
REMARK  4 active torsions:
REMARK  status: ('A' for Active; 'I' for Inactive)
REMARK    1  A    between atoms: CA   and  CB  
REMARK    2  A    between atoms: CB   and  CG  
REMARK    3  A    between atoms: CG   and  CD  
REMARK    4  A    between atoms: CD   and  CE  
ROOT
ATOM      1  CA  LYS A 131      29.867  25.555  16.977  1.00 20.52     0.186 C 
ENDROOT
BRANCH   1   2
ATOM      2  CB  LYS A 131      28.345  25.722  17.026  1.00 20.94     0.034 C 
BRANCH   2   3
ATOM      3  CG  LYS A 131      27.599  24.426  16.749  1.00 22.96     0.005 C 
BRANCH   3   4
ATOM      4  CD  LYS A 131      26.919  23.890  17.978  1.00 24.33     0.041 C 
BRANCH   4   5
ATOM      5  CE  LYS A 131      25.662  24.707  18.261  1.00 26.91     0.338 C 
ATOM      6  NZ  LYS A 131      24.668  24.522  17.178  1.00 27.40     0.618 N 
ENDBRANCH   4   5
ENDBRANCH   3   4
ENDBRANCH   2   3
ENDBRANCH   1   2
END_RES LYS A 131
BEGIN_RES LYS A 135
REMARK  4 active torsions:
REMARK  status: ('A' for Active; 'I' for Inactive)
REMARK    5  A    between atoms: CA   and  CB  
REMARK    6  A    between atoms: CB   and  CG  
REMARK    7  A    between atoms: CG   and  CD  
REMARK    8  A    between atoms: CD   and  CE  
ROOT
ATOM      7  CA  LYS A 135      33.193  34.663   9.290  1.00 25.02     0.186 C 
ENDROOT
BRANCH   7   8
ATOM      8  CB  LYS A 135      32.060  35.360  10.034  1.00 26.63     0.034 C 
BRANCH   8   9
ATOM      9  CG  LYS A 135      30.830  35.578   9.191  1.00 29.45     0.005 C 
BRANCH   9  10
ATOM     10  CD  LYS A 135      30.128  34.258   8.915  1.00 32.00     0.041 C 
BRANCH  10  11
ATOM     11  CE  LYS A 135      28.688  34.497   8.502  1.00 34.25     0.338 C 
ATOM     12  NZ  LYS A 135      27.748  33.728   9.364  1.00 35.99     0.618 N 
ENDBRANCH  10  11
ENDBRANCH   9  10
ENDBRANCH   8   9
ENDBRANCH   7   8
END_RES LYS A 135
