REMARK VINA RESULT:    -6.016      1.669      2.660
REMARK INTER + INTRA:         -15.285
REMARK INTER:                  -9.356
REMARK INTRA:                  -5.929
REMARK UNBOUND:                -3.993
REMARK SMILES CC(=O)N[C@@H]1[C@@H](O)C[C@](O)(C(=O)O)O[C@H]1C(O)[C@H](O)CNC(=O)OCc1cn(Cc2ccc(C(=O)O)cc2)nn1
REMARK SMILES IDX 21 1 22 2 23 3 20 5 18 6 16 7 15 8 9 9 8 10 14 11 6 12 5 13
REMARK SMILES IDX 10 14 11 16 12 17 13 18 7 20 4 22 2 23 1 25 3 26 17 27 19 29
REMARK SMILES IDX 24 31 25 32 26 33 27 34 40 35 28 36 39 37 29 38 30 39 31 40
REMARK SMILES IDX 38 41 32 42 37 43 33 44 34 45 35 46 36 47
REMARK H PARENT 21 4 10 15 13 19 7 21 4 24 17 28 19 30 36 48
REMARK Flexibility Score: inf
ROOT
ATOM      1  N   UNL     1      26.327  28.025  18.325  1.00  0.00    -0.319 N 
ATOM      2  C   UNL     1      25.433  28.880  17.658  1.00  0.00     0.407 C 
ATOM      3  O   UNL     1      24.553  29.478  18.299  1.00  0.00    -0.225 OA
ATOM      4  H   UNL     1      27.048  27.547  17.703  1.00  0.00     0.167 HD
ENDROOT
BRANCH   1   5
ATOM      5  C   UNL     1      26.303  27.786  19.744  1.00  0.00     0.154 C 
BRANCH   5   6
ATOM      6  C   UNL     1      27.714  27.683  20.260  1.00  0.00     0.165 C 
BRANCH   6   7
ATOM      7  C   UNL     1      28.454  28.983  20.278  1.00  0.00     0.176 C 
BRANCH   7   8
ATOM      8  C   UNL     1      29.806  28.817  20.995  1.00  0.00     0.178 C 
ATOM      9  C   UNL     1      30.700  27.660  22.786  1.00  0.00     0.269 C 
ATOM     10  C   UNL     1      30.868  28.901  23.649  1.00  0.00     0.112 C 
ATOM     11  O   UNL     1      29.606  27.878  21.985  1.00  0.00    -0.332 OA
ATOM     12  C   UNL     1      31.035  30.113  22.790  1.00  0.00     0.145 C 
ATOM     13  C   UNL     1      30.130  30.140  21.590  1.00  0.00     0.142 C 
BRANCH   9  14
ATOM     14  O   UNL     1      30.338  26.644  23.717  1.00  0.00    -0.357 OA
ATOM     15  H   UNL     1      29.441  26.282  23.435  1.00  0.00     0.214 HD
ENDBRANCH   9  14
BRANCH   9  16
ATOM     16  C   UNL     1      31.944  27.290  22.105  1.00  0.00     0.364 C 
ATOM     17  O   UNL     1      31.876  26.677  20.985  1.00  0.00    -0.246 OA
BRANCH  16  18
ATOM     18  O   UNL     1      33.229  27.533  22.548  1.00  0.00    -0.477 OA
ATOM     19  H   UNL     1      33.355  27.672  23.542  1.00  0.00     0.296 HD
ENDBRANCH  16  18
ENDBRANCH   9  16
BRANCH  12  20
ATOM     20  O   UNL     1      30.689  31.228  23.590  1.00  0.00    -0.391 OA
ATOM     21  H   UNL     1      30.833  30.941  24.525  1.00  0.00     0.211 HD
ENDBRANCH  12  20
BRANCH  13  22
ATOM     22  N   UNL     1      30.640  31.094  20.627  1.00  0.00    -0.348 N 
ATOM     23  C   UNL     1      30.165  32.428  20.566  1.00  0.00     0.217 C 
ATOM     24  H   UNL     1      31.380  30.824  19.944  1.00  0.00     0.163 HD
ATOM     25  C   UNL     1      30.710  33.405  19.555  1.00  0.00     0.114 C 
ATOM     26  O   UNL     1      29.282  32.786  21.368  1.00  0.00    -0.275 OA
ENDBRANCH  13  22
ENDBRANCH   7   8
BRANCH   7  27
ATOM     27  O   UNL     1      28.602  29.583  19.051  1.00  0.00    -0.388 OA
ATOM     28  H   UNL     1      29.481  30.039  19.001  1.00  0.00     0.211 HD
ENDBRANCH   7  27
ENDBRANCH   6   7
BRANCH   6  29
ATOM     29  O   UNL     1      28.462  26.721  19.570  1.00  0.00    -0.388 OA
ATOM     30  H   UNL     1      29.393  27.063  19.444  1.00  0.00     0.211 HD
ENDBRANCH   6  29
ENDBRANCH   5   6
ENDBRANCH   1   5
BRANCH   2  31
ATOM     31  O   UNL     1      25.472  29.106  16.288  1.00  0.00    -0.443 OA
BRANCH  31  32
ATOM     32  C   UNL     1      25.651  30.373  15.706  1.00  0.00     0.294 C 
BRANCH  32  33
ATOM     33  C   UNL     1      26.913  30.973  16.187  1.00  0.00     0.120 A 
ATOM     34  C   UNL     1      28.190  30.649  15.727  1.00  0.00     0.138 A 
ATOM     35  N   UNL     1      27.125  31.912  17.130  1.00  0.00    -0.132 NA
ATOM     36  N   UNL     1      29.089  31.385  16.391  1.00  0.00    -0.248 N 
ATOM     37  N   UNL     1      28.422  32.138  17.232  1.00  0.00    -0.067 NA
BRANCH  36  38
ATOM     38  C   UNL     1      30.549  31.345  16.219  1.00  0.00     0.181 C 
BRANCH  38  39
ATOM     39  C   UNL     1      30.907  32.648  15.573  1.00  0.00    -0.026 A 
ATOM     40  C   UNL     1      30.263  33.029  14.430  1.00  0.00     0.006 A 
ATOM     41  C   UNL     1      31.872  33.471  16.098  1.00  0.00     0.006 A 
ATOM     42  C   UNL     1      30.578  34.238  13.800  1.00  0.00     0.016 A 
ATOM     43  C   UNL     1      32.186  34.673  15.472  1.00  0.00     0.016 A 
ATOM     44  C   UNL     1      31.543  35.069  14.317  1.00  0.00     0.059 A 
BRANCH  44  45
ATOM     45  C   UNL     1      31.878  36.331  13.672  1.00  0.00     0.335 C 
ATOM     46  O   UNL     1      31.696  37.443  14.214  1.00  0.00    -0.246 OA
BRANCH  45  47
ATOM     47  O   UNL     1      32.427  36.316  12.394  1.00  0.00    -0.478 OA
ATOM     48  H   UNL     1      32.934  35.519  12.052  1.00  0.00     0.297 HD
ENDBRANCH  45  47
ENDBRANCH  44  45
ENDBRANCH  38  39
ENDBRANCH  36  38
ENDBRANCH  32  33
ENDBRANCH  31  32
ENDBRANCH   2  31
TORSDOF 18
BEGIN_RES LYS A 131
REMARK  4 active torsions:
REMARK  status: ('A' for Active; 'I' for Inactive)
REMARK    1  A    between atoms: CA   and  CB  
REMARK    2  A    between atoms: CB   and  CG  
REMARK    3  A    between atoms: CG   and  CD  
REMARK    4  A    between atoms: CD   and  CE  
ROOT
ATOM      1  CA  LYS A 131      29.867  25.555  16.977  1.00 20.52     0.186 C 
ENDROOT
BRANCH   1   2
ATOM      2  CB  LYS A 131      28.345  25.722  17.026  1.00 20.94     0.034 C 
BRANCH   2   3
ATOM      3  CG  LYS A 131      27.600  24.408  16.847  1.00 22.96     0.005 C 
BRANCH   3   4
ATOM      4  CD  LYS A 131      26.536  24.213  17.891  1.00 24.33     0.041 C 
BRANCH   4   5
ATOM      5  CE  LYS A 131      25.164  24.454  17.270  1.00 26.91     0.338 C 
ATOM      6  NZ  LYS A 131      24.385  23.194  17.229  1.00 27.40     0.618 N 
ENDBRANCH   4   5
ENDBRANCH   3   4
ENDBRANCH   2   3
ENDBRANCH   1   2
END_RES LYS A 131
BEGIN_RES LYS A 135
REMARK  4 active torsions:
REMARK  status: ('A' for Active; 'I' for Inactive)
REMARK    5  A    between atoms: CA   and  CB  
REMARK    6  A    between atoms: CB   and  CG  
REMARK    7  A    between atoms: CG   and  CD  
REMARK    8  A    between atoms: CD   and  CE  
ROOT
ATOM      7  CA  LYS A 135      33.193  34.663   9.290  1.00 25.02     0.186 C 
ENDROOT
BRANCH   7   8
ATOM      8  CB  LYS A 135      32.060  35.360  10.034  1.00 26.63     0.034 C 
BRANCH   8   9
ATOM      9  CG  LYS A 135      30.779  35.438   9.244  1.00 29.45     0.005 C 
BRANCH   9  10
ATOM     10  CD  LYS A 135      30.212  34.047   9.003  1.00 32.00     0.041 C 
BRANCH  10  11
ATOM     11  CE  LYS A 135      28.715  34.033   9.242  1.00 34.25     0.338 C 
ATOM     12  NZ  LYS A 135      28.393  34.396  10.650  1.00 35.99     0.618 N 
ENDBRANCH  10  11
ENDBRANCH   9  10
ENDBRANCH   8   9
ENDBRANCH   7   8
END_RES LYS A 135
