REMARK VINA RESULT:    -4.677      2.167      4.337
REMARK INTER + INTRA:         -14.649
REMARK INTER:                  -8.502
REMARK INTRA:                  -6.148
REMARK UNBOUND:                -6.555
REMARK SMILES CC(=O)N[C@@H]1[C@@H](O)C[C@](O)(C(=O)O)O[C@H]1C(O)[C@H](O)CNC(=O)OCc1cn([C@H]2C[C@H]3CC[C@@H](C2)N3C)nn1
REMARK SMILES IDX 20 1 18 2 16 3 15 4 9 5 8 6 14 7 6 8 5 9 10 10 11 12 12 13
REMARK SMILES IDX 13 14 7 16 4 18 2 19 1 21 3 22 17 23 19 25 21 27 22 28 23 30
REMARK SMILES IDX 24 31 25 32 26 33 27 34 39 35 28 36 38 37 29 38 35 39 30 40
REMARK SMILES IDX 34 41 31 42 36 43 33 44 32 45 37 46
REMARK H PARENT 10 11 13 15 7 17 4 20 17 24 19 26 21 29
REMARK Flexibility Score: inf
ROOT
ATOM      1  C   UNL     1      29.715  27.374  21.272  1.00  0.00     0.154 C 
ENDROOT
BRANCH   1   2
ATOM      2  C   UNL     1      31.076  26.776  21.377  1.00  0.00     0.165 C 
BRANCH   2   3
ATOM      3  C   UNL     1      31.869  27.269  22.547  1.00  0.00     0.176 C 
BRANCH   3   4
ATOM      4  C   UNL     1      31.704  28.752  22.784  1.00  0.00     0.178 C 
ATOM      5  C   UNL     1      32.229  30.805  21.859  1.00  0.00     0.269 C 
ATOM      6  C   UNL     1      31.617  31.248  23.160  1.00  0.00     0.112 C 
ATOM      7  O   UNL     1      32.150  29.435  21.661  1.00  0.00    -0.332 OA
ATOM      8  C   UNL     1      32.172  30.537  24.357  1.00  0.00     0.145 C 
ATOM      9  C   UNL     1      32.599  29.157  23.936  1.00  0.00     0.142 C 
BRANCH   5  10
ATOM     10  O   UNL     1      33.540  31.253  21.704  1.00  0.00    -0.357 OA
ATOM     11  H   UNL     1      33.949  31.434  22.582  1.00  0.00     0.214 HD
ENDBRANCH   5  10
BRANCH   5  12
ATOM     12  C   UNL     1      31.431  31.441  20.763  1.00  0.00     0.364 C 
ATOM     13  O   UNL     1      31.480  32.702  20.571  1.00  0.00    -0.246 OA
BRANCH  12  14
ATOM     14  O   UNL     1      30.617  30.725  19.917  1.00  0.00    -0.477 OA
ATOM     15  H   UNL     1      31.045  30.307  19.082  1.00  0.00     0.296 HD
ENDBRANCH  12  14
ENDBRANCH   5  12
BRANCH   8  16
ATOM     16  O   UNL     1      33.144  31.244  25.024  1.00  0.00    -0.391 OA
ATOM     17  H   UNL     1      33.654  31.769  24.352  1.00  0.00     0.211 HD
ENDBRANCH   8  16
BRANCH   9  18
ATOM     18  N   UNL     1      32.577  28.200  25.014  1.00  0.00    -0.348 N 
ATOM     19  C   UNL     1      33.724  27.924  25.817  1.00  0.00     0.217 C 
ATOM     20  H   UNL     1      31.705  27.671  25.242  1.00  0.00     0.163 HD
ATOM     21  C   UNL     1      33.635  26.931  26.907  1.00  0.00     0.114 C 
ATOM     22  O   UNL     1      34.779  28.548  25.560  1.00  0.00    -0.275 OA
ENDBRANCH   9  18
ENDBRANCH   3   4
BRANCH   3  23
ATOM     23  O   UNL     1      33.222  27.020  22.317  1.00  0.00    -0.388 OA
ATOM     24  H   UNL     1      33.685  26.725  23.121  1.00  0.00     0.211 HD
ENDBRANCH   3  23
ENDBRANCH   2   3
BRANCH   2  25
ATOM     25  O   UNL     1      31.830  27.026  20.207  1.00  0.00    -0.388 OA
ATOM     26  H   UNL     1      31.669  26.233  19.622  1.00  0.00     0.211 HD
ENDBRANCH   2  25
ENDBRANCH   1   2
BRANCH   1  27
ATOM     27  N   UNL     1      29.331  27.633  19.906  1.00  0.00    -0.319 N 
ATOM     28  C   UNL     1      28.025  28.109  19.619  1.00  0.00     0.407 C 
ATOM     29  H   UNL     1      29.978  27.486  19.094  1.00  0.00     0.167 HD
ATOM     30  O   UNL     1      27.158  28.322  20.510  1.00  0.00    -0.225 OA
BRANCH  28  31
ATOM     31  O   UNL     1      27.601  28.376  18.317  1.00  0.00    -0.443 OA
BRANCH  31  32
ATOM     32  C   UNL     1      26.941  29.575  17.962  1.00  0.00     0.294 C 
BRANCH  32  33
ATOM     33  C   UNL     1      27.931  30.674  17.805  1.00  0.00     0.120 A 
ATOM     34  C   UNL     1      28.893  30.740  16.819  1.00  0.00     0.138 A 
ATOM     35  N   UNL     1      28.102  31.786  18.541  1.00  0.00    -0.132 NA
ATOM     36  N   UNL     1      29.620  31.880  16.979  1.00  0.00    -0.249 N 
ATOM     37  N   UNL     1      29.098  32.476  18.037  1.00  0.00    -0.067 NA
BRANCH  36  38
ATOM     38  C   UNL     1      30.734  32.339  16.154  1.00  0.00     0.112 C 
ATOM     39  C   UNL     1      31.482  33.367  16.919  1.00  0.00     0.046 C 
ATOM     40  C   UNL     1      30.178  32.789  14.850  1.00  0.00     0.046 C 
ATOM     41  C   UNL     1      32.105  34.444  16.108  1.00  0.00     0.058 C 
ATOM     42  C   UNL     1      30.736  34.100  14.360  1.00  0.00     0.058 C 
ATOM     43  N   UNL     1      32.148  34.119  14.700  1.00  0.00    -0.300 NA
ATOM     44  C   UNL     1      31.175  35.647  16.127  1.00  0.00     0.021 C 
ATOM     45  C   UNL     1      30.097  35.208  15.157  1.00  0.00     0.021 C 
ATOM     46  C   UNL     1      32.869  35.135  13.976  1.00  0.00     0.105 C 
ENDBRANCH  36  38
ENDBRANCH  32  33
ENDBRANCH  31  32
ENDBRANCH  28  31
ENDBRANCH   1  27
TORSDOF 15
BEGIN_RES LYS A 131
REMARK  4 active torsions:
REMARK  status: ('A' for Active; 'I' for Inactive)
REMARK    1  A    between atoms: CA   and  CB  
REMARK    2  A    between atoms: CB   and  CG  
REMARK    3  A    between atoms: CG   and  CD  
REMARK    4  A    between atoms: CD   and  CE  
ROOT
ATOM      1  CA  LYS A 131      29.867  25.555  16.977  1.00 20.52     0.186 C 
ENDROOT
BRANCH   1   2
ATOM      2  CB  LYS A 131      28.345  25.722  17.026  1.00 20.94     0.034 C 
BRANCH   2   3
ATOM      3  CG  LYS A 131      27.601  24.401  16.899  1.00 22.96     0.005 C 
BRANCH   3   4
ATOM      4  CD  LYS A 131      26.161  24.520  17.314  1.00 24.33     0.041 C 
BRANCH   4   5
ATOM      5  CE  LYS A 131      26.084  25.102  18.722  1.00 26.91     0.338 C 
ATOM      6  NZ  LYS A 131      25.021  26.132  18.800  1.00 27.40     0.618 N 
ENDBRANCH   4   5
ENDBRANCH   3   4
ENDBRANCH   2   3
ENDBRANCH   1   2
END_RES LYS A 131
BEGIN_RES LYS A 135
REMARK  4 active torsions:
REMARK  status: ('A' for Active; 'I' for Inactive)
REMARK    5  A    between atoms: CA   and  CB  
REMARK    6  A    between atoms: CB   and  CG  
REMARK    7  A    between atoms: CG   and  CD  
REMARK    8  A    between atoms: CD   and  CE  
ROOT
ATOM      7  CA  LYS A 135      33.193  34.663   9.290  1.00 25.02     0.186 C 
ENDROOT
BRANCH   7   8
ATOM      8  CB  LYS A 135      32.060  35.360  10.034  1.00 26.63     0.034 C 
BRANCH   8   9
ATOM      9  CG  LYS A 135      30.799  35.496   9.220  1.00 29.45     0.005 C 
BRANCH   9  10
ATOM     10  CD  LYS A 135      30.170  34.134   8.973  1.00 32.00     0.041 C 
BRANCH  10  11
ATOM     11  CE  LYS A 135      28.691  34.277   8.669  1.00 34.25     0.338 C 
ATOM     12  NZ  LYS A 135      27.861  33.791   9.807  1.00 35.99     0.618 N 
ENDBRANCH  10  11
ENDBRANCH   9  10
ENDBRANCH   8   9
ENDBRANCH   7   8
END_RES LYS A 135
