REMARK VINA RESULT:    -9.188      4.409      6.816
REMARK INTER + INTRA:         -13.496
REMARK INTER:                  -7.285
REMARK INTRA:                  -6.211
REMARK UNBOUND:                 4.555
REMARK SMILES CC(=O)N[C@@H]1[C@@H](O)C[C@](O)(C(=O)O)O[C@H]1C(O)[C@H](O)CNC(=O)OCc1cn(C2CCc3ccccc3NC2=O)nn1
REMARK SMILES IDX 24 1 22 2 21 3 23 5 20 6 18 7 16 8 15 9 9 10 8 11 14 12 6 13
REMARK SMILES IDX 5 14 10 15 11 17 12 18 13 19 7 21 4 23 2 24 1 26 3 27 17 28
REMARK SMILES IDX 19 30 25 32 26 33 27 34 42 35 28 36 41 37 29 38 39 40 38 41
REMARK SMILES IDX 40 42 37 44 32 45 36 46 33 47 35 48 34 49 31 50 30 51
REMARK H PARENT 21 4 10 16 13 20 7 22 4 25 17 29 19 31 38 43
REMARK Flexibility Score: 80.00
ROOT
ATOM      1  O   UNL     1      24.868  40.901   7.600  1.00  0.00    -0.443 OA
ENDROOT
BRANCH   1   2
ATOM      2  C   UNL     1      26.003  40.593   6.891  1.00  0.00     0.407 C 
ATOM      3  N   UNL     1      26.201  39.260   6.394  1.00  0.00    -0.319 N 
ATOM      4  H   UNL     1      25.440  38.573   6.606  1.00  0.00     0.167 HD
ATOM      5  O   UNL     1      26.898  41.443   6.652  1.00  0.00    -0.225 OA
BRANCH   3   6
ATOM      6  C   UNL     1      27.386  38.891   5.643  1.00  0.00     0.154 C 
BRANCH   6   7
ATOM      7  C   UNL     1      27.979  37.653   6.270  1.00  0.00     0.165 C 
BRANCH   7   8
ATOM      8  C   UNL     1      29.098  37.972   7.238  1.00  0.00     0.176 C 
BRANCH   8   9
ATOM      9  C   UNL     1      28.761  37.446   8.642  1.00  0.00     0.178 C 
ATOM     10  C   UNL     1      27.071  36.097   9.551  1.00  0.00     0.269 C 
ATOM     11  C   UNL     1      27.212  36.933  10.785  1.00  0.00     0.112 C 
ATOM     12  O   UNL     1      27.864  36.460   8.497  1.00  0.00    -0.332 OA
ATOM     13  C   UNL     1      27.150  38.380  10.325  1.00  0.00     0.145 C 
ATOM     14  C   UNL     1      28.356  38.631   9.456  1.00  0.00     0.142 C 
BRANCH  10  15
ATOM     15  O   UNL     1      25.743  36.219   9.092  1.00  0.00    -0.357 OA
ATOM     16  H   UNL     1      25.216  36.466   9.896  1.00  0.00     0.214 HD
ENDBRANCH  10  15
BRANCH  10  17
ATOM     17  C   UNL     1      27.302  34.655   9.817  1.00  0.00     0.364 C 
ATOM     18  O   UNL     1      28.135  34.031   9.126  1.00  0.00    -0.246 OA
BRANCH  17  19
ATOM     19  O   UNL     1      26.620  33.965  10.816  1.00  0.00    -0.477 OA
ATOM     20  H   UNL     1      25.632  33.746  10.622  1.00  0.00     0.296 HD
ENDBRANCH  17  19
ENDBRANCH  10  17
BRANCH  13  21
ATOM     21  O   UNL     1      26.004  38.517   9.549  1.00  0.00    -0.391 OA
ATOM     22  H   UNL     1      25.892  37.682   9.035  1.00  0.00     0.211 HD
ENDBRANCH  13  21
BRANCH  14  23
ATOM     23  N   UNL     1      29.457  38.956  10.346  1.00  0.00    -0.348 N 
ATOM     24  C   UNL     1      30.120  40.211  10.348  1.00  0.00     0.217 C 
ATOM     25  H   UNL     1      29.788  38.215  11.037  1.00  0.00     0.163 HD
ATOM     26  C   UNL     1      31.232  40.424  11.304  1.00  0.00     0.114 C 
ATOM     27  O   UNL     1      29.736  41.093   9.535  1.00  0.00    -0.275 OA
ENDBRANCH  14  23
ENDBRANCH   8   9
BRANCH   8  28
ATOM     28  O   UNL     1      29.171  39.368   7.310  1.00  0.00    -0.388 OA
ATOM     29  H   UNL     1      28.540  39.757   7.953  1.00  0.00     0.211 HD
ENDBRANCH   8  28
ENDBRANCH   7   8
BRANCH   7  30
ATOM     30  O   UNL     1      28.406  36.750   5.304  1.00  0.00    -0.388 OA
ATOM     31  H   UNL     1      28.827  37.188   4.535  1.00  0.00     0.211 HD
ENDBRANCH   7  30
ENDBRANCH   6   7
ENDBRANCH   3   6
ENDBRANCH   1   2
BRANCH   1  32
ATOM     32  C   UNL     1      23.592  40.423   7.210  1.00  0.00     0.294 C 
BRANCH  32  33
ATOM     33  C   UNL     1      23.252  39.161   7.914  1.00  0.00     0.120 A 
ATOM     34  C   UNL     1      22.405  39.078   9.024  1.00  0.00     0.139 A 
ATOM     35  N   UNL     1      23.646  37.896   7.679  1.00  0.00    -0.132 NA
ATOM     36  N   UNL     1      22.321  37.794   9.411  1.00  0.00    -0.240 N 
ATOM     37  N   UNL     1      23.079  37.113   8.580  1.00  0.00    -0.066 NA
BRANCH  36  38
ATOM     38  C   UNL     1      21.558  37.271  10.523  1.00  0.00     0.198 CG0
ATOM     39  G   UNL     1      22.238  37.652  11.798  1.00  0.00     0.000 G0
BRANCH  38  40
ATOM     40  C   UNL     1      21.355  35.800  10.397  1.00  0.00     0.249 C 
ATOM     41  N   UNL     1      22.091  34.693  10.882  1.00  0.00    -0.324 N 
ATOM     42  O   UNL     1      20.328  35.520   9.730  1.00  0.00    -0.272 OA
ATOM     43  H   UNL     1      21.919  33.752  10.468  1.00  0.00     0.170 HD
BRANCH  41  44
ATOM     44  C   UNL     1      23.090  34.698  11.918  1.00  0.00     0.044 A 
ATOM     45  C   UNL     1      23.798  35.787  12.391  1.00  0.00    -0.024 A 
ATOM     46  C   UNL     1      23.276  33.425  12.423  1.00  0.00     0.026 A 
ATOM     47  C   UNL     1      24.705  35.587  13.385  1.00  0.00     0.006 A 
ATOM     48  C   UNL     1      24.195  33.226  13.430  1.00  0.00     0.002 A 
ATOM     49  C   UNL     1      24.900  34.311  13.899  1.00  0.00     0.000 A 
BRANCH  45  50
ATOM     50  C   UNL     1      23.680  37.195  11.925  1.00  0.00     0.040 C 
BRANCH  50  51
ATOM     51  C   UNL     1      22.235  37.659  11.847  1.00  0.00     0.042 CG0
ATOM     52  G   UNL     1      21.586  37.281  10.556  1.00  0.00     0.000 G0
ENDBRANCH  50  51
ENDBRANCH  45  50
ENDBRANCH  41  44
ENDBRANCH  38  40
ENDBRANCH  36  38
ENDBRANCH  32  33
ENDBRANCH   1  32
TORSDOF 15
BEGIN_RES LYS A 131
REMARK  4 active torsions:
REMARK  status: ('A' for Active; 'I' for Inactive)
REMARK    1  A    between atoms: CA   and  CB  
REMARK    2  A    between atoms: CB   and  CG  
REMARK    3  A    between atoms: CG   and  CD  
REMARK    4  A    between atoms: CD   and  CE  
ROOT
ATOM      1  CA  LYS A 131      29.867  25.555  16.977  1.00 20.52     0.186 C 
ENDROOT
BRANCH   1   2
ATOM      2  CB  LYS A 131      28.345  25.722  17.026  1.00 20.94     0.034 C 
BRANCH   2   3
ATOM      3  CG  LYS A 131      27.601  24.400  16.908  1.00 22.96     0.005 C 
BRANCH   3   4
ATOM      4  CD  LYS A 131      26.463  24.301  17.886  1.00 24.33     0.041 C 
BRANCH   4   5
ATOM      5  CE  LYS A 131      25.979  25.702  18.247  1.00 26.91     0.338 C 
ATOM      6  NZ  LYS A 131      25.846  25.842  19.716  1.00 27.40     0.618 N 
ENDBRANCH   4   5
ENDBRANCH   3   4
ENDBRANCH   2   3
ENDBRANCH   1   2
END_RES LYS A 131
BEGIN_RES LYS A 135
REMARK  4 active torsions:
REMARK  status: ('A' for Active; 'I' for Inactive)
REMARK    5  A    between atoms: CA   and  CB  
REMARK    6  A    between atoms: CB   and  CG  
REMARK    7  A    between atoms: CG   and  CD  
REMARK    8  A    between atoms: CD   and  CE  
ROOT
ATOM      7  CA  LYS A 135      33.193  34.663   9.290  1.00 25.02     0.186 C 
ENDROOT
BRANCH   7   8
ATOM      8  CB  LYS A 135      32.060  35.360  10.034  1.00 26.63     0.034 C 
BRANCH   8   9
ATOM      9  CG  LYS A 135      32.526  36.180  11.210  1.00 29.45     0.005 C 
BRANCH   9  10
ATOM     10  CD  LYS A 135      31.449  36.240  12.282  1.00 32.00     0.041 C 
BRANCH  10  11
ATOM     11  CE  LYS A 135      30.287  35.333  11.922  1.00 34.25     0.338 C 
ATOM     12  NZ  LYS A 135      29.837  34.544  13.102  1.00 35.99     0.618 N 
ENDBRANCH  10  11
ENDBRANCH   9  10
ENDBRANCH   8   9
ENDBRANCH   7   8
END_RES LYS A 135
