REMARK VINA RESULT:    -4.881      2.551      4.232
REMARK INTER + INTRA:         -13.474
REMARK INTER:                  -8.059
REMARK INTRA:                  -5.416
REMARK UNBOUND:                -5.026
REMARK SMILES CC(=O)N[C@@H]1[C@@H](O)C[C@](O)(C(=O)O)O[C@H]1C(O)[C@H](O)CNC(=O)OCc1cn(C2CCCC2)nn1
REMARK SMILES IDX 20 1 18 2 16 3 15 4 9 5 8 6 14 7 6 8 5 9 10 10 11 12 12 13
REMARK SMILES IDX 13 14 7 16 4 18 2 19 1 21 3 22 17 23 19 25 21 27 22 28 23 30
REMARK SMILES IDX 24 31 25 32 26 33 27 34 35 35 28 36 34 37 29 38 30 39 33 40
REMARK SMILES IDX 31 41 32 42
REMARK H PARENT 10 11 13 15 7 17 4 20 17 24 19 26 21 29
REMARK Flexibility Score: inf
ROOT
ATOM      1  C   UNL     1      26.603  33.079  17.456  1.00  0.00     0.154 C 
ENDROOT
BRANCH   1   2
ATOM      2  C   UNL     1      27.908  32.998  16.715  1.00  0.00     0.165 C 
BRANCH   2   3
ATOM      3  C   UNL     1      28.418  34.421  16.590  1.00  0.00     0.176 C 
BRANCH   3   4
ATOM      4  C   UNL     1      29.806  34.486  16.037  1.00  0.00     0.178 C 
ATOM      5  C   UNL     1      30.933  34.836  14.042  1.00  0.00     0.269 C 
ATOM      6  C   UNL     1      32.115  34.596  14.968  1.00  0.00     0.112 C 
ATOM      7  O   UNL     1      29.783  34.351  14.669  1.00  0.00    -0.332 OA
ATOM      8  C   UNL     1      31.875  33.267  15.655  1.00  0.00     0.145 C 
ATOM      9  C   UNL     1      30.753  33.498  16.660  1.00  0.00     0.142 C 
BRANCH   5  10
ATOM     10  O   UNL     1      31.195  34.130  12.874  1.00  0.00    -0.357 OA
ATOM     11  H   UNL     1      31.906  34.641  12.377  1.00  0.00     0.214 HD
ENDBRANCH   5  10
BRANCH   5  12
ATOM     12  C   UNL     1      30.768  36.257  13.713  1.00  0.00     0.364 C 
ATOM     13  O   UNL     1      31.565  37.127  14.142  1.00  0.00    -0.246 OA
BRANCH  12  14
ATOM     14  O   UNL     1      29.720  36.681  12.913  1.00  0.00    -0.477 OA
ATOM     15  H   UNL     1      29.525  37.677  12.745  1.00  0.00     0.296 HD
ENDBRANCH  12  14
ENDBRANCH   5  12
BRANCH   8  16
ATOM     16  O   UNL     1      31.438  32.372  14.664  1.00  0.00    -0.391 OA
ATOM     17  H   UNL     1      32.193  32.254  14.030  1.00  0.00     0.211 HD
ENDBRANCH   8  16
BRANCH   9  18
ATOM     18  N   UNL     1      31.330  33.994  17.893  1.00  0.00    -0.348 N 
ATOM     19  C   UNL     1      31.134  33.308  19.112  1.00  0.00     0.217 C 
ATOM     20  H   UNL     1      31.895  34.861  17.890  1.00  0.00     0.163 HD
ATOM     21  C   UNL     1      31.696  33.759  20.410  1.00  0.00     0.114 C 
ATOM     22  O   UNL     1      30.449  32.261  19.098  1.00  0.00    -0.275 OA
ENDBRANCH   9  18
ENDBRANCH   3   4
BRANCH   3  23
ATOM     23  O   UNL     1      27.568  35.069  15.693  1.00  0.00    -0.388 OA
ATOM     24  H   UNL     1      27.545  36.040  15.803  1.00  0.00     0.211 HD
ENDBRANCH   3  23
ENDBRANCH   2   3
BRANCH   2  25
ATOM     25  O   UNL     1      27.761  32.444  15.465  1.00  0.00    -0.388 OA
ATOM     26  H   UNL     1      28.523  32.723  14.890  1.00  0.00     0.211 HD
ENDBRANCH   2  25
ENDBRANCH   1   2
BRANCH   1  27
ATOM     27  N   UNL     1      25.467  33.464  16.679  1.00  0.00    -0.319 N 
ATOM     28  C   UNL     1      24.639  32.608  15.945  1.00  0.00     0.407 C 
ATOM     29  H   UNL     1      25.239  34.509  16.665  1.00  0.00     0.167 HD
ATOM     30  O   UNL     1      24.868  31.377  15.922  1.00  0.00    -0.225 OA
BRANCH  28  31
ATOM     31  O   UNL     1      23.542  33.121  15.228  1.00  0.00    -0.443 OA
BRANCH  31  32
ATOM     32  C   UNL     1      23.619  33.089  13.815  1.00  0.00     0.294 C 
BRANCH  32  33
ATOM     33  C   UNL     1      24.630  34.078  13.382  1.00  0.00     0.120 A 
ATOM     34  C   UNL     1      25.346  33.979  12.196  1.00  0.00     0.138 A 
ATOM     35  N   UNL     1      25.053  35.191  13.970  1.00  0.00    -0.132 NA
ATOM     36  N   UNL     1      26.161  35.031  12.126  1.00  0.00    -0.249 N 
ATOM     37  N   UNL     1      25.974  35.759  13.209  1.00  0.00    -0.067 NA
BRANCH  36  38
ATOM     38  C   UNL     1      27.076  35.273  11.015  1.00  0.00     0.109 C 
ATOM     39  C   UNL     1      27.193  33.994  10.236  1.00  0.00     0.027 C 
ATOM     40  C   UNL     1      26.462  36.302  10.093  1.00  0.00     0.027 C 
ATOM     41  C   UNL     1      26.807  34.312   8.827  1.00  0.00     0.002 C 
ATOM     42  C   UNL     1      25.871  35.482   8.960  1.00  0.00     0.002 C 
ENDBRANCH  36  38
ENDBRANCH  32  33
ENDBRANCH  31  32
ENDBRANCH  28  31
ENDBRANCH   1  27
TORSDOF 15
BEGIN_RES LYS A 131
REMARK  4 active torsions:
REMARK  status: ('A' for Active; 'I' for Inactive)
REMARK    1  A    between atoms: CA   and  CB  
REMARK    2  A    between atoms: CB   and  CG  
REMARK    3  A    between atoms: CG   and  CD  
REMARK    4  A    between atoms: CD   and  CE  
ROOT
ATOM      1  CA  LYS A 131      29.867  25.555  16.977  1.00 20.52     0.186 C 
ENDROOT
BRANCH   1   2
ATOM      2  CB  LYS A 131      28.345  25.722  17.026  1.00 20.94     0.034 C 
BRANCH   2   3
ATOM      3  CG  LYS A 131      27.601  24.403  16.888  1.00 22.96     0.005 C 
BRANCH   3   4
ATOM      4  CD  LYS A 131      26.651  24.166  18.029  1.00 24.33     0.041 C 
BRANCH   4   5
ATOM      5  CE  LYS A 131      25.531  23.236  17.575  1.00 26.91     0.338 C 
ATOM      6  NZ  LYS A 131      24.473  24.002  16.874  1.00 27.40     0.618 N 
ENDBRANCH   4   5
ENDBRANCH   3   4
ENDBRANCH   2   3
ENDBRANCH   1   2
END_RES LYS A 131
BEGIN_RES LYS A 135
REMARK  4 active torsions:
REMARK  status: ('A' for Active; 'I' for Inactive)
REMARK    5  A    between atoms: CA   and  CB  
REMARK    6  A    between atoms: CB   and  CG  
REMARK    7  A    between atoms: CG   and  CD  
REMARK    8  A    between atoms: CD   and  CE  
ROOT
ATOM      7  CA  LYS A 135      33.193  34.663   9.290  1.00 25.02     0.186 C 
ENDROOT
BRANCH   7   8
ATOM      8  CB  LYS A 135      32.060  35.360  10.034  1.00 26.63     0.034 C 
BRANCH   8   9
ATOM      9  CG  LYS A 135      30.736  35.290   9.318  1.00 29.45     0.005 C 
BRANCH   9  10
ATOM     10  CD  LYS A 135      30.096  36.667   9.237  1.00 32.00     0.041 C 
BRANCH  10  11
ATOM     11  CE  LYS A 135      29.386  36.847   7.908  1.00 34.25     0.338 C 
ATOM     12  NZ  LYS A 135      29.372  35.577   7.131  1.00 35.99     0.618 N 
ENDBRANCH  10  11
ENDBRANCH   9  10
ENDBRANCH   8   9
ENDBRANCH   7   8
END_RES LYS A 135
