REMARK VINA RESULT:    -3.669      7.491     12.982
REMARK INTER + INTRA:         -14.365
REMARK INTER:                  -9.121
REMARK INTRA:                  -5.244
REMARK UNBOUND:                -7.158
REMARK SMILES CCN(CC)CCn1cc(COC(=O)NC[C@@H](O)C(O)[C@@H]2O[C@@](O)(C(=O)O)C[C@H](O)[C@H]2NC(C)=O)nn1
REMARK SMILES IDX 15 1 13 2 14 3 16 5 17 6 19 7 21 8 23 9 28 10 22 11 29 12
REMARK SMILES IDX 31 13 24 14 25 16 26 17 27 18 30 20 32 22 33 23 34 25 35 26
REMARK SMILES IDX 20 27 18 29 12 31 11 32 10 33 9 34 36 35 8 36 37 37 7 38
REMARK SMILES IDX 6 39 3 40 2 41 1 42 4 43 5 44
REMARK H PARENT 15 4 24 15 27 19 30 21 32 24 20 28 18 30
REMARK Flexibility Score: inf
ROOT
ATOM      1  N   UNL     1      28.383  35.033   7.263  1.00  0.00    -0.319 N 
ATOM      2  C   UNL     1      29.234  34.479   8.267  1.00  0.00     0.407 C 
ATOM      3  O   UNL     1      30.469  34.592   8.170  1.00  0.00    -0.225 OA
ATOM      4  H   UNL     1      27.367  34.900   7.407  1.00  0.00     0.167 HD
ENDROOT
BRANCH   1   5
ATOM      5  C   UNL     1      28.861  35.734   6.112  1.00  0.00     0.154 C 
BRANCH   5   6
ATOM      6  C   UNL     1      28.339  37.139   5.993  1.00  0.00     0.165 C 
BRANCH   6   7
ATOM      7  C   UNL     1      28.277  37.795   7.354  1.00  0.00     0.176 C 
BRANCH   7   8
ATOM      8  C   UNL     1      28.745  39.221   7.303  1.00  0.00     0.178 C 
ATOM      9  C   UNL     1      30.887  38.842   8.199  1.00  0.00     0.269 C 
ATOM     10  C   UNL     1      30.376  39.337   9.545  1.00  0.00     0.112 C 
ATOM     11  O   UNL     1      30.108  39.240   7.152  1.00  0.00    -0.332 OA
ATOM     12  C   UNL     1      29.465  40.532   9.247  1.00  0.00     0.145 C 
ATOM     13  C   UNL     1      28.301  40.016   8.480  1.00  0.00     0.142 C 
BRANCH   9  14
ATOM     14  O   UNL     1      31.080  37.468   8.311  1.00  0.00    -0.357 OA
ATOM     15  H   UNL     1      30.466  37.075   8.994  1.00  0.00     0.214 HD
ENDBRANCH   9  14
BRANCH   9  16
ATOM     16  C   UNL     1      32.234  39.462   7.985  1.00  0.00     0.364 C 
ATOM     17  O   UNL     1      32.739  40.261   8.802  1.00  0.00    -0.246 OA
BRANCH  16  18
ATOM     18  O   UNL     1      32.941  39.137   6.847  1.00  0.00    -0.477 OA
ATOM     19  H   UNL     1      33.896  39.437   6.675  1.00  0.00     0.296 HD
ENDBRANCH  16  18
ENDBRANCH   9  16
BRANCH  12  20
ATOM     20  O   UNL     1      29.113  41.107  10.467  1.00  0.00    -0.391 OA
ATOM     21  H   UNL     1      28.175  40.789  10.661  1.00  0.00     0.211 HD
ENDBRANCH  12  20
BRANCH  13  22
ATOM     22  N   UNL     1      27.341  41.048   8.137  1.00  0.00    -0.348 N 
ATOM     23  C   UNL     1      25.956  40.962   8.458  1.00  0.00     0.217 C 
ATOM     24  H   UNL     1      27.636  41.927   7.624  1.00  0.00     0.163 HD
ATOM     25  C   UNL     1      25.009  42.058   8.079  1.00  0.00     0.114 C 
ATOM     26  O   UNL     1      25.513  39.966   9.061  1.00  0.00    -0.275 OA
ENDBRANCH  13  22
ENDBRANCH   7   8
BRANCH   7  27
ATOM     27  O   UNL     1      26.925  37.700   7.731  1.00  0.00    -0.388 OA
ATOM     28  H   UNL     1      26.557  36.943   7.203  1.00  0.00     0.211 HD
ENDBRANCH   7  27
ENDBRANCH   6   7
BRANCH   6  29
ATOM     29  O   UNL     1      27.170  37.161   5.289  1.00  0.00    -0.388 OA
ATOM     30  H   UNL     1      26.414  36.930   5.884  1.00  0.00     0.211 HD
ENDBRANCH   6  29
ENDBRANCH   5   6
ENDBRANCH   1   5
BRANCH   2  31
ATOM     31  O   UNL     1      28.740  33.806   9.371  1.00  0.00    -0.443 OA
BRANCH  31  32
ATOM     32  C   UNL     1      28.278  34.488  10.530  1.00  0.00     0.294 C 
BRANCH  32  33
ATOM     33  C   UNL     1      26.958  35.088  10.211  1.00  0.00     0.120 A 
ATOM     34  C   UNL     1      26.331  36.043  11.010  1.00  0.00     0.138 A 
ATOM     35  N   UNL     1      26.125  34.883   9.182  1.00  0.00    -0.132 NA
ATOM     36  N   UNL     1      25.175  36.362  10.436  1.00  0.00    -0.251 N 
ATOM     37  N   UNL     1      25.062  35.655   9.332  1.00  0.00    -0.067 NA
BRANCH  36  38
ATOM     38  C   UNL     1      24.212  37.310  10.929  1.00  0.00     0.161 C 
BRANCH  38  39
ATOM     39  C   UNL     1      22.913  37.127  10.165  1.00  0.00     0.108 C 
BRANCH  39  40
ATOM     40  N   UNL     1      22.657  38.162   9.216  1.00  0.00    -0.302 NA
BRANCH  40  41
ATOM     41  C   UNL     1      21.635  39.083   9.587  1.00  0.00     0.081 C 
ATOM     42  C   UNL     1      21.713  40.259   8.603  1.00  0.00     0.021 C 
ENDBRANCH  40  41
BRANCH  40  43
ATOM     43  C   UNL     1      22.653  37.713   7.865  1.00  0.00     0.081 C 
ATOM     44  C   UNL     1      21.698  36.593   7.592  1.00  0.00     0.021 C 
ENDBRANCH  40  43
ENDBRANCH  39  40
ENDBRANCH  38  39
ENDBRANCH  36  38
ENDBRANCH  32  33
ENDBRANCH  31  32
ENDBRANCH   2  31
TORSDOF 19
BEGIN_RES LYS A 131
REMARK  4 active torsions:
REMARK  status: ('A' for Active; 'I' for Inactive)
REMARK    1  A    between atoms: CA   and  CB  
REMARK    2  A    between atoms: CB   and  CG  
REMARK    3  A    between atoms: CG   and  CD  
REMARK    4  A    between atoms: CD   and  CE  
ROOT
ATOM      1  CA  LYS A 131      29.867  25.555  16.977  1.00 20.52     0.186 C 
ENDROOT
BRANCH   1   2
ATOM      2  CB  LYS A 131      28.345  25.722  17.026  1.00 20.94     0.034 C 
BRANCH   2   3
ATOM      3  CG  LYS A 131      27.601  24.404  16.876  1.00 22.96     0.005 C 
BRANCH   3   4
ATOM      4  CD  LYS A 131      26.155  24.522  17.271  1.00 24.33     0.041 C 
BRANCH   4   5
ATOM      5  CE  LYS A 131      25.797  23.395  18.235  1.00 26.91     0.338 C 
ATOM      6  NZ  LYS A 131      25.029  22.338  17.535  1.00 27.40     0.618 N 
ENDBRANCH   4   5
ENDBRANCH   3   4
ENDBRANCH   2   3
ENDBRANCH   1   2
END_RES LYS A 131
BEGIN_RES LYS A 135
REMARK  4 active torsions:
REMARK  status: ('A' for Active; 'I' for Inactive)
REMARK    5  A    between atoms: CA   and  CB  
REMARK    6  A    between atoms: CB   and  CG  
REMARK    7  A    between atoms: CG   and  CD  
REMARK    8  A    between atoms: CD   and  CE  
ROOT
ATOM      7  CA  LYS A 135      33.193  34.663   9.290  1.00 25.02     0.186 C 
ENDROOT
BRANCH   7   8
ATOM      8  CB  LYS A 135      32.060  35.360  10.034  1.00 26.63     0.034 C 
BRANCH   8   9
ATOM      9  CG  LYS A 135      32.533  36.261  11.145  1.00 29.45     0.005 C 
BRANCH   9  10
ATOM     10  CD  LYS A 135      31.520  36.294  12.278  1.00 32.00     0.041 C 
BRANCH  10  11
ATOM     11  CE  LYS A 135      31.695  35.090  13.184  1.00 34.25     0.338 C 
ATOM     12  NZ  LYS A 135      30.399  34.391  13.403  1.00 35.99     0.618 N 
ENDBRANCH  10  11
ENDBRANCH   9  10
ENDBRANCH   8   9
ENDBRANCH   7   8
END_RES LYS A 135
