REMARK VINA RESULT:    -4.227      3.763      7.780
REMARK INTER + INTRA:         -13.870
REMARK INTER:                  -8.586
REMARK INTRA:                  -5.284
REMARK UNBOUND:                -6.555
REMARK SMILES CC(=O)N[C@@H]1[C@@H](O)C[C@](O)(C(=O)O)O[C@H]1C(O)[C@H](O)CNC(=O)OCc1cn([C@H]2C[C@H]3CC[C@@H](C2)N3C)nn1
REMARK SMILES IDX 20 1 18 2 16 3 15 4 9 5 8 6 14 7 6 8 5 9 10 10 11 12 12 13
REMARK SMILES IDX 13 14 7 16 4 18 2 19 1 21 3 22 17 23 19 25 21 27 22 28 23 30
REMARK SMILES IDX 24 31 25 32 26 33 27 34 39 35 28 36 38 37 29 38 35 39 30 40
REMARK SMILES IDX 34 41 31 42 36 43 33 44 32 45 37 46
REMARK H PARENT 10 11 13 15 7 17 4 20 17 24 19 26 21 29
REMARK Flexibility Score: inf
ROOT
ATOM      1  C   UNL     1      25.493  34.646  15.433  1.00  0.00     0.154 C 
ENDROOT
BRANCH   1   2
ATOM      2  C   UNL     1      26.777  33.999  15.823  1.00  0.00     0.165 C 
BRANCH   2   3
ATOM      3  C   UNL     1      27.988  34.628  15.207  1.00  0.00     0.176 C 
BRANCH   3   4
ATOM      4  C   UNL     1      29.208  33.740  15.276  1.00  0.00     0.178 C 
ATOM      5  C   UNL     1      30.632  32.729  16.791  1.00  0.00     0.269 C 
ATOM      6  C   UNL     1      31.329  32.387  15.502  1.00  0.00     0.112 C 
ATOM      7  O   UNL     1      29.421  33.376  16.598  1.00  0.00    -0.332 OA
ATOM      8  C   UNL     1      31.530  33.565  14.598  1.00  0.00     0.145 C 
ATOM      9  C   UNL     1      30.414  34.545  14.836  1.00  0.00     0.142 C 
BRANCH   5  10
ATOM     10  O   UNL     1      31.445  33.450  17.664  1.00  0.00    -0.357 OA
ATOM     11  H   UNL     1      32.018  32.841  18.185  1.00  0.00     0.214 HD
ENDBRANCH   5  10
BRANCH   5  12
ATOM     12  C   UNL     1      30.320  31.434  17.474  1.00  0.00     0.364 C 
ATOM     13  O   UNL     1      30.530  31.291  18.725  1.00  0.00    -0.246 OA
BRANCH  12  14
ATOM     14  O   UNL     1      29.799  30.345  16.814  1.00  0.00    -0.477 OA
ATOM     15  H   UNL     1      28.922  30.475  16.295  1.00  0.00     0.296 HD
ENDBRANCH  12  14
ENDBRANCH   5  12
BRANCH   8  16
ATOM     16  O   UNL     1      32.786  34.119  14.675  1.00  0.00    -0.391 OA
ATOM     17  H   UNL     1      32.733  34.912  15.270  1.00  0.00     0.211 HD
ENDBRANCH   8  16
BRANCH   9  18
ATOM     18  N   UNL     1      30.132  35.378  13.694  1.00  0.00    -0.348 N 
ATOM     19  C   UNL     1      30.773  36.636  13.487  1.00  0.00     0.217 C 
ATOM     20  H   UNL     1      29.439  35.079  12.971  1.00  0.00     0.163 HD
ATOM     21  C   UNL     1      30.440  37.442  12.295  1.00  0.00     0.114 C 
ATOM     22  O   UNL     1      31.608  37.012  14.342  1.00  0.00    -0.275 OA
ENDBRANCH   9  18
ENDBRANCH   3   4
BRANCH   3  23
ATOM     23  O   UNL     1      28.281  35.811  15.886  1.00  0.00    -0.388 OA
ATOM     24  H   UNL     1      28.083  36.601  15.353  1.00  0.00     0.211 HD
ENDBRANCH   3  23
ENDBRANCH   2   3
BRANCH   2  25
ATOM     25  O   UNL     1      26.779  32.628  15.480  1.00  0.00    -0.388 OA
ATOM     26  H   UNL     1      25.886  32.465  15.062  1.00  0.00     0.211 HD
ENDBRANCH   2  25
ENDBRANCH   1   2
BRANCH   1  27
ATOM     27  N   UNL     1      25.539  35.202  14.102  1.00  0.00    -0.319 N 
ATOM     28  C   UNL     1      25.181  34.397  12.989  1.00  0.00     0.407 C 
ATOM     29  H   UNL     1      25.828  36.191  13.907  1.00  0.00     0.167 HD
ATOM     30  O   UNL     1      24.817  33.194  13.096  1.00  0.00    -0.225 OA
BRANCH  28  31
ATOM     31  O   UNL     1      25.206  34.884  11.682  1.00  0.00    -0.443 OA
BRANCH  31  32
ATOM     32  C   UNL     1      24.185  35.709  11.156  1.00  0.00     0.294 C 
BRANCH  32  33
ATOM     33  C   UNL     1      24.674  36.406   9.935  1.00  0.00     0.120 A 
ATOM     34  C   UNL     1      25.757  37.259   9.889  1.00  0.00     0.138 A 
ATOM     35  N   UNL     1      24.201  36.366   8.678  1.00  0.00    -0.132 NA
ATOM     36  N   UNL     1      25.915  37.712   8.614  1.00  0.00    -0.249 N 
ATOM     37  N   UNL     1      24.945  37.139   7.923  1.00  0.00    -0.067 NA
BRANCH  36  38
ATOM     38  C   UNL     1      26.938  38.632   8.126  1.00  0.00     0.112 C 
ATOM     39  C   UNL     1      26.615  38.977   6.720  1.00  0.00     0.046 C 
ATOM     40  C   UNL     1      28.264  37.992   8.341  1.00  0.00     0.046 C 
ATOM     41  C   UNL     1      27.782  39.229   5.835  1.00  0.00     0.058 C 
ATOM     42  C   UNL     1      29.198  38.096   7.163  1.00  0.00     0.058 C 
ATOM     43  N   UNL     1      29.007  39.413   6.580  1.00  0.00    -0.300 NA
ATOM     44  C   UNL     1      28.071  37.952   5.061  1.00  0.00     0.021 C 
ATOM     45  C   UNL     1      28.749  37.105   6.120  1.00  0.00     0.021 C 
ATOM     46  C   UNL     1      30.081  39.774   5.690  1.00  0.00     0.105 C 
ENDBRANCH  36  38
ENDBRANCH  32  33
ENDBRANCH  31  32
ENDBRANCH  28  31
ENDBRANCH   1  27
TORSDOF 15
BEGIN_RES LYS A 131
REMARK  4 active torsions:
REMARK  status: ('A' for Active; 'I' for Inactive)
REMARK    1  A    between atoms: CA   and  CB  
REMARK    2  A    between atoms: CB   and  CG  
REMARK    3  A    between atoms: CG   and  CD  
REMARK    4  A    between atoms: CD   and  CE  
ROOT
ATOM      1  CA  LYS A 131      29.867  25.555  16.977  1.00 20.52     0.186 C 
ENDROOT
BRANCH   1   2
ATOM      2  CB  LYS A 131      28.345  25.722  17.026  1.00 20.94     0.034 C 
BRANCH   2   3
ATOM      3  CG  LYS A 131      27.600  24.411  16.829  1.00 22.96     0.005 C 
BRANCH   3   4
ATOM      4  CD  LYS A 131      26.569  24.179  17.899  1.00 24.33     0.041 C 
BRANCH   4   5
ATOM      5  CE  LYS A 131      25.189  24.065  17.260  1.00 26.91     0.338 C 
ATOM      6  NZ  LYS A 131      24.160  24.674  18.135  1.00 27.40     0.618 N 
ENDBRANCH   4   5
ENDBRANCH   3   4
ENDBRANCH   2   3
ENDBRANCH   1   2
END_RES LYS A 131
BEGIN_RES LYS A 135
REMARK  4 active torsions:
REMARK  status: ('A' for Active; 'I' for Inactive)
REMARK    5  A    between atoms: CA   and  CB  
REMARK    6  A    between atoms: CB   and  CG  
REMARK    7  A    between atoms: CG   and  CD  
REMARK    8  A    between atoms: CD   and  CE  
ROOT
ATOM      7  CA  LYS A 135      33.193  34.663   9.290  1.00 25.02     0.186 C 
ENDROOT
BRANCH   7   8
ATOM      8  CB  LYS A 135      32.060  35.360  10.034  1.00 26.63     0.034 C 
BRANCH   8   9
ATOM      9  CG  LYS A 135      30.795  35.485   9.225  1.00 29.45     0.005 C 
BRANCH   9  10
ATOM     10  CD  LYS A 135      30.164  34.120   9.001  1.00 32.00     0.041 C 
BRANCH  10  11
ATOM     11  CE  LYS A 135      28.753  34.088   9.557  1.00 34.25     0.338 C 
ATOM     12  NZ  LYS A 135      27.760  34.488   8.521  1.00 35.99     0.618 N 
ENDBRANCH  10  11
ENDBRANCH   9  10
ENDBRANCH   8   9
ENDBRANCH   7   8
END_RES LYS A 135
