REMARK VINA RESULT:    -3.909      2.597      5.881
REMARK INTER + INTRA:         -13.510
REMARK INTER:                  -7.558
REMARK INTRA:                  -5.952
REMARK UNBOUND:                -6.059
REMARK SMILES CC(=O)N[C@@H]1[C@@H](O)C[C@](O)(C(=O)O)O[C@H]1C(O)[C@H](O)CNC(=O)OCc1cn(CCOC(C)=O)nn1
REMARK SMILES IDX 21 1 22 2 23 3 20 5 18 6 16 7 15 8 9 9 8 10 14 11 6 12 5 13
REMARK SMILES IDX 10 14 11 16 12 17 13 18 7 20 4 22 2 23 1 25 3 26 17 27 19 29
REMARK SMILES IDX 24 31 25 32 26 33 27 34 36 35 28 36 35 37 29 38 30 39 31 40
REMARK SMILES IDX 32 41 34 42 33 43
REMARK H PARENT 21 4 10 15 13 19 7 21 4 24 17 28 19 30
REMARK Flexibility Score: inf
ROOT
ATOM      1  N   UNL     1      29.472  34.671  13.442  1.00  0.00    -0.319 N 
ATOM      2  C   UNL     1      29.922  35.835  12.780  1.00  0.00     0.407 C 
ATOM      3  O   UNL     1      29.124  36.562  12.171  1.00  0.00    -0.225 OA
ATOM      4  H   UNL     1      30.219  34.106  13.933  1.00  0.00     0.167 HD
ENDROOT
BRANCH   1   5
ATOM      5  C   UNL     1      28.097  34.223  13.488  1.00  0.00     0.154 C 
BRANCH   5   6
ATOM      6  C   UNL     1      27.614  34.054  14.878  1.00  0.00     0.165 C 
BRANCH   6   7
ATOM      7  C   UNL     1      28.642  34.249  15.971  1.00  0.00     0.176 C 
BRANCH   7   8
ATOM      8  C   UNL     1      28.764  33.110  16.938  1.00  0.00     0.178 C 
ATOM      9  C   UNL     1      30.801  33.890  17.747  1.00  0.00     0.269 C 
ATOM     10  C   UNL     1      31.500  33.188  16.648  1.00  0.00     0.112 C 
ATOM     11  O   UNL     1      29.537  33.453  18.046  1.00  0.00    -0.332 OA
ATOM     12  C   UNL     1      30.786  32.047  16.018  1.00  0.00     0.145 C 
ATOM     13  C   UNL     1      29.365  31.846  16.414  1.00  0.00     0.142 C 
BRANCH   9  14
ATOM     14  O   UNL     1      30.688  35.280  17.495  1.00  0.00    -0.357 OA
ATOM     15  H   UNL     1      31.485  35.768  17.808  1.00  0.00     0.214 HD
ENDBRANCH   9  14
BRANCH   9  16
ATOM     16  C   UNL     1      31.590  33.804  19.008  1.00  0.00     0.364 C 
ATOM     17  O   UNL     1      32.516  34.646  19.265  1.00  0.00    -0.246 OA
BRANCH  16  18
ATOM     18  O   UNL     1      31.389  32.833  19.977  1.00  0.00    -0.477 OA
ATOM     19  H   UNL     1      30.607  32.973  20.626  1.00  0.00     0.296 HD
ENDBRANCH  16  18
ENDBRANCH   9  16
BRANCH  12  20
ATOM     20  O   UNL     1      30.828  32.222  14.632  1.00  0.00    -0.391 OA
ATOM     21  H   UNL     1      29.956  32.593  14.293  1.00  0.00     0.211 HD
ENDBRANCH  12  20
BRANCH  13  22
ATOM     22  N   UNL     1      29.170  30.838  17.430  1.00  0.00    -0.348 N 
ATOM     23  C   UNL     1      27.994  30.091  17.554  1.00  0.00     0.217 C 
ATOM     24  H   UNL     1      29.954  30.680  18.090  1.00  0.00     0.163 HD
ATOM     25  C   UNL     1      27.768  29.048  18.587  1.00  0.00     0.114 C 
ATOM     26  O   UNL     1      27.083  30.325  16.737  1.00  0.00    -0.275 OA
ENDBRANCH  13  22
ENDBRANCH   7   8
BRANCH   7  27
ATOM     27  O   UNL     1      28.038  35.290  16.776  1.00  0.00    -0.388 OA
ATOM     28  H   UNL     1      27.063  35.190  16.550  1.00  0.00     0.211 HD
ENDBRANCH   7  27
ENDBRANCH   6   7
BRANCH   6  29
ATOM     29  O   UNL     1      26.725  33.055  15.137  1.00  0.00    -0.388 OA
ATOM     30  H   UNL     1      27.131  32.176  15.193  1.00  0.00     0.211 HD
ENDBRANCH   6  29
ENDBRANCH   5   6
ENDBRANCH   1   5
BRANCH   2  31
ATOM     31  O   UNL     1      31.291  36.186  12.808  1.00  0.00    -0.443 OA
BRANCH  31  32
ATOM     32  C   UNL     1      32.248  35.269  13.338  1.00  0.00     0.294 C 
BRANCH  32  33
ATOM     33  C   UNL     1      32.753  35.827  14.608  1.00  0.00     0.120 A 
ATOM     34  C   UNL     1      33.947  35.489  15.225  1.00  0.00     0.138 A 
ATOM     35  N   UNL     1      32.171  36.739  15.397  1.00  0.00    -0.132 NA
ATOM     36  N   UNL     1      34.037  36.207  16.355  1.00  0.00    -0.249 N 
ATOM     37  N   UNL     1      32.957  36.949  16.435  1.00  0.00    -0.067 NA
BRANCH  36  38
ATOM     38  C   UNL     1      35.141  36.143  17.286  1.00  0.00     0.187 C 
BRANCH  38  39
ATOM     39  C   UNL     1      36.417  35.954  16.500  1.00  0.00     0.256 C 
BRANCH  39  40
ATOM     40  O   UNL     1      37.303  35.151  17.224  1.00  0.00    -0.464 OA
BRANCH  40  41
ATOM     41  C   UNL     1      38.266  34.408  16.606  1.00  0.00     0.302 C 
ATOM     42  O   UNL     1      38.647  33.320  17.076  1.00  0.00    -0.253 OA
ATOM     43  C   UNL     1      38.896  34.890  15.328  1.00  0.00     0.139 C 
ENDBRANCH  40  41
ENDBRANCH  39  40
ENDBRANCH  38  39
ENDBRANCH  36  38
ENDBRANCH  32  33
ENDBRANCH  31  32
ENDBRANCH   2  31
TORSDOF 18
BEGIN_RES LYS A 131
REMARK  4 active torsions:
REMARK  status: ('A' for Active; 'I' for Inactive)
REMARK    1  A    between atoms: CA   and  CB  
REMARK    2  A    between atoms: CB   and  CG  
REMARK    3  A    between atoms: CG   and  CD  
REMARK    4  A    between atoms: CD   and  CE  
ROOT
ATOM      1  CA  LYS A 131      29.867  25.555  16.977  1.00 20.52     0.186 C 
ENDROOT
BRANCH   1   2
ATOM      2  CB  LYS A 131      28.345  25.722  17.026  1.00 20.94     0.034 C 
BRANCH   2   3
ATOM      3  CG  LYS A 131      27.601  24.403  16.886  1.00 22.96     0.005 C 
BRANCH   3   4
ATOM      4  CD  LYS A 131      26.291  24.410  17.625  1.00 24.33     0.041 C 
BRANCH   4   5
ATOM      5  CE  LYS A 131      26.195  25.671  18.478  1.00 26.91     0.338 C 
ATOM      6  NZ  LYS A 131      25.090  25.550  19.458  1.00 27.40     0.618 N 
ENDBRANCH   4   5
ENDBRANCH   3   4
ENDBRANCH   2   3
ENDBRANCH   1   2
END_RES LYS A 131
BEGIN_RES LYS A 135
REMARK  4 active torsions:
REMARK  status: ('A' for Active; 'I' for Inactive)
REMARK    5  A    between atoms: CA   and  CB  
REMARK    6  A    between atoms: CB   and  CG  
REMARK    7  A    between atoms: CG   and  CD  
REMARK    8  A    between atoms: CD   and  CE  
ROOT
ATOM      7  CA  LYS A 135      33.193  34.663   9.290  1.00 25.02     0.186 C 
ENDROOT
BRANCH   7   8
ATOM      8  CB  LYS A 135      32.060  35.360  10.034  1.00 26.63     0.034 C 
BRANCH   8   9
ATOM      9  CG  LYS A 135      30.802  35.504   9.217  1.00 29.45     0.005 C 
BRANCH   9  10
ATOM     10  CD  LYS A 135      30.152  34.147   8.989  1.00 32.00     0.041 C 
BRANCH  10  11
ATOM     11  CE  LYS A 135      28.674  34.308   8.692  1.00 34.25     0.338 C 
ATOM     12  NZ  LYS A 135      27.842  33.823   9.828  1.00 35.99     0.618 N 
ENDBRANCH  10  11
ENDBRANCH   9  10
ENDBRANCH   8   9
ENDBRANCH   7   8
END_RES LYS A 135
