REMARK VINA RESULT:    -4.577      0.000      0.000
REMARK INTER + INTRA:         -15.616
REMARK INTER:                  -7.890
REMARK INTRA:                  -7.726
REMARK UNBOUND:                -7.426
REMARK SMILES CC(=O)N[C@@H]1[C@@H](O)C[C@](O)(C(=O)O)O[C@H]1C(O)[C@H](O)CNC(=O)OCc1cn(Cc2ccccc2Br)nn1
REMARK SMILES IDX 21 1 22 2 23 3 20 5 18 6 16 7 15 8 9 9 8 10 14 11 6 12 5 13
REMARK SMILES IDX 10 14 11 16 12 17 13 18 7 20 4 22 2 23 1 25 3 26 17 27 19 29
REMARK SMILES IDX 24 31 25 32 26 33 27 34 38 35 28 36 37 37 29 38 30 39 31 40
REMARK SMILES IDX 35 41 32 42 34 43 36 44 33 45
REMARK H PARENT 21 4 10 15 13 19 7 21 4 24 17 28 19 30
REMARK Flexibility Score: inf
ROOT
ATOM      1  N   UNL     1      25.669  27.420  19.535  1.00  0.00    -0.319 N 
ATOM      2  C   UNL     1      25.839  28.065  18.305  1.00  0.00     0.407 C 
ATOM      3  O   UNL     1      26.948  27.974  17.710  1.00  0.00    -0.225 OA
ATOM      4  H   UNL     1      24.724  27.520  20.000  1.00  0.00     0.167 HD
ENDROOT
BRANCH   1   5
ATOM      5  C   UNL     1      26.683  26.637  20.207  1.00  0.00     0.154 C 
BRANCH   5   6
ATOM      6  C   UNL     1      27.322  27.471  21.296  1.00  0.00     0.165 C 
BRANCH   6   7
ATOM      7  C   UNL     1      28.703  27.941  20.891  1.00  0.00     0.176 C 
BRANCH   7   8
ATOM      8  C   UNL     1      28.774  29.449  20.757  1.00  0.00     0.178 C 
ATOM      9  C   UNL     1      27.399  31.255  20.220  1.00  0.00     0.269 C 
ATOM     10  C   UNL     1      28.335  31.742  19.181  1.00  0.00     0.112 C 
ATOM     11  O   UNL     1      27.539  29.885  20.385  1.00  0.00    -0.332 OA
ATOM     12  C   UNL     1      29.453  30.854  18.792  1.00  0.00     0.145 C 
ATOM     13  C   UNL     1      29.886  29.864  19.835  1.00  0.00     0.142 C 
BRANCH   9  14
ATOM     14  O   UNL     1      26.072  31.429  19.749  1.00  0.00    -0.357 OA
ATOM     15  H   UNL     1      25.436  30.857  20.254  1.00  0.00     0.214 HD
ENDBRANCH   9  14
BRANCH   9  16
ATOM     16  C   UNL     1      27.526  32.011  21.467  1.00  0.00     0.364 C 
ATOM     17  O   UNL     1      26.723  31.892  22.433  1.00  0.00    -0.246 OA
BRANCH  16  18
ATOM     18  O   UNL     1      28.573  32.909  21.613  1.00  0.00    -0.477 OA
ATOM     19  H   UNL     1      29.534  32.619  21.752  1.00  0.00     0.296 HD
ENDBRANCH  16  18
ENDBRANCH   9  16
BRANCH  12  20
ATOM     20  O   UNL     1      29.161  30.203  17.578  1.00  0.00    -0.391 OA
ATOM     21  H   UNL     1      30.059  30.104  17.127  1.00  0.00     0.211 HD
ENDBRANCH  12  20
BRANCH  13  22
ATOM     22  N   UNL     1      31.054  30.326  20.551  1.00  0.00    -0.348 N 
ATOM     23  C   UNL     1      32.146  29.477  20.865  1.00  0.00     0.217 C 
ATOM     24  H   UNL     1      31.109  31.318  20.854  1.00  0.00     0.163 HD
ATOM     25  C   UNL     1      33.356  29.938  21.602  1.00  0.00     0.114 C 
ATOM     26  O   UNL     1      32.054  28.262  20.481  1.00  0.00    -0.275 OA
ENDBRANCH  13  22
ENDBRANCH   7   8
BRANCH   7  27
ATOM     27  O   UNL     1      29.100  27.292  19.727  1.00  0.00    -0.388 OA
ATOM     28  H   UNL     1      28.522  27.615  18.969  1.00  0.00     0.211 HD
ENDBRANCH   7  27
ENDBRANCH   6   7
BRANCH   6  29
ATOM     29  O   UNL     1      27.409  26.613  22.418  1.00  0.00    -0.388 OA
ATOM     30  H   UNL     1      27.073  27.032  23.226  1.00  0.00     0.211 HD
ENDBRANCH   6  29
ENDBRANCH   5   6
ENDBRANCH   1   5
BRANCH   2  31
ATOM     31  O   UNL     1      24.860  28.815  17.669  1.00  0.00    -0.443 OA
BRANCH  31  32
ATOM     32  C   UNL     1      25.063  29.274  16.343  1.00  0.00     0.294 C 
BRANCH  32  33
ATOM     33  C   UNL     1      25.542  30.672  16.321  1.00  0.00     0.120 A 
ATOM     34  C   UNL     1      26.552  31.202  15.504  1.00  0.00     0.138 A 
ATOM     35  N   UNL     1      25.141  31.718  17.051  1.00  0.00    -0.132 NA
ATOM     36  N   UNL     1      26.729  32.489  15.747  1.00  0.00    -0.248 N 
ATOM     37  N   UNL     1      25.833  32.787  16.718  1.00  0.00    -0.067 NA
BRANCH  36  38
ATOM     38  C   UNL     1      27.614  33.504  15.225  1.00  0.00     0.182 C 
BRANCH  38  39
ATOM     39  C   UNL     1      29.004  33.415  15.652  1.00  0.00    -0.012 A 
ATOM     40  C   UNL     1      29.892  32.532  15.030  1.00  0.00     0.007 A 
ATOM     41  C   UNL     1      29.513  34.200  16.645  1.00  0.00     0.023 A 
ATOM     42  C   UNL     1      31.201  32.485  15.421  1.00  0.00     0.000 A 
ATOM     43  C   UNL     1      30.838  34.149  17.038  1.00  0.00     0.016 A 
ATOM     44  Br  UNL     1      28.387  35.427  17.620  1.00  0.00    -0.050 Br
ATOM     45  C   UNL     1      31.703  33.281  16.421  1.00  0.00     0.001 A 
ENDBRANCH  38  39
ENDBRANCH  36  38
ENDBRANCH  32  33
ENDBRANCH  31  32
ENDBRANCH   2  31
TORSDOF 16
BEGIN_RES LYS A 131
REMARK  4 active torsions:
REMARK  status: ('A' for Active; 'I' for Inactive)
REMARK    1  A    between atoms: CA   and  CB  
REMARK    2  A    between atoms: CB   and  CG  
REMARK    3  A    between atoms: CG   and  CD  
REMARK    4  A    between atoms: CD   and  CE  
ROOT
ATOM      1  CA  LYS A 131      29.867  25.555  16.977  1.00 20.52     0.186 C 
ENDROOT
BRANCH   1   2
ATOM      2  CB  LYS A 131      28.345  25.722  17.026  1.00 20.94     0.034 C 
BRANCH   2   3
ATOM      3  CG  LYS A 131      27.600  24.412  16.821  1.00 22.96     0.005 C 
BRANCH   3   4
ATOM      4  CD  LYS A 131      26.163  24.503  17.255  1.00 24.33     0.041 C 
BRANCH   4   5
ATOM      5  CE  LYS A 131      25.715  23.158  17.816  1.00 26.91     0.338 C 
ATOM      6  NZ  LYS A 131      25.485  23.256  19.277  1.00 27.40     0.618 N 
ENDBRANCH   4   5
ENDBRANCH   3   4
ENDBRANCH   2   3
ENDBRANCH   1   2
END_RES LYS A 131
BEGIN_RES LYS A 135
REMARK  4 active torsions:
REMARK  status: ('A' for Active; 'I' for Inactive)
REMARK    5  A    between atoms: CA   and  CB  
REMARK    6  A    between atoms: CB   and  CG  
REMARK    7  A    between atoms: CG   and  CD  
REMARK    8  A    between atoms: CD   and  CE  
ROOT
ATOM      7  CA  LYS A 135      33.193  34.663   9.290  1.00 25.02     0.186 C 
ENDROOT
BRANCH   7   8
ATOM      8  CB  LYS A 135      32.060  35.360  10.034  1.00 26.63     0.034 C 
BRANCH   8   9
ATOM      9  CG  LYS A 135      30.799  35.496   9.220  1.00 29.45     0.005 C 
BRANCH   9  10
ATOM     10  CD  LYS A 135      30.131  34.142   9.036  1.00 32.00     0.041 C 
BRANCH  10  11
ATOM     11  CE  LYS A 135      28.671  34.315   8.661  1.00 34.25     0.338 C 
ATOM     12  NZ  LYS A 135      27.781  33.627   9.637  1.00 35.99     0.618 N 
ENDBRANCH  10  11
ENDBRANCH   9  10
ENDBRANCH   8   9
ENDBRANCH   7   8
END_RES LYS A 135
