REMARK VINA RESULT:    -4.022      6.938     12.114
REMARK INTER + INTRA:         -14.419
REMARK INTER:                  -8.113
REMARK INTRA:                  -6.306
REMARK UNBOUND:                -6.753
REMARK SMILES COCC(C(N)=O)n1cc(COC(=O)NC[C@@H](O)C(O)[C@@H]2O[C@@](O)(C(=O)O)C[C@H](O)[C@H]2NC(C)=O)nn1
REMARK SMILES IDX 15 1 13 2 14 3 16 5 17 6 19 7 21 8 23 9 28 10 22 11 29 12
REMARK SMILES IDX 31 13 24 14 25 16 26 17 27 18 30 20 32 22 33 23 34 25 35 26
REMARK SMILES IDX 20 27 18 29 12 31 11 32 10 33 9 34 36 35 8 36 37 37 4 38
REMARK SMILES IDX 3 39 2 40 1 41 5 42 7 43 6 44
REMARK H PARENT 15 4 24 15 27 19 30 21 32 24 20 28 18 30 6 45 6 46
REMARK Flexibility Score: inf
ROOT
ATOM      1  N   UNL     1      23.542  35.053  12.267  1.00  0.00    -0.319 N 
ATOM      2  C   UNL     1      24.603  34.146  12.458  1.00  0.00     0.407 C 
ATOM      3  O   UNL     1      24.414  32.973  12.851  1.00  0.00    -0.225 OA
ATOM      4  H   UNL     1      23.802  36.015  11.929  1.00  0.00     0.167 HD
ENDROOT
BRANCH   1   5
ATOM      5  C   UNL     1      22.162  34.790  12.489  1.00  0.00     0.154 C 
BRANCH   5   6
ATOM      6  C   UNL     1      21.278  34.694  11.301  1.00  0.00     0.165 C 
BRANCH   6   7
ATOM      7  C   UNL     1      21.093  36.016  10.588  1.00  0.00     0.176 C 
BRANCH   7   8
ATOM      8  C   UNL     1      19.921  36.074   9.662  1.00  0.00     0.178 C 
ATOM      9  C   UNL     1      18.841  34.753   8.099  1.00  0.00     0.269 C 
ATOM     10  C   UNL     1      17.873  35.897   8.252  1.00  0.00     0.112 C 
ATOM     11  O   UNL     1      19.931  34.859   8.945  1.00  0.00    -0.332 OA
ATOM     12  C   UNL     1      18.495  37.237   8.090  1.00  0.00     0.145 C 
ATOM     13  C   UNL     1      19.923  37.174   8.657  1.00  0.00     0.142 C 
BRANCH   9  14
ATOM     14  O   UNL     1      19.196  34.644   6.767  1.00  0.00    -0.357 OA
ATOM     15  H   UNL     1      18.748  35.305   6.183  1.00  0.00     0.214 HD
ENDBRANCH   9  14
BRANCH   9  16
ATOM     16  C   UNL     1      18.113  33.509   8.471  1.00  0.00     0.364 C 
ATOM     17  O   UNL     1      17.835  33.234   9.671  1.00  0.00    -0.246 OA
BRANCH  16  18
ATOM     18  O   UNL     1      17.698  32.578   7.513  1.00  0.00    -0.477 OA
ATOM     19  H   UNL     1      17.016  31.863   7.728  1.00  0.00     0.296 HD
ENDBRANCH  16  18
ENDBRANCH   9  16
BRANCH  12  20
ATOM     20  O   UNL     1      18.516  37.680   6.769  1.00  0.00    -0.391 OA
ATOM     21  H   UNL     1      19.207  37.138   6.300  1.00  0.00     0.211 HD
ENDBRANCH  12  20
BRANCH  13  22
ATOM     22  N   UNL     1      20.219  38.486   9.118  1.00  0.00    -0.348 N 
ATOM     23  C   UNL     1      21.434  39.184   8.762  1.00  0.00     0.217 C 
ATOM     24  H   UNL     1      19.576  39.032   9.731  1.00  0.00     0.163 HD
ATOM     25  C   UNL     1      21.698  40.551   9.267  1.00  0.00     0.114 C 
ATOM     26  O   UNL     1      22.262  38.635   8.026  1.00  0.00    -0.275 OA
ENDBRANCH  13  22
ENDBRANCH   7   8
BRANCH   7  27
ATOM     27  O   UNL     1      22.237  36.100   9.734  1.00  0.00    -0.388 OA
ATOM     28  H   UNL     1      21.972  36.157   8.801  1.00  0.00     0.211 HD
ENDBRANCH   7  27
ENDBRANCH   6   7
BRANCH   6  29
ATOM     29  O   UNL     1      20.004  34.282  11.682  1.00  0.00    -0.388 OA
ATOM     30  H   UNL     1      19.517  33.926  10.901  1.00  0.00     0.211 HD
ENDBRANCH   6  29
ENDBRANCH   5   6
ENDBRANCH   1   5
BRANCH   2  31
ATOM     31  O   UNL     1      25.921  34.522  12.213  1.00  0.00    -0.443 OA
BRANCH  31  32
ATOM     32  C   UNL     1      26.514  34.356  10.951  1.00  0.00     0.294 C 
BRANCH  32  33
ATOM     33  C   UNL     1      26.202  35.494  10.068  1.00  0.00     0.120 A 
ATOM     34  C   UNL     1      27.018  36.562   9.747  1.00  0.00     0.139 A 
ATOM     35  N   UNL     1      25.030  35.670   9.421  1.00  0.00    -0.132 NA
ATOM     36  N   UNL     1      26.322  37.338   8.924  1.00  0.00    -0.237 N 
ATOM     37  N   UNL     1      25.148  36.809   8.734  1.00  0.00    -0.066 NA
BRANCH  36  38
ATOM     38  C   UNL     1      26.784  38.586   8.323  1.00  0.00     0.223 C 
BRANCH  38  39
ATOM     39  C   UNL     1      27.570  38.257   7.085  1.00  0.00     0.197 C 
BRANCH  39  40
ATOM     40  O   UNL     1      27.006  37.198   6.412  1.00  0.00    -0.382 OA
ATOM     41  C   UNL     1      27.902  36.239   5.991  1.00  0.00     0.195 C 
ENDBRANCH  39  40
ENDBRANCH  38  39
BRANCH  38  42
ATOM     42  C   UNL     1      25.589  39.401   7.926  1.00  0.00     0.244 C 
ATOM     43  O   UNL     1      25.225  40.367   8.611  1.00  0.00    -0.273 OA
ATOM     44  N   UNL     1      24.898  39.023   6.745  1.00  0.00    -0.368 N 
ATOM     45  H   UNL     1      24.339  39.748   6.240  1.00  0.00     0.159 HD
ATOM     46  H   UNL     1      24.944  38.060   6.389  1.00  0.00     0.159 HD
ENDBRANCH  38  42
ENDBRANCH  36  38
ENDBRANCH  32  33
ENDBRANCH  31  32
ENDBRANCH   2  31
TORSDOF 18
BEGIN_RES LYS A 131
REMARK  4 active torsions:
REMARK  status: ('A' for Active; 'I' for Inactive)
REMARK    1  A    between atoms: CA   and  CB  
REMARK    2  A    between atoms: CB   and  CG  
REMARK    3  A    between atoms: CG   and  CD  
REMARK    4  A    between atoms: CD   and  CE  
ROOT
ATOM      1  CA  LYS A 131      29.867  25.555  16.977  1.00 20.52     0.186 C 
ENDROOT
BRANCH   1   2
ATOM      2  CB  LYS A 131      28.345  25.722  17.026  1.00 20.94     0.034 C 
BRANCH   2   3
ATOM      3  CG  LYS A 131      27.599  24.479  16.565  1.00 22.96     0.005 C 
BRANCH   3   4
ATOM      4  CD  LYS A 131      27.191  23.604  17.718  1.00 24.33     0.041 C 
BRANCH   4   5
ATOM      5  CE  LYS A 131      25.712  23.251  17.590  1.00 26.91     0.338 C 
ATOM      6  NZ  LYS A 131      24.966  24.365  16.958  1.00 27.40     0.618 N 
ENDBRANCH   4   5
ENDBRANCH   3   4
ENDBRANCH   2   3
ENDBRANCH   1   2
END_RES LYS A 131
BEGIN_RES LYS A 135
REMARK  4 active torsions:
REMARK  status: ('A' for Active; 'I' for Inactive)
REMARK    5  A    between atoms: CA   and  CB  
REMARK    6  A    between atoms: CB   and  CG  
REMARK    7  A    between atoms: CG   and  CD  
REMARK    8  A    between atoms: CD   and  CE  
ROOT
ATOM      7  CA  LYS A 135      33.193  34.663   9.290  1.00 25.02     0.186 C 
ENDROOT
BRANCH   7   8
ATOM      8  CB  LYS A 135      32.060  35.360  10.034  1.00 26.63     0.034 C 
BRANCH   8   9
ATOM      9  CG  LYS A 135      30.752  35.349   9.286  1.00 29.45     0.005 C 
BRANCH   9  10
ATOM     10  CD  LYS A 135      30.465  36.717   8.687  1.00 32.00     0.041 C 
BRANCH  10  11
ATOM     11  CE  LYS A 135      30.613  37.801   9.738  1.00 34.25     0.338 C 
ATOM     12  NZ  LYS A 135      31.634  38.806   9.331  1.00 35.99     0.618 N 
ENDBRANCH  10  11
ENDBRANCH   9  10
ENDBRANCH   8   9
ENDBRANCH   7   8
END_RES LYS A 135
