REMARK VINA RESULT:    -4.980      2.708      6.241
REMARK INTER + INTRA:         -13.899
REMARK INTER:                  -7.518
REMARK INTRA:                  -6.381
REMARK UNBOUND:                -5.134
REMARK SMILES CC(=O)N[C@@H]1[C@@H](O)C[C@](O)(C(=O)O)O[C@H]1C(O)[C@H](O)CNC(=O)OCc1cn(-c2nc(C)nc(N)n2)nn1
REMARK SMILES IDX 21 1 22 2 23 3 20 5 18 6 16 7 15 8 9 9 8 10 14 11 6 12 5 13
REMARK SMILES IDX 10 14 11 16 12 17 13 18 7 20 4 22 2 23 1 25 3 26 17 27 19 29
REMARK SMILES IDX 24 31 25 32 26 33 27 34 38 35 28 36 37 37 29 38 36 39 30 40
REMARK SMILES IDX 34 41 31 42 33 43 32 44 35 45
REMARK H PARENT 21 4 10 15 13 19 7 21 4 24 17 28 19 30 35 46 35 47
REMARK Flexibility Score: inf
ROOT
ATOM      1  N   UNL     1      31.390  33.227  16.789  1.00  0.00    -0.319 N 
ATOM      2  C   UNL     1      31.895  34.534  16.936  1.00  0.00     0.407 C 
ATOM      3  O   UNL     1      31.624  35.287  17.897  1.00  0.00    -0.225 OA
ATOM      4  H   UNL     1      31.647  32.612  15.960  1.00  0.00     0.167 HD
ENDROOT
BRANCH   1   5
ATOM      5  C   UNL     1      30.490  32.689  17.787  1.00  0.00     0.154 C 
BRANCH   5   6
ATOM      6  C   UNL     1      29.175  32.388  17.140  1.00  0.00     0.165 C 
BRANCH   6   7
ATOM      7  C   UNL     1      29.309  31.201  16.208  1.00  0.00     0.176 C 
BRANCH   7   8
ATOM      8  C   UNL     1      28.037  30.375  16.319  1.00  0.00     0.178 C 
ATOM      9  C   UNL     1      26.090  31.554  15.710  1.00  0.00     0.269 C 
ATOM     10  C   UNL     1      25.719  31.761  17.145  1.00  0.00     0.112 C 
ATOM     11  O   UNL     1      27.157  30.816  15.422  1.00  0.00    -0.332 OA
ATOM     12  C   UNL     1      26.101  30.496  17.902  1.00  0.00     0.145 C 
ATOM     13  C   UNL     1      27.622  30.438  17.765  1.00  0.00     0.142 C 
BRANCH   9  14
ATOM     14  O   UNL     1      26.284  32.846  15.168  1.00  0.00    -0.357 OA
ATOM     15  H   UNL     1      25.780  32.964  14.329  1.00  0.00     0.214 HD
ENDBRANCH   9  14
BRANCH   9  16
ATOM     16  C   UNL     1      24.898  30.992  15.025  1.00  0.00     0.364 C 
ATOM     17  O   UNL     1      24.078  31.746  14.442  1.00  0.00    -0.246 OA
BRANCH  16  18
ATOM     18  O   UNL     1      24.637  29.632  14.998  1.00  0.00    -0.477 OA
ATOM     19  H   UNL     1      23.718  29.242  15.219  1.00  0.00     0.296 HD
ENDBRANCH  16  18
ENDBRANCH   9  16
BRANCH  12  20
ATOM     20  O   UNL     1      25.793  30.588  19.245  1.00  0.00    -0.391 OA
ATOM     21  H   UNL     1      25.089  29.905  19.435  1.00  0.00     0.211 HD
ENDBRANCH  12  20
BRANCH  13  22
ATOM     22  N   UNL     1      28.167  29.327  18.514  1.00  0.00    -0.348 N 
ATOM     23  C   UNL     1      28.749  29.520  19.793  1.00  0.00     0.217 C 
ATOM     24  H   UNL     1      28.103  28.389  18.056  1.00  0.00     0.163 HD
ATOM     25  C   UNL     1      29.289  28.343  20.507  1.00  0.00     0.114 C 
ATOM     26  O   UNL     1      28.819  30.648  20.330  1.00  0.00    -0.275 OA
ENDBRANCH  13  22
ENDBRANCH   7   8
BRANCH   7  27
ATOM     27  O   UNL     1      30.405  30.412  16.650  1.00  0.00    -0.388 OA
ATOM     28  H   UNL     1      30.805  30.951  17.391  1.00  0.00     0.211 HD
ENDBRANCH   7  27
ENDBRANCH   6   7
BRANCH   6  29
ATOM     29  O   UNL     1      28.736  33.526  16.448  1.00  0.00    -0.388 OA
ATOM     30  H   UNL     1      28.311  34.162  17.049  1.00  0.00     0.211 HD
ENDBRANCH   6  29
ENDBRANCH   5   6
ENDBRANCH   1   5
BRANCH   2  31
ATOM     31  O   UNL     1      32.761  35.032  15.947  1.00  0.00    -0.443 OA
BRANCH  31  32
ATOM     32  C   UNL     1      32.646  34.494  14.648  1.00  0.00     0.294 C 
BRANCH  32  33
ATOM     33  C   UNL     1      31.582  35.250  13.909  1.00  0.00     0.121 A 
ATOM     34  C   UNL     1      30.373  34.764  13.449  1.00  0.00     0.148 A 
ATOM     35  N   UNL     1      31.585  36.552  13.541  1.00  0.00    -0.131 NA
ATOM     36  N   UNL     1      29.688  35.749  12.833  1.00  0.00    -0.185 N 
ATOM     37  N   UNL     1      30.449  36.818  12.906  1.00  0.00    -0.059 NA
BRANCH  36  38
ATOM     38  C   UNL     1      28.396  35.640  12.227  1.00  0.00     0.257 A 
ATOM     39  N   UNL     1      27.474  34.768  12.677  1.00  0.00    -0.175 NA
ATOM     40  N   UNL     1      28.057  36.412  11.177  1.00  0.00    -0.196 NA
ATOM     41  C   UNL     1      26.251  34.635  12.137  1.00  0.00     0.225 A 
ATOM     42  C   UNL     1      26.837  36.324  10.588  1.00  0.00     0.133 A 
ATOM     43  N   UNL     1      25.963  35.440  11.078  1.00  0.00    -0.198 NA
ATOM     44  C   UNL     1      26.452  37.171   9.427  1.00  0.00     0.090 C 
BRANCH  41  45
ATOM     45  N   UNL     1      25.283  33.723  12.605  1.00  0.00    -0.368 N 
ATOM     46  H   UNL     1      25.070  32.875  12.064  1.00  0.00     0.159 HD
ATOM     47  H   UNL     1      24.790  33.910  13.490  1.00  0.00     0.159 HD
ENDBRANCH  41  45
ENDBRANCH  36  38
ENDBRANCH  32  33
ENDBRANCH  31  32
ENDBRANCH   2  31
TORSDOF 16
BEGIN_RES LYS A 131
REMARK  4 active torsions:
REMARK  status: ('A' for Active; 'I' for Inactive)
REMARK    1  A    between atoms: CA   and  CB  
REMARK    2  A    between atoms: CB   and  CG  
REMARK    3  A    between atoms: CG   and  CD  
REMARK    4  A    between atoms: CD   and  CE  
ROOT
ATOM      1  CA  LYS A 131      29.867  25.555  16.977  1.00 20.52     0.186 C 
ENDROOT
BRANCH   1   2
ATOM      2  CB  LYS A 131      28.345  25.722  17.026  1.00 20.94     0.034 C 
BRANCH   2   3
ATOM      3  CG  LYS A 131      27.601  24.402  16.891  1.00 22.96     0.005 C 
BRANCH   3   4
ATOM      4  CD  LYS A 131      26.526  24.249  17.931  1.00 24.33     0.041 C 
BRANCH   4   5
ATOM      5  CE  LYS A 131      25.157  24.359  17.268  1.00 26.91     0.338 C 
ATOM      6  NZ  LYS A 131      24.494  23.034  17.223  1.00 27.40     0.618 N 
ENDBRANCH   4   5
ENDBRANCH   3   4
ENDBRANCH   2   3
ENDBRANCH   1   2
END_RES LYS A 131
BEGIN_RES LYS A 135
REMARK  4 active torsions:
REMARK  status: ('A' for Active; 'I' for Inactive)
REMARK    5  A    between atoms: CA   and  CB  
REMARK    6  A    between atoms: CB   and  CG  
REMARK    7  A    between atoms: CG   and  CD  
REMARK    8  A    between atoms: CD   and  CE  
ROOT
ATOM      7  CA  LYS A 135      33.193  34.663   9.290  1.00 25.02     0.186 C 
ENDROOT
BRANCH   7   8
ATOM      8  CB  LYS A 135      32.060  35.360  10.034  1.00 26.63     0.034 C 
BRANCH   8   9
ATOM      9  CG  LYS A 135      30.871  35.674   9.163  1.00 29.45     0.005 C 
BRANCH   9  10
ATOM     10  CD  LYS A 135      30.324  34.407   8.524  1.00 32.00     0.041 C 
BRANCH  10  11
ATOM     11  CE  LYS A 135      28.886  34.610   8.086  1.00 34.25     0.338 C 
ATOM     12  NZ  LYS A 135      28.813  35.438   6.851  1.00 35.99     0.618 N 
ENDBRANCH  10  11
ENDBRANCH   9  10
ENDBRANCH   8   9
ENDBRANCH   7   8
END_RES LYS A 135
