REMARK VINA RESULT:    -5.358      1.864      2.675
REMARK INTER + INTRA:         -14.775
REMARK INTER:                  -8.761
REMARK INTRA:                  -6.014
REMARK UNBOUND:                -5.502
REMARK SMILES CC(=O)N[C@@H]1[C@@H](O)C[C@](O)(C(=O)O)O[C@H]1C(O)[C@H](O)CNC(=O)OCc1cn([C@@H]2C[C@H]3CC[C@@H](C2)N3C)nn1
REMARK SMILES IDX 20 1 18 2 16 3 15 4 9 5 8 6 14 7 6 8 5 9 10 10 11 12 12 13
REMARK SMILES IDX 13 14 7 16 4 18 2 19 1 21 3 22 17 23 19 25 21 27 22 28 23 30
REMARK SMILES IDX 24 31 25 32 26 33 27 34 39 35 28 36 38 37 29 38 35 39 30 40
REMARK SMILES IDX 34 41 31 42 36 43 33 44 32 45 37 46
REMARK H PARENT 10 11 13 15 7 17 4 20 17 24 19 26 21 29
REMARK Flexibility Score: inf
ROOT
ATOM      1  C   UNL     1      25.742  27.030  20.167  1.00  0.00     0.154 C 
ENDROOT
BRANCH   1   2
ATOM      2  C   UNL     1      26.874  27.195  21.138  1.00  0.00     0.165 C 
BRANCH   2   3
ATOM      3  C   UNL     1      28.216  27.037  20.434  1.00  0.00     0.176 C 
BRANCH   3   4
ATOM      4  C   UNL     1      29.146  28.130  20.959  1.00  0.00     0.178 C 
ATOM      5  C   UNL     1      30.335  29.922  20.041  1.00  0.00     0.269 C 
ATOM      6  C   UNL     1      31.667  29.412  20.493  1.00  0.00     0.112 C 
ATOM      7  O   UNL     1      29.341  29.004  19.966  1.00  0.00    -0.332 OA
ATOM      8  C   UNL     1      31.657  28.030  21.051  1.00  0.00     0.145 C 
ATOM      9  C   UNL     1      30.365  27.570  21.638  1.00  0.00     0.142 C 
BRANCH   5  10
ATOM     10  O   UNL     1      30.489  30.440  18.751  1.00  0.00    -0.357 OA
ATOM     11  H   UNL     1      31.146  29.933  18.215  1.00  0.00     0.214 HD
ENDBRANCH   5  10
BRANCH   5  12
ATOM     12  C   UNL     1      29.852  31.045  20.873  1.00  0.00     0.364 C 
ATOM     13  O   UNL     1      29.008  31.841  20.411  1.00  0.00    -0.246 OA
BRANCH  12  14
ATOM     14  O   UNL     1      30.284  31.288  22.173  1.00  0.00    -0.477 OA
ATOM     15  H   UNL     1      31.003  30.684  22.601  1.00  0.00     0.296 HD
ENDBRANCH  12  14
ENDBRANCH   5  12
BRANCH   8  16
ATOM     16  O   UNL     1      32.076  27.168  20.027  1.00  0.00    -0.391 OA
ATOM     17  H   UNL     1      31.296  26.838  19.521  1.00  0.00     0.211 HD
ENDBRANCH   8  16
BRANCH   9  18
ATOM     18  N   UNL     1      30.277  27.680  23.069  1.00  0.00    -0.348 N 
ATOM     19  C   UNL     1      29.876  26.625  23.921  1.00  0.00     0.217 C 
ATOM     20  H   UNL     1      30.520  28.593  23.538  1.00  0.00     0.163 HD
ATOM     21  C   UNL     1      29.777  26.717  25.394  1.00  0.00     0.114 C 
ATOM     22  O   UNL     1      29.593  25.548  23.345  1.00  0.00    -0.275 OA
ENDBRANCH   9  18
ENDBRANCH   3   4
BRANCH   3  23
ATOM     23  O   UNL     1      28.097  27.107  19.056  1.00  0.00    -0.388 OA
ATOM     24  H   UNL     1      28.756  26.480  18.662  1.00  0.00     0.211 HD
ENDBRANCH   3  23
ENDBRANCH   2   3
BRANCH   2  25
ATOM     25  O   UNL     1      26.832  26.302  22.171  1.00  0.00    -0.388 OA
ATOM     26  H   UNL     1      27.752  26.157  22.541  1.00  0.00     0.211 HD
ENDBRANCH   2  25
ENDBRANCH   1   2
BRANCH   1  27
ATOM     27  N   UNL     1      25.534  28.179  19.354  1.00  0.00    -0.319 N 
ATOM     28  C   UNL     1      24.670  28.247  18.248  1.00  0.00     0.407 C 
ATOM     29  H   UNL     1      26.070  29.074  19.588  1.00  0.00     0.167 HD
ATOM     30  O   UNL     1      23.993  27.276  17.862  1.00  0.00    -0.225 OA
BRANCH  28  31
ATOM     31  O   UNL     1      24.556  29.458  17.540  1.00  0.00    -0.443 OA
BRANCH  31  32
ATOM     32  C   UNL     1      25.094  29.528  16.235  1.00  0.00     0.294 C 
BRANCH  32  33
ATOM     33  C   UNL     1      26.470  30.024  16.269  1.00  0.00     0.120 A 
ATOM     34  C   UNL     1      26.908  31.226  15.726  1.00  0.00     0.138 A 
ATOM     35  N   UNL     1      27.534  29.434  16.811  1.00  0.00    -0.132 NA
ATOM     36  N   UNL     1      28.223  31.318  15.959  1.00  0.00    -0.249 N 
ATOM     37  N   UNL     1      28.569  30.230  16.612  1.00  0.00    -0.067 NA
BRANCH  36  38
ATOM     38  C   UNL     1      29.117  32.386  15.587  1.00  0.00     0.112 C 
ATOM     39  C   UNL     1      28.859  33.582  16.503  1.00  0.00     0.046 C 
ATOM     40  C   UNL     1      30.524  31.898  15.851  1.00  0.00     0.046 C 
ATOM     41  C   UNL     1      29.949  34.596  16.284  1.00  0.00     0.058 C 
ATOM     42  C   UNL     1      31.494  33.034  15.814  1.00  0.00     0.058 C 
ATOM     43  N   UNL     1      31.215  34.070  16.758  1.00  0.00    -0.300 NA
ATOM     44  C   UNL     1      30.220  34.758  14.800  1.00  0.00     0.021 C 
ATOM     45  C   UNL     1      31.285  33.756  14.477  1.00  0.00     0.021 C 
ATOM     46  C   UNL     1      31.163  33.623  18.120  1.00  0.00     0.105 C 
ENDBRANCH  36  38
ENDBRANCH  32  33
ENDBRANCH  31  32
ENDBRANCH  28  31
ENDBRANCH   1  27
TORSDOF 15
BEGIN_RES LYS A 131
REMARK  4 active torsions:
REMARK  status: ('A' for Active; 'I' for Inactive)
REMARK    1  A    between atoms: CA   and  CB  
REMARK    2  A    between atoms: CB   and  CG  
REMARK    3  A    between atoms: CG   and  CD  
REMARK    4  A    between atoms: CD   and  CE  
ROOT
ATOM      1  CA  LYS A 131      29.867  25.555  16.977  1.00 20.52     0.186 C 
ENDROOT
BRANCH   1   2
ATOM      2  CB  LYS A 131      28.345  25.722  17.026  1.00 20.94     0.034 C 
BRANCH   2   3
ATOM      3  CG  LYS A 131      27.601  24.406  16.863  1.00 22.96     0.005 C 
BRANCH   3   4
ATOM      4  CD  LYS A 131      26.183  24.492  17.356  1.00 24.33     0.041 C 
BRANCH   4   5
ATOM      5  CE  LYS A 131      26.037  23.670  18.632  1.00 26.91     0.338 C 
ATOM      6  NZ  LYS A 131      24.630  23.243  18.817  1.00 27.40     0.618 N 
ENDBRANCH   4   5
ENDBRANCH   3   4
ENDBRANCH   2   3
ENDBRANCH   1   2
END_RES LYS A 131
BEGIN_RES LYS A 135
REMARK  4 active torsions:
REMARK  status: ('A' for Active; 'I' for Inactive)
REMARK    5  A    between atoms: CA   and  CB  
REMARK    6  A    between atoms: CB   and  CG  
REMARK    7  A    between atoms: CG   and  CD  
REMARK    8  A    between atoms: CD   and  CE  
ROOT
ATOM      7  CA  LYS A 135      33.193  34.663   9.290  1.00 25.02     0.186 C 
ENDROOT
BRANCH   7   8
ATOM      8  CB  LYS A 135      32.060  35.360  10.034  1.00 26.63     0.034 C 
BRANCH   8   9
ATOM      9  CG  LYS A 135      30.708  34.739   9.792  1.00 29.45     0.005 C 
BRANCH   9  10
ATOM     10  CD  LYS A 135      30.488  34.495   8.307  1.00 32.00     0.041 C 
BRANCH  10  11
ATOM     11  CE  LYS A 135      29.094  34.929   7.897  1.00 34.25     0.338 C 
ATOM     12  NZ  LYS A 135      28.987  36.414   7.848  1.00 35.99     0.618 N 
ENDBRANCH  10  11
ENDBRANCH   9  10
ENDBRANCH   8   9
ENDBRANCH   7   8
END_RES LYS A 135
