REMARK VINA RESULT:    -5.437      2.474      4.150
REMARK INTER + INTRA:         -15.536
REMARK INTER:                  -9.017
REMARK INTRA:                  -6.519
REMARK UNBOUND:                -5.490
REMARK SMILES CC(=O)N[C@@H]1[C@@H](O)C[C@](O)(C(=O)O)O[C@H]1C(O)[C@H](O)CNC(=O)OCc1cn(C(c2ccccc2)c2ccccc2)nn1
REMARK SMILES IDX 21 1 22 2 23 3 20 5 18 6 16 7 15 8 9 9 8 10 14 11 6 12 5 13
REMARK SMILES IDX 10 14 11 16 12 17 13 18 7 20 4 22 2 23 1 25 3 26 17 27 19 29
REMARK SMILES IDX 24 31 25 32 26 33 27 34 43 35 28 36 42 37 29 38 30 39 31 40
REMARK SMILES IDX 35 41 32 42 34 43 33 44 36 45 37 46 41 47 38 48 40 49 39 50
REMARK H PARENT 21 4 10 15 13 19 7 21 4 24 17 28 19 30
REMARK Flexibility Score: inf
ROOT
ATOM      1  N   UNL     1      31.355  36.019  16.152  1.00  0.00    -0.319 N 
ATOM      2  C   UNL     1      32.234  36.804  15.374  1.00  0.00     0.407 C 
ATOM      3  O   UNL     1      33.060  37.565  15.931  1.00  0.00    -0.225 OA
ATOM      4  H   UNL     1      30.680  35.400  15.660  1.00  0.00     0.167 HD
ENDROOT
BRANCH   1   5
ATOM      5  C   UNL     1      31.380  36.059  17.580  1.00  0.00     0.154 C 
BRANCH   5   6
ATOM      6  C   UNL     1      31.491  34.630  18.111  1.00  0.00     0.165 C 
BRANCH   6   7
ATOM      7  C   UNL     1      30.604  33.789  17.206  1.00  0.00     0.176 C 
BRANCH   7   8
ATOM      8  C   UNL     1      29.428  33.152  17.891  1.00  0.00     0.178 C 
ATOM      9  C   UNL     1      28.490  31.955  16.094  1.00  0.00     0.269 C 
ATOM     10  C   UNL     1      27.317  32.908  16.032  1.00  0.00     0.112 C 
ATOM     11  O   UNL     1      29.193  31.951  17.250  1.00  0.00    -0.332 OA
ATOM     12  C   UNL     1      27.629  34.256  16.609  1.00  0.00     0.145 C 
ATOM     13  C   UNL     1      28.247  34.036  17.957  1.00  0.00     0.142 C 
BRANCH   9  14
ATOM     14  O   UNL     1      29.342  32.345  15.058  1.00  0.00    -0.357 OA
ATOM     15  H   UNL     1      29.329  33.343  15.040  1.00  0.00     0.214 HD
ENDBRANCH   9  14
BRANCH   9  16
ATOM     16  C   UNL     1      27.994  30.575  15.739  1.00  0.00     0.364 C 
ATOM     17  O   UNL     1      26.791  30.299  15.744  1.00  0.00    -0.246 OA
BRANCH  16  18
ATOM     18  O   UNL     1      28.923  29.618  15.403  1.00  0.00    -0.477 OA
ATOM     19  H   UNL     1      28.600  28.730  15.001  1.00  0.00     0.296 HD
ENDBRANCH  16  18
ENDBRANCH   9  16
BRANCH  12  20
ATOM     20  O   UNL     1      28.416  34.936  15.724  1.00  0.00    -0.391 OA
ATOM     21  H   UNL     1      28.357  34.549  14.808  1.00  0.00     0.211 HD
ENDBRANCH  12  20
BRANCH  13  22
ATOM     22  N   UNL     1      27.197  33.455  18.817  1.00  0.00    -0.348 N 
ATOM     23  C   UNL     1      27.208  33.600  20.215  1.00  0.00     0.217 C 
ATOM     24  H   UNL     1      26.430  32.920  18.356  1.00  0.00     0.163 HD
ATOM     25  C   UNL     1      26.131  32.998  21.044  1.00  0.00     0.114 C 
ATOM     26  O   UNL     1      28.132  34.243  20.784  1.00  0.00    -0.275 OA
ENDBRANCH  13  22
ENDBRANCH   7   8
BRANCH   7  27
ATOM     27  O   UNL     1      31.469  32.724  16.758  1.00  0.00    -0.388 OA
ATOM     28  H   UNL     1      31.170  31.869  17.104  1.00  0.00     0.211 HD
ENDBRANCH   7  27
ENDBRANCH   6   7
BRANCH   6  29
ATOM     29  O   UNL     1      31.015  34.685  19.413  1.00  0.00    -0.388 OA
ATOM     30  H   UNL     1      30.058  34.503  19.484  1.00  0.00     0.211 HD
ENDBRANCH   6  29
ENDBRANCH   5   6
ENDBRANCH   1   5
BRANCH   2  31
ATOM     31  O   UNL     1      32.217  36.765  13.985  1.00  0.00    -0.443 OA
BRANCH  31  32
ATOM     32  C   UNL     1      31.083  37.233  13.308  1.00  0.00     0.294 C 
BRANCH  32  33
ATOM     33  C   UNL     1      30.182  36.087  13.024  1.00  0.00     0.120 A 
ATOM     34  C   UNL     1      28.976  36.165  12.321  1.00  0.00     0.139 A 
ATOM     35  N   UNL     1      30.292  34.788  13.350  1.00  0.00    -0.132 NA
ATOM     36  N   UNL     1      28.431  34.947  12.259  1.00  0.00    -0.240 N 
ATOM     37  N   UNL     1      29.237  34.130  12.884  1.00  0.00    -0.066 NA
BRANCH  36  38
ATOM     38  C   UNL     1      27.179  34.558  11.627  1.00  0.00     0.169 C 
BRANCH  38  39
ATOM     39  C   UNL     1      26.044  34.717  12.537  1.00  0.00    -0.019 A 
ATOM     40  C   UNL     1      25.990  35.744  13.487  1.00  0.00     0.006 A 
ATOM     41  C   UNL     1      24.973  33.849  12.462  1.00  0.00     0.006 A 
ATOM     42  C   UNL     1      24.901  35.880  14.319  1.00  0.00     0.000 A 
ATOM     43  C   UNL     1      23.893  34.007  13.308  1.00  0.00     0.000 A 
ATOM     44  C   UNL     1      23.828  35.015  14.248  1.00  0.00     0.000 A 
ENDBRANCH  38  39
BRANCH  38  45
ATOM     45  C   UNL     1      27.011  35.103  10.278  1.00  0.00    -0.019 A 
ATOM     46  C   UNL     1      27.248  34.297   9.150  1.00  0.00     0.006 A 
ATOM     47  C   UNL     1      26.613  36.405  10.091  1.00  0.00     0.006 A 
ATOM     48  C   UNL     1      27.085  34.800   7.885  1.00  0.00     0.000 A 
ATOM     49  C   UNL     1      26.450  36.907   8.796  1.00  0.00     0.000 A 
ATOM     50  C   UNL     1      26.685  36.106   7.703  1.00  0.00     0.000 A 
ENDBRANCH  38  45
ENDBRANCH  36  38
ENDBRANCH  32  33
ENDBRANCH  31  32
ENDBRANCH   2  31
TORSDOF 17
BEGIN_RES LYS A 131
REMARK  4 active torsions:
REMARK  status: ('A' for Active; 'I' for Inactive)
REMARK    1  A    between atoms: CA   and  CB  
REMARK    2  A    between atoms: CB   and  CG  
REMARK    3  A    between atoms: CG   and  CD  
REMARK    4  A    between atoms: CD   and  CE  
ROOT
ATOM      1  CA  LYS A 131      29.867  25.555  16.977  1.00 20.52     0.186 C 
ENDROOT
BRANCH   1   2
ATOM      2  CB  LYS A 131      28.345  25.722  17.026  1.00 20.94     0.034 C 
BRANCH   2   3
ATOM      3  CG  LYS A 131      27.599  24.455  16.636  1.00 22.96     0.005 C 
BRANCH   3   4
ATOM      4  CD  LYS A 131      27.091  23.705  17.837  1.00 24.33     0.041 C 
BRANCH   4   5
ATOM      5  CE  LYS A 131      25.622  23.350  17.631  1.00 26.91     0.338 C 
ATOM      6  NZ  LYS A 131      25.002  22.943  18.914  1.00 27.40     0.618 N 
ENDBRANCH   4   5
ENDBRANCH   3   4
ENDBRANCH   2   3
ENDBRANCH   1   2
END_RES LYS A 131
BEGIN_RES LYS A 135
REMARK  4 active torsions:
REMARK  status: ('A' for Active; 'I' for Inactive)
REMARK    5  A    between atoms: CA   and  CB  
REMARK    6  A    between atoms: CB   and  CG  
REMARK    7  A    between atoms: CG   and  CD  
REMARK    8  A    between atoms: CD   and  CE  
ROOT
ATOM      7  CA  LYS A 135      33.193  34.663   9.290  1.00 25.02     0.186 C 
ENDROOT
BRANCH   7   8
ATOM      8  CB  LYS A 135      32.060  35.360  10.034  1.00 26.63     0.034 C 
BRANCH   8   9
ATOM      9  CG  LYS A 135      30.717  35.203   9.369  1.00 29.45     0.005 C 
BRANCH   9  10
ATOM     10  CD  LYS A 135      30.305  36.495   8.679  1.00 32.00     0.041 C 
BRANCH  10  11
ATOM     11  CE  LYS A 135      30.827  37.696   9.444  1.00 34.25     0.338 C 
ATOM     12  NZ  LYS A 135      31.148  38.820   8.521  1.00 35.99     0.618 N 
ENDBRANCH  10  11
ENDBRANCH   9  10
ENDBRANCH   8   9
ENDBRANCH   7   8
END_RES LYS A 135
