REMARK VINA RESULT:    -4.971      2.039      5.457
REMARK INTER + INTRA:         -14.617
REMARK INTER:                  -7.254
REMARK INTRA:                  -7.363
REMARK UNBOUND:                -5.578
REMARK SMILES CC(=O)N[C@@H]1[C@@H](O)C[C@](O)(C(=O)O)O[C@H]1C(O)[C@H](O)CNC(=O)OCc1cn(C(C)(C)C(=O)O)nn1
REMARK SMILES IDX 21 1 22 2 23 3 20 5 18 6 16 7 15 8 9 9 8 10 14 11 6 12 5 13
REMARK SMILES IDX 10 14 11 16 12 17 13 18 7 20 4 22 2 23 1 25 3 26 17 27 19 29
REMARK SMILES IDX 24 31 25 32 26 33 27 34 36 35 28 36 35 37 29 38 30 39 31 40
REMARK SMILES IDX 32 41 33 42 34 43
REMARK H PARENT 21 4 10 15 13 19 7 21 4 24 17 28 19 30 34 44
REMARK Flexibility Score: inf
ROOT
ATOM      1  N   UNL     1      25.973  36.150  14.989  1.00  0.00    -0.319 N 
ATOM      2  C   UNL     1      25.446  36.024  13.683  1.00  0.00     0.407 C 
ATOM      3  O   UNL     1      24.513  35.184  13.435  1.00  0.00    -0.225 OA
ATOM      4  H   UNL     1      26.727  36.836  15.182  1.00  0.00     0.167 HD
ENDROOT
BRANCH   1   5
ATOM      5  C   UNL     1      25.426  35.309  16.023  1.00  0.00     0.154 C 
BRANCH   5   6
ATOM      6  C   UNL     1      26.279  34.159  16.426  1.00  0.00     0.165 C 
BRANCH   6   7
ATOM      7  C   UNL     1      27.520  34.004  15.584  1.00  0.00     0.176 C 
BRANCH   7   8
ATOM      8  C   UNL     1      28.580  33.293  16.435  1.00  0.00     0.178 C 
ATOM      9  C   UNL     1      30.702  33.729  17.280  1.00  0.00     0.269 C 
ATOM     10  C   UNL     1      31.198  32.379  16.810  1.00  0.00     0.112 C 
ATOM     11  O   UNL     1      29.627  34.199  16.566  1.00  0.00    -0.332 OA
ATOM     12  C   UNL     1      30.516  31.998  15.529  1.00  0.00     0.145 C 
ATOM     13  C   UNL     1      29.015  32.020  15.743  1.00  0.00     0.142 C 
BRANCH   9  14
ATOM     14  O   UNL     1      31.754  34.630  17.049  1.00  0.00    -0.357 OA
ATOM     15  H   UNL     1      32.610  34.180  17.166  1.00  0.00     0.214 HD
ENDBRANCH   9  14
BRANCH   9  16
ATOM     16  C   UNL     1      30.433  33.708  18.735  1.00  0.00     0.364 C 
ATOM     17  O   UNL     1      30.509  32.637  19.369  1.00  0.00    -0.246 OA
BRANCH  16  18
ATOM     18  O   UNL     1      30.094  34.855  19.436  1.00  0.00    -0.477 OA
ATOM     19  H   UNL     1      29.177  34.992  19.839  1.00  0.00     0.296 HD
ENDBRANCH  16  18
ENDBRANCH   9  16
BRANCH  12  20
ATOM     20  O   UNL     1      30.906  32.762  14.456  1.00  0.00    -0.391 OA
ATOM     21  H   UNL     1      30.351  32.660  13.653  1.00  0.00     0.211 HD
ENDBRANCH  12  20
BRANCH  13  22
ATOM     22  N   UNL     1      28.694  30.849  16.557  1.00  0.00    -0.348 N 
ATOM     23  C   UNL     1      27.501  30.105  16.343  1.00  0.00     0.217 C 
ATOM     24  H   UNL     1      29.343  30.544  17.311  1.00  0.00     0.163 HD
ATOM     25  C   UNL     1      27.158  28.907  17.165  1.00  0.00     0.114 C 
ATOM     26  O   UNL     1      26.743  30.519  15.410  1.00  0.00    -0.275 OA
ENDBRANCH  13  22
ENDBRANCH   7   8
BRANCH   7  27
ATOM     27  O   UNL     1      27.336  33.375  14.385  1.00  0.00    -0.388 OA
ATOM     28  H   UNL     1      27.427  34.002  13.642  1.00  0.00     0.211 HD
ENDBRANCH   7  27
ENDBRANCH   6   7
BRANCH   6  29
ATOM     29  O   UNL     1      25.474  33.002  16.264  1.00  0.00    -0.388 OA
ATOM     30  H   UNL     1      25.288  32.622  17.170  1.00  0.00     0.211 HD
ENDBRANCH   6  29
ENDBRANCH   5   6
ENDBRANCH   1   5
BRANCH   2  31
ATOM     31  O   UNL     1      25.879  36.768  12.605  1.00  0.00    -0.443 OA
BRANCH  31  32
ATOM     32  C   UNL     1      26.583  36.159  11.508  1.00  0.00     0.294 C 
BRANCH  32  33
ATOM     33  C   UNL     1      27.946  35.810  11.988  1.00  0.00     0.120 A 
ATOM     34  C   UNL     1      28.922  36.718  12.366  1.00  0.00     0.139 A 
ATOM     35  N   UNL     1      28.516  34.602  12.156  1.00  0.00    -0.132 NA
ATOM     36  N   UNL     1      30.036  36.050  12.746  1.00  0.00    -0.235 N 
ATOM     37  N   UNL     1      29.752  34.769  12.605  1.00  0.00    -0.066 NA
BRANCH  36  38
ATOM     38  C   UNL     1      31.268  36.654  13.208  1.00  0.00     0.155 C 
ATOM     39  C   UNL     1      31.783  37.644  12.183  1.00  0.00     0.049 C 
ATOM     40  C   UNL     1      31.018  37.363  14.523  1.00  0.00     0.049 C 
BRANCH  38  41
ATOM     41  C   UNL     1      32.333  35.624  13.388  1.00  0.00     0.331 C 
ATOM     42  O   UNL     1      32.616  35.286  14.566  1.00  0.00    -0.250 OA
BRANCH  41  43
ATOM     43  O   UNL     1      32.994  35.049  12.320  1.00  0.00    -0.479 OA
ATOM     44  H   UNL     1      33.567  34.232  12.511  1.00  0.00     0.296 HD
ENDBRANCH  41  43
ENDBRANCH  38  41
ENDBRANCH  36  38
ENDBRANCH  32  33
ENDBRANCH  31  32
ENDBRANCH   2  31
TORSDOF 17
BEGIN_RES LYS A 131
REMARK  4 active torsions:
REMARK  status: ('A' for Active; 'I' for Inactive)
REMARK    1  A    between atoms: CA   and  CB  
REMARK    2  A    between atoms: CB   and  CG  
REMARK    3  A    between atoms: CG   and  CD  
REMARK    4  A    between atoms: CD   and  CE  
ROOT
ATOM      1  CA  LYS A 131      29.867  25.555  16.977  1.00 20.52     0.186 C 
ENDROOT
BRANCH   1   2
ATOM      2  CB  LYS A 131      28.345  25.722  17.026  1.00 20.94     0.034 C 
BRANCH   2   3
ATOM      3  CG  LYS A 131      27.601  24.403  16.886  1.00 22.96     0.005 C 
BRANCH   3   4
ATOM      4  CD  LYS A 131      26.266  24.429  17.577  1.00 24.33     0.041 C 
BRANCH   4   5
ATOM      5  CE  LYS A 131      26.304  25.440  18.719  1.00 26.91     0.338 C 
ATOM      6  NZ  LYS A 131      25.455  24.984  19.844  1.00 27.40     0.618 N 
ENDBRANCH   4   5
ENDBRANCH   3   4
ENDBRANCH   2   3
ENDBRANCH   1   2
END_RES LYS A 131
BEGIN_RES LYS A 135
REMARK  4 active torsions:
REMARK  status: ('A' for Active; 'I' for Inactive)
REMARK    5  A    between atoms: CA   and  CB  
REMARK    6  A    between atoms: CB   and  CG  
REMARK    7  A    between atoms: CG   and  CD  
REMARK    8  A    between atoms: CD   and  CE  
ROOT
ATOM      7  CA  LYS A 135      33.193  34.663   9.290  1.00 25.02     0.186 C 
ENDROOT
BRANCH   7   8
ATOM      8  CB  LYS A 135      32.060  35.360  10.034  1.00 26.63     0.034 C 
BRANCH   8   9
ATOM      9  CG  LYS A 135      30.822  35.558   9.198  1.00 29.45     0.005 C 
BRANCH   9  10
ATOM     10  CD  LYS A 135      30.100  34.236   8.987  1.00 32.00     0.041 C 
BRANCH  10  11
ATOM     11  CE  LYS A 135      28.745  34.465   8.346  1.00 34.25     0.338 C 
ATOM     12  NZ  LYS A 135      28.853  35.377   7.174  1.00 35.99     0.618 N 
ENDBRANCH  10  11
ENDBRANCH   9  10
ENDBRANCH   8   9
ENDBRANCH   7   8
END_RES LYS A 135
