REMARK VINA RESULT:    -6.081      2.479      5.630
REMARK INTER + INTRA:         -16.629
REMARK INTER:                 -10.655
REMARK INTRA:                  -5.975
REMARK UNBOUND:                -5.216
REMARK SMILES CC(=O)N[C@@H]1[C@@H](O)C[C@](O)(C(=O)O)O[C@H]1C(O)[C@H](O)CNC(=O)OCc1cn(-c2cc(C(=O)O)nc(-c3ccccc3)c2)nn1
REMARK SMILES IDX 21 1 22 2 23 3 20 5 18 6 16 7 15 8 9 9 8 10 14 11 6 12 5 13
REMARK SMILES IDX 10 14 11 16 12 17 13 18 7 20 4 22 2 23 1 25 3 26 17 27 19 29
REMARK SMILES IDX 24 31 25 32 26 33 27 34 45 35 28 36 44 37 29 38 30 39 43 40
REMARK SMILES IDX 31 41 36 42 35 43 32 44 33 45 34 46 37 48 38 49 42 50 39 51
REMARK SMILES IDX 41 52 40 53
REMARK H PARENT 21 4 10 15 13 19 7 21 4 24 17 28 19 30 34 47
REMARK Flexibility Score: inf
ROOT
ATOM      1  N   UNL     1      29.443  32.403  17.904  1.00  0.00    -0.319 N 
ATOM      2  C   UNL     1      30.603  32.149  17.105  1.00  0.00     0.407 C 
ATOM      3  O   UNL     1      30.737  31.006  16.597  1.00  0.00    -0.225 OA
ATOM      4  H   UNL     1      29.391  33.385  18.303  1.00  0.00     0.167 HD
ENDROOT
BRANCH   1   5
ATOM      5  C   UNL     1      28.423  31.422  18.156  1.00  0.00     0.154 C 
BRANCH   5   6
ATOM      6  C   UNL     1      27.238  31.630  17.262  1.00  0.00     0.165 C 
BRANCH   6   7
ATOM      7  C   UNL     1      27.300  30.592  16.148  1.00  0.00     0.176 C 
BRANCH   7   8
ATOM      8  C   UNL     1      25.944  30.030  15.897  1.00  0.00     0.178 C 
ATOM      9  C   UNL     1      23.751  30.714  15.536  1.00  0.00     0.269 C 
ATOM     10  C   UNL     1      23.608  29.236  15.193  1.00  0.00     0.112 C 
ATOM     11  O   UNL     1      25.055  31.107  15.692  1.00  0.00    -0.332 OA
ATOM     12  C   UNL     1      24.159  28.452  16.330  1.00  0.00     0.145 C 
ATOM     13  C   UNL     1      25.340  29.206  16.982  1.00  0.00     0.142 C 
BRANCH   9  14
ATOM     14  O   UNL     1      23.010  30.873  16.732  1.00  0.00    -0.357 OA
ATOM     15  H   UNL     1      23.075  29.996  17.193  1.00  0.00     0.214 HD
ENDBRANCH   9  14
BRANCH   9  16
ATOM     16  C   UNL     1      23.138  31.566  14.499  1.00  0.00     0.364 C 
ATOM     17  O   UNL     1      22.205  32.335  14.793  1.00  0.00    -0.246 OA
BRANCH  16  18
ATOM     18  O   UNL     1      23.592  31.520  13.199  1.00  0.00    -0.477 OA
ATOM     19  H   UNL     1      24.460  31.064  12.931  1.00  0.00     0.296 HD
ENDBRANCH  16  18
ENDBRANCH   9  16
BRANCH  12  20
ATOM     20  O   UNL     1      23.223  28.096  17.276  1.00  0.00    -0.391 OA
ATOM     21  H   UNL     1      22.506  27.559  16.874  1.00  0.00     0.211 HD
ENDBRANCH  12  20
BRANCH  13  22
ATOM     22  N   UNL     1      26.206  28.239  17.601  1.00  0.00    -0.348 N 
ATOM     23  C   UNL     1      26.489  28.282  19.015  1.00  0.00     0.217 C 
ATOM     24  H   UNL     1      26.629  27.495  17.041  1.00  0.00     0.163 HD
ATOM     25  C   UNL     1      27.367  27.314  19.688  1.00  0.00     0.114 C 
ATOM     26  O   UNL     1      25.925  29.223  19.651  1.00  0.00    -0.275 OA
ENDBRANCH  13  22
ENDBRANCH   7   8
BRANCH   7  27
ATOM     27  O   UNL     1      28.272  29.646  16.327  1.00  0.00    -0.388 OA
ATOM     28  H   UNL     1      28.710  29.641  17.197  1.00  0.00     0.211 HD
ENDBRANCH   7  27
ENDBRANCH   6   7
BRANCH   6  29
ATOM     29  O   UNL     1      27.409  32.912  16.700  1.00  0.00    -0.388 OA
ATOM     30  H   UNL     1      26.687  33.009  16.045  1.00  0.00     0.211 HD
ENDBRANCH   6  29
ENDBRANCH   5   6
ENDBRANCH   1   5
BRANCH   2  31
ATOM     31  O   UNL     1      31.550  33.142  16.902  1.00  0.00    -0.443 OA
BRANCH  31  32
ATOM     32  C   UNL     1      31.722  33.632  15.587  1.00  0.00     0.294 C 
BRANCH  32  33
ATOM     33  C   UNL     1      30.420  34.209  15.164  1.00  0.00     0.121 A 
ATOM     34  C   UNL     1      29.820  34.098  13.903  1.00  0.00     0.144 A 
ATOM     35  N   UNL     1      29.535  34.952  15.868  1.00  0.00    -0.131 NA
ATOM     36  N   UNL     1      28.645  34.752  13.899  1.00  0.00    -0.220 N 
ATOM     37  N   UNL     1      28.497  35.259  15.100  1.00  0.00    -0.062 NA
BRANCH  36  38
ATOM     38  C   UNL     1      27.775  34.830  12.751  1.00  0.00     0.071 A 
ATOM     39  C   UNL     1      26.410  34.787  12.877  1.00  0.00     0.064 A 
ATOM     40  C   UNL     1      28.308  34.949  11.473  1.00  0.00     0.057 A 
ATOM     41  C   UNL     1      25.550  34.858  11.801  1.00  0.00     0.151 A 
ATOM     42  C   UNL     1      27.465  35.021  10.394  1.00  0.00     0.073 A 
ATOM     43  N   UNL     1      26.128  34.973  10.595  1.00  0.00    -0.241 NA
BRANCH  41  44
ATOM     44  C   UNL     1      24.106  34.812  11.958  1.00  0.00     0.354 C 
ATOM     45  O   UNL     1      23.383  34.975  10.956  1.00  0.00    -0.245 OA
BRANCH  44  46
ATOM     46  O   UNL     1      23.520  34.592  13.187  1.00  0.00    -0.477 OA
ATOM     47  H   UNL     1      22.563  34.887  13.407  1.00  0.00     0.297 HD
ENDBRANCH  44  46
ENDBRANCH  41  44
BRANCH  42  48
ATOM     48  C   UNL     1      28.002  35.147   9.027  1.00  0.00     0.000 A 
ATOM     49  C   UNL     1      29.324  34.818   8.816  1.00  0.00     0.010 A 
ATOM     50  C   UNL     1      27.205  35.579   8.007  1.00  0.00     0.010 A 
ATOM     51  C   UNL     1      29.829  34.935   7.542  1.00  0.00     0.001 A 
ATOM     52  C   UNL     1      27.751  35.682   6.742  1.00  0.00     0.001 A 
ATOM     53  C   UNL     1      29.065  35.365   6.478  1.00  0.00     0.000 A 
ENDBRANCH  42  48
ENDBRANCH  36  38
ENDBRANCH  32  33
ENDBRANCH  31  32
ENDBRANCH   2  31
TORSDOF 18
BEGIN_RES LYS A 131
REMARK  4 active torsions:
REMARK  status: ('A' for Active; 'I' for Inactive)
REMARK    1  A    between atoms: CA   and  CB  
REMARK    2  A    between atoms: CB   and  CG  
REMARK    3  A    between atoms: CG   and  CD  
REMARK    4  A    between atoms: CD   and  CE  
ROOT
ATOM      1  CA  LYS A 131      29.867  25.555  16.977  1.00 20.52     0.186 C 
ENDROOT
BRANCH   1   2
ATOM      2  CB  LYS A 131      28.345  25.722  17.026  1.00 20.94     0.034 C 
BRANCH   2   3
ATOM      3  CG  LYS A 131      27.600  24.416  16.795  1.00 22.96     0.005 C 
BRANCH   3   4
ATOM      4  CD  LYS A 131      26.752  24.032  17.976  1.00 24.33     0.041 C 
BRANCH   4   5
ATOM      5  CE  LYS A 131      25.485  23.337  17.489  1.00 26.91     0.338 C 
ATOM      6  NZ  LYS A 131      24.572  24.312  16.849  1.00 27.40     0.618 N 
ENDBRANCH   4   5
ENDBRANCH   3   4
ENDBRANCH   2   3
ENDBRANCH   1   2
END_RES LYS A 131
BEGIN_RES LYS A 135
REMARK  4 active torsions:
REMARK  status: ('A' for Active; 'I' for Inactive)
REMARK    5  A    between atoms: CA   and  CB  
REMARK    6  A    between atoms: CB   and  CG  
REMARK    7  A    between atoms: CG   and  CD  
REMARK    8  A    between atoms: CD   and  CE  
ROOT
ATOM      7  CA  LYS A 135      33.193  34.663   9.290  1.00 25.02     0.186 C 
ENDROOT
BRANCH   7   8
ATOM      8  CB  LYS A 135      32.060  35.360  10.034  1.00 26.63     0.034 C 
BRANCH   8   9
ATOM      9  CG  LYS A 135      32.305  35.495  11.515  1.00 29.45     0.005 C 
BRANCH   9  10
ATOM     10  CD  LYS A 135      31.854  36.860  12.011  1.00 32.00     0.041 C 
BRANCH  10  11
ATOM     11  CE  LYS A 135      31.380  37.718  10.853  1.00 34.25     0.338 C 
ATOM     12  NZ  LYS A 135      31.525  39.167  11.165  1.00 35.99     0.618 N 
ENDBRANCH  10  11
ENDBRANCH   9  10
ENDBRANCH   8   9
ENDBRANCH   7   8
END_RES LYS A 135
