REMARK VINA RESULT:    -5.387      8.943     12.341
REMARK INTER + INTRA:         -13.808
REMARK INTER:                  -8.500
REMARK INTRA:                  -5.308
REMARK UNBOUND:                -4.485
REMARK SMILES CC(=O)N[C@@H]1[C@@H](O)C[C@](O)(C(=O)O)O[C@H]1C(O)[C@H](O)CNC(=O)OCc1cn(-c2ccccc2)nn1
REMARK SMILES IDX 20 1 18 2 16 3 15 4 9 5 8 6 14 7 6 8 5 9 10 10 11 12 12 13
REMARK SMILES IDX 13 14 7 16 4 18 2 19 1 21 3 22 17 23 19 25 21 27 22 28 23 30
REMARK SMILES IDX 24 31 25 32 26 33 27 34 36 35 28 36 35 37 29 38 30 39 34 40
REMARK SMILES IDX 31 41 33 42 32 43
REMARK H PARENT 10 11 13 15 7 17 4 20 17 24 19 26 21 29
REMARK Flexibility Score: inf
ROOT
ATOM      1  C   UNL     1      30.820  31.465  15.863  1.00  0.00     0.154 C 
ENDROOT
BRANCH   1   2
ATOM      2  C   UNL     1      29.311  31.462  15.722  1.00  0.00     0.165 C 
BRANCH   2   3
ATOM      3  C   UNL     1      28.626  31.936  16.984  1.00  0.00     0.176 C 
BRANCH   3   4
ATOM      4  C   UNL     1      28.983  31.115  18.178  1.00  0.00     0.178 C 
ATOM      5  C   UNL     1      27.276  29.540  18.522  1.00  0.00     0.269 C 
ATOM      6  C   UNL     1      26.618  30.359  19.575  1.00  0.00     0.112 C 
ATOM      7  O   UNL     1      28.537  29.846  18.179  1.00  0.00    -0.332 OA
ATOM      8  C   UNL     1      27.201  31.727  19.767  1.00  0.00     0.145 C 
ATOM      9  C   UNL     1      28.668  31.787  19.483  1.00  0.00     0.142 C 
BRANCH   5  10
ATOM     10  O   UNL     1      26.469  29.652  17.368  1.00  0.00    -0.357 OA
ATOM     11  H   UNL     1      27.057  29.997  16.639  1.00  0.00     0.214 HD
ENDBRANCH   5  10
BRANCH   5  12
ATOM     12  C   UNL     1      27.227  28.101  18.897  1.00  0.00     0.364 C 
ATOM     13  O   UNL     1      26.156  27.458  18.970  1.00  0.00    -0.246 OA
BRANCH  12  14
ATOM     14  O   UNL     1      28.396  27.428  19.178  1.00  0.00    -0.477 OA
ATOM     15  H   UNL     1      29.102  27.755  19.826  1.00  0.00     0.296 HD
ENDBRANCH  12  14
ENDBRANCH   5  12
BRANCH   8  16
ATOM     16  O   UNL     1      26.521  32.661  18.966  1.00  0.00    -0.391 OA
ATOM     17  H   UNL     1      25.805  33.118  19.450  1.00  0.00     0.211 HD
ENDBRANCH   8  16
BRANCH   9  18
ATOM     18  N   UNL     1      29.350  31.030  20.535  1.00  0.00    -0.348 N 
ATOM     19  C   UNL     1      30.649  31.386  20.991  1.00  0.00     0.217 C 
ATOM     20  H   UNL     1      28.901  30.203  20.983  1.00  0.00     0.163 HD
ATOM     21  C   UNL     1      31.358  30.631  22.057  1.00  0.00     0.114 C 
ATOM     22  O   UNL     1      31.257  32.375  20.497  1.00  0.00    -0.275 OA
ENDBRANCH   9  18
ENDBRANCH   3   4
BRANCH   3  23
ATOM     23  O   UNL     1      29.038  33.269  17.148  1.00  0.00    -0.388 OA
ATOM     24  H   UNL     1      29.363  33.546  16.239  1.00  0.00     0.211 HD
ENDBRANCH   3  23
ENDBRANCH   2   3
BRANCH   2  25
ATOM     25  O   UNL     1      28.847  30.241  15.265  1.00  0.00    -0.388 OA
ATOM     26  H   UNL     1      28.198  30.321  14.537  1.00  0.00     0.211 HD
ENDBRANCH   2  25
ENDBRANCH   1   2
BRANCH   1  27
ATOM     27  N   UNL     1      31.473  32.414  15.016  1.00  0.00    -0.319 N 
ATOM     28  C   UNL     1      32.011  33.645  15.480  1.00  0.00     0.407 C 
ATOM     29  H   UNL     1      31.580  32.221  13.993  1.00  0.00     0.167 HD
ATOM     30  O   UNL     1      31.941  33.971  16.671  1.00  0.00    -0.225 OA
BRANCH  28  31
ATOM     31  O   UNL     1      32.636  34.533  14.612  1.00  0.00    -0.443 OA
BRANCH  31  32
ATOM     32  C   UNL     1      32.760  35.902  14.966  1.00  0.00     0.294 C 
BRANCH  32  33
ATOM     33  C   UNL     1      31.872  36.673  14.068  1.00  0.00     0.121 A 
ATOM     34  C   UNL     1      31.970  36.791  12.699  1.00  0.00     0.144 A 
ATOM     35  N   UNL     1      30.803  37.398  14.454  1.00  0.00    -0.131 NA
ATOM     36  N   UNL     1      30.955  37.583  12.319  1.00  0.00    -0.220 N 
ATOM     37  N   UNL     1      30.262  37.940  13.381  1.00  0.00    -0.062 NA
BRANCH  36  38
ATOM     38  C   UNL     1      30.684  37.966  10.975  1.00  0.00     0.066 A 
ATOM     39  C   UNL     1      29.375  37.975  10.525  1.00  0.00     0.028 A 
ATOM     40  C   UNL     1      31.711  38.325  10.123  1.00  0.00     0.028 A 
ATOM     41  C   UNL     1      29.147  38.353   9.214  1.00  0.00     0.002 A 
ATOM     42  C   UNL     1      31.467  38.698   8.826  1.00  0.00     0.002 A 
ATOM     43  C   UNL     1      30.167  38.710   8.371  1.00  0.00     0.000 A 
ENDBRANCH  36  38
ENDBRANCH  32  33
ENDBRANCH  31  32
ENDBRANCH  28  31
ENDBRANCH   1  27
TORSDOF 15
BEGIN_RES LYS A 131
REMARK  4 active torsions:
REMARK  status: ('A' for Active; 'I' for Inactive)
REMARK    1  A    between atoms: CA   and  CB  
REMARK    2  A    between atoms: CB   and  CG  
REMARK    3  A    between atoms: CG   and  CD  
REMARK    4  A    between atoms: CD   and  CE  
ROOT
ATOM      1  CA  LYS A 131      29.867  25.555  16.977  1.00 20.52     0.186 C 
ENDROOT
BRANCH   1   2
ATOM      2  CB  LYS A 131      28.345  25.722  17.026  1.00 20.94     0.034 C 
BRANCH   2   3
ATOM      3  CG  LYS A 131      27.601  24.401  16.904  1.00 22.96     0.005 C 
BRANCH   3   4
ATOM      4  CD  LYS A 131      26.153  24.529  17.285  1.00 24.33     0.041 C 
BRANCH   4   5
ATOM      5  CE  LYS A 131      25.782  23.415  18.260  1.00 26.91     0.338 C 
ATOM      6  NZ  LYS A 131      24.881  22.435  17.609  1.00 27.40     0.618 N 
ENDBRANCH   4   5
ENDBRANCH   3   4
ENDBRANCH   2   3
ENDBRANCH   1   2
END_RES LYS A 131
BEGIN_RES LYS A 135
REMARK  4 active torsions:
REMARK  status: ('A' for Active; 'I' for Inactive)
REMARK    5  A    between atoms: CA   and  CB  
REMARK    6  A    between atoms: CB   and  CG  
REMARK    7  A    between atoms: CG   and  CD  
REMARK    8  A    between atoms: CD   and  CE  
ROOT
ATOM      7  CA  LYS A 135      33.193  34.663   9.290  1.00 25.02     0.186 C 
ENDROOT
BRANCH   7   8
ATOM      8  CB  LYS A 135      32.060  35.360  10.034  1.00 26.63     0.034 C 
BRANCH   8   9
ATOM      9  CG  LYS A 135      30.726  34.678   9.876  1.00 29.45     0.005 C 
BRANCH   9  10
ATOM     10  CD  LYS A 135      30.324  34.619   8.410  1.00 32.00     0.041 C 
BRANCH  10  11
ATOM     11  CE  LYS A 135      28.813  34.632   8.271  1.00 34.25     0.338 C 
ATOM     12  NZ  LYS A 135      28.167  33.867   9.373  1.00 35.99     0.618 N 
ENDBRANCH  10  11
ENDBRANCH   9  10
ENDBRANCH   8   9
ENDBRANCH   7   8
END_RES LYS A 135
