REMARK VINA RESULT:    -4.890      6.194     11.622
REMARK INTER + INTRA:         -14.991
REMARK INTER:                  -9.424
REMARK INTRA:                  -5.567
REMARK UNBOUND:                -5.671
REMARK SMILES CCOC(=O)c1cccc(-n2cc(COC(=O)NC[C@@H](O)C(O)[C@@H]3O[C@@](O)(C(=O)O)C[C@H](O)[C@H]3NC(C)=O)nn2)c1
REMARK SMILES IDX 18 1 16 2 17 3 19 5 20 6 22 7 24 8 26 9 31 10 25 11 32 12
REMARK SMILES IDX 34 13 27 14 28 16 29 17 30 18 33 20 35 22 36 23 37 25 38 26
REMARK SMILES IDX 23 27 21 29 15 31 14 32 13 33 12 34 39 35 11 36 40 37 10 38
REMARK SMILES IDX 41 39 9 40 6 41 8 42 7 43 4 44 5 45 3 46 2 47 1 48
REMARK H PARENT 18 4 27 15 30 19 33 21 35 24 23 28 21 30
REMARK Flexibility Score: inf
ROOT
ATOM      1  N   UNL     1      25.462  36.190  11.302  1.00  0.00    -0.319 N 
ATOM      2  C   UNL     1      26.182  37.336  10.868  1.00  0.00     0.407 C 
ATOM      3  O   UNL     1      25.534  38.355  10.525  1.00  0.00    -0.225 OA
ATOM      4  H   UNL     1      26.018  35.358  11.581  1.00  0.00     0.167 HD
ENDROOT
BRANCH   1   5
ATOM      5  C   UNL     1      24.014  36.181  11.352  1.00  0.00     0.154 C 
BRANCH   5   6
ATOM      6  C   UNL     1      23.404  35.254  10.355  1.00  0.00     0.165 C 
BRANCH   6   7
ATOM      7  C   UNL     1      22.949  35.931   9.102  1.00  0.00     0.176 C 
BRANCH   7   8
ATOM      8  C   UNL     1      21.401  36.028   9.071  1.00  0.00     0.178 C 
ATOM      9  C   UNL     1      19.591  35.352   7.894  1.00  0.00     0.269 C 
ATOM     10  C   UNL     1      19.193  36.756   7.499  1.00  0.00     0.112 C 
ATOM     11  O   UNL     1      20.944  35.287   8.014  1.00  0.00    -0.332 OA
ATOM     12  C   UNL     1      19.676  37.788   8.472  1.00  0.00     0.145 C 
ATOM     13  C   UNL     1      20.998  37.456   9.102  1.00  0.00     0.142 C 
BRANCH   9  14
ATOM     14  O   UNL     1      19.246  34.547   6.772  1.00  0.00    -0.357 OA
ATOM     15  H   UNL     1      18.537  34.948   6.238  1.00  0.00     0.214 HD
ENDBRANCH   9  14
BRANCH   9  16
ATOM     16  C   UNL     1      18.800  34.882   9.040  1.00  0.00     0.364 C 
ATOM     17  O   UNL     1      17.558  35.140   9.185  1.00  0.00    -0.246 OA
BRANCH  16  18
ATOM     18  O   UNL     1      19.448  34.110  10.023  1.00  0.00    -0.477 OA
ATOM     19  H   UNL     1      19.493  34.502  10.972  1.00  0.00     0.296 HD
ENDBRANCH  16  18
ENDBRANCH   9  16
BRANCH  12  20
ATOM     20  O   UNL     1      19.709  39.025   7.831  1.00  0.00    -0.391 OA
ATOM     21  H   UNL     1      19.109  39.690   8.253  1.00  0.00     0.211 HD
ENDBRANCH  12  20
BRANCH  13  22
ATOM     22  N   UNL     1      21.082  37.955  10.462  1.00  0.00    -0.348 N 
ATOM     23  C   UNL     1      21.668  39.213  10.766  1.00  0.00     0.217 C 
ATOM     24  H   UNL     1      20.688  37.348  11.240  1.00  0.00     0.163 HD
ATOM     25  C   UNL     1      21.719  39.656  12.183  1.00  0.00     0.114 C 
ATOM     26  O   UNL     1      22.144  39.959   9.844  1.00  0.00    -0.275 OA
ENDBRANCH  13  22
ENDBRANCH   7   8
BRANCH   7  27
ATOM     27  O   UNL     1      23.450  37.193   8.905  1.00  0.00    -0.388 OA
ATOM     28  H   UNL     1      22.818  37.847   8.557  1.00  0.00     0.211 HD
ENDBRANCH   7  27
ENDBRANCH   6   7
BRANCH   6  29
ATOM     29  O   UNL     1      22.419  34.465  10.944  1.00  0.00    -0.388 OA
ATOM     30  H   UNL     1      21.710  35.080  11.276  1.00  0.00     0.211 HD
ENDBRANCH   6  29
ENDBRANCH   5   6
ENDBRANCH   1   5
BRANCH   2  31
ATOM     31  O   UNL     1      27.563  37.395  10.801  1.00  0.00    -0.443 OA
BRANCH  31  32
ATOM     32  C   UNL     1      28.333  38.076  11.774  1.00  0.00     0.294 C 
BRANCH  32  33
ATOM     33  C   UNL     1      29.290  37.155  12.416  1.00  0.00     0.121 A 
ATOM     34  C   UNL     1      29.031  36.052  13.211  1.00  0.00     0.144 A 
ATOM     35  N   UNL     1      30.638  37.215  12.350  1.00  0.00    -0.131 NA
ATOM     36  N   UNL     1      30.199  35.493  13.591  1.00  0.00    -0.220 N 
ATOM     37  N   UNL     1      31.161  36.239  13.040  1.00  0.00    -0.062 NA
BRANCH  36  38
ATOM     38  C   UNL     1      30.420  34.358  14.401  1.00  0.00     0.067 A 
ATOM     39  C   UNL     1      29.408  33.456  14.672  1.00  0.00     0.044 A 
ATOM     40  C   UNL     1      31.656  34.105  14.953  1.00  0.00     0.028 A 
ATOM     41  C   UNL     1      29.582  32.334  15.459  1.00  0.00     0.062 A 
ATOM     42  C   UNL     1      31.864  32.982  15.749  1.00  0.00     0.003 A 
ATOM     43  C   UNL     1      30.831  32.112  15.993  1.00  0.00     0.016 A 
BRANCH  41  44
ATOM     44  C   UNL     1      28.497  31.398  15.728  1.00  0.00     0.338 C 
ATOM     45  O   UNL     1      28.639  30.188  15.427  1.00  0.00    -0.246 OA
BRANCH  44  46
ATOM     46  O   UNL     1      27.301  31.789  16.308  1.00  0.00    -0.462 OA
BRANCH  46  47
ATOM     47  C   UNL     1      26.049  31.591  15.683  1.00  0.00     0.230 C 
ATOM     48  C   UNL     1      25.726  32.802  14.858  1.00  0.00     0.049 C 
ENDBRANCH  46  47
ENDBRANCH  44  46
ENDBRANCH  41  44
ENDBRANCH  36  38
ENDBRANCH  32  33
ENDBRANCH  31  32
ENDBRANCH   2  31
TORSDOF 18
BEGIN_RES LYS A 131
REMARK  4 active torsions:
REMARK  status: ('A' for Active; 'I' for Inactive)
REMARK    1  A    between atoms: CA   and  CB  
REMARK    2  A    between atoms: CB   and  CG  
REMARK    3  A    between atoms: CG   and  CD  
REMARK    4  A    between atoms: CD   and  CE  
ROOT
ATOM      1  CA  LYS A 131      29.867  25.555  16.977  1.00 20.52     0.186 C 
ENDROOT
BRANCH   1   2
ATOM      2  CB  LYS A 131      28.345  25.722  17.026  1.00 20.94     0.034 C 
BRANCH   2   3
ATOM      3  CG  LYS A 131      27.602  24.397  16.943  1.00 22.96     0.005 C 
BRANCH   3   4
ATOM      4  CD  LYS A 131      26.448  24.334  17.905  1.00 24.33     0.041 C 
BRANCH   4   5
ATOM      5  CE  LYS A 131      25.137  24.303  17.126  1.00 26.91     0.338 C 
ATOM      6  NZ  LYS A 131      24.480  22.982  17.267  1.00 27.40     0.618 N 
ENDBRANCH   4   5
ENDBRANCH   3   4
ENDBRANCH   2   3
ENDBRANCH   1   2
END_RES LYS A 131
BEGIN_RES LYS A 135
REMARK  4 active torsions:
REMARK  status: ('A' for Active; 'I' for Inactive)
REMARK    5  A    between atoms: CA   and  CB  
REMARK    6  A    between atoms: CB   and  CG  
REMARK    7  A    between atoms: CG   and  CD  
REMARK    8  A    between atoms: CD   and  CE  
ROOT
ATOM      7  CA  LYS A 135      33.193  34.663   9.290  1.00 25.02     0.186 C 
ENDROOT
BRANCH   7   8
ATOM      8  CB  LYS A 135      32.060  35.360  10.034  1.00 26.63     0.034 C 
BRANCH   8   9
ATOM      9  CG  LYS A 135      30.713  34.722   9.814  1.00 29.45     0.005 C 
BRANCH   9  10
ATOM     10  CD  LYS A 135      30.407  34.612   8.328  1.00 32.00     0.041 C 
BRANCH  10  11
ATOM     11  CE  LYS A 135      28.910  34.652   8.088  1.00 34.25     0.338 C 
ATOM     12  NZ  LYS A 135      28.161  34.186   9.288  1.00 35.99     0.618 N 
ENDBRANCH  10  11
ENDBRANCH   9  10
ENDBRANCH   8   9
ENDBRANCH   7   8
END_RES LYS A 135
