REMARK VINA RESULT:    -4.387      3.437      6.590
REMARK INTER + INTRA:         -14.246
REMARK INTER:                  -7.849
REMARK INTRA:                  -6.398
REMARK UNBOUND:                -6.398
REMARK SMILES CC(=O)N[C@@H]1[C@@H](O)C[C@](O)(C(=O)O)O[C@H]1C(O)[C@H](O)CNC(=O)OCc1cn(Cc2ccc(Br)cc2)nn1
REMARK SMILES IDX 21 1 22 2 23 3 20 5 18 6 16 7 15 8 9 9 8 10 14 11 6 12 5 13
REMARK SMILES IDX 10 14 11 16 12 17 13 18 7 20 4 22 2 23 1 25 3 26 17 27 19 29
REMARK SMILES IDX 24 31 25 32 26 33 27 34 38 35 28 36 37 37 29 38 30 39 31 40
REMARK SMILES IDX 36 41 32 42 35 43 33 44 34 45
REMARK H PARENT 21 4 10 15 13 19 7 21 4 24 17 28 19 30
REMARK Flexibility Score: inf
ROOT
ATOM      1  N   UNL     1      23.971  32.601  14.917  1.00  0.00    -0.319 N 
ATOM      2  C   UNL     1      23.489  31.438  15.566  1.00  0.00     0.407 C 
ATOM      3  O   UNL     1      22.401  30.874  15.342  1.00  0.00    -0.225 OA
ATOM      4  H   UNL     1      24.926  32.997  15.186  1.00  0.00     0.167 HD
ENDROOT
BRANCH   1   5
ATOM      5  C   UNL     1      23.184  33.239  13.908  1.00  0.00     0.154 C 
BRANCH   5   6
ATOM      6  C   UNL     1      23.973  33.919  12.819  1.00  0.00     0.165 C 
BRANCH   6   7
ATOM      7  C   UNL     1      24.983  34.882  13.330  1.00  0.00     0.176 C 
BRANCH   7   8
ATOM      8  C   UNL     1      26.415  34.600  13.103  1.00  0.00     0.178 C 
ATOM      9  C   UNL     1      27.726  35.636  14.693  1.00  0.00     0.269 C 
ATOM     10  C   UNL     1      29.015  35.464  13.922  1.00  0.00     0.112 C 
ATOM     11  O   UNL     1      26.976  34.512  14.388  1.00  0.00    -0.332 OA
ATOM     12  C   UNL     1      28.658  35.535  12.477  1.00  0.00     0.145 C 
ATOM     13  C   UNL     1      27.178  35.425  12.167  1.00  0.00     0.142 C 
BRANCH   9  14
ATOM     14  O   UNL     1      27.163  36.831  14.303  1.00  0.00    -0.357 OA
ATOM     15  H   UNL     1      26.419  37.133  14.858  1.00  0.00     0.214 HD
ENDBRANCH   9  14
BRANCH   9  16
ATOM     16  C   UNL     1      28.061  35.605  16.137  1.00  0.00     0.364 C 
ATOM     17  O   UNL     1      28.688  36.520  16.714  1.00  0.00    -0.246 OA
BRANCH  16  18
ATOM     18  O   UNL     1      27.645  34.490  16.859  1.00  0.00    -0.477 OA
ATOM     19  H   UNL     1      27.550  33.574  16.452  1.00  0.00     0.296 HD
ENDBRANCH  16  18
ENDBRANCH   9  16
BRANCH  12  20
ATOM     20  O   UNL     1      29.065  36.810  12.017  1.00  0.00    -0.391 OA
ATOM     21  H   UNL     1      29.523  37.319  12.715  1.00  0.00     0.211 HD
ENDBRANCH  12  20
BRANCH  13  22
ATOM     22  N   UNL     1      27.193  34.834  10.810  1.00  0.00    -0.348 N 
ATOM     23  C   UNL     1      26.224  35.115   9.840  1.00  0.00     0.217 C 
ATOM     24  H   UNL     1      27.995  34.182  10.635  1.00  0.00     0.163 HD
ATOM     25  C   UNL     1      26.323  34.459   8.502  1.00  0.00     0.114 C 
ATOM     26  O   UNL     1      25.292  35.896  10.082  1.00  0.00    -0.275 OA
ENDBRANCH  13  22
ENDBRANCH   7   8
BRANCH   7  27
ATOM     27  O   UNL     1      24.556  36.176  13.074  1.00  0.00    -0.388 OA
ATOM     28  H   UNL     1      25.045  36.537  12.281  1.00  0.00     0.211 HD
ENDBRANCH   7  27
ENDBRANCH   6   7
BRANCH   6  29
ATOM     29  O   UNL     1      23.214  34.390  11.762  1.00  0.00    -0.388 OA
ATOM     30  H   UNL     1      22.824  33.682  11.212  1.00  0.00     0.211 HD
ENDBRANCH   6  29
ENDBRANCH   5   6
ENDBRANCH   1   5
BRANCH   2  31
ATOM     31  O   UNL     1      24.293  30.856  16.545  1.00  0.00    -0.443 OA
BRANCH  31  32
ATOM     32  C   UNL     1      25.266  29.893  16.219  1.00  0.00     0.294 C 
BRANCH  32  33
ATOM     33  C   UNL     1      26.627  30.458  16.231  1.00  0.00     0.120 A 
ATOM     34  C   UNL     1      27.794  29.987  16.784  1.00  0.00     0.138 A 
ATOM     35  N   UNL     1      26.918  31.639  15.638  1.00  0.00    -0.132 NA
ATOM     36  N   UNL     1      28.758  30.896  16.509  1.00  0.00    -0.248 N 
ATOM     37  N   UNL     1      28.191  31.869  15.821  1.00  0.00    -0.067 NA
BRANCH  36  38
ATOM     38  C   UNL     1      30.144  30.782  16.914  1.00  0.00     0.181 C 
BRANCH  38  39
ATOM     39  C   UNL     1      30.790  32.115  16.679  1.00  0.00    -0.026 A 
ATOM     40  C   UNL     1      30.812  33.046  17.706  1.00  0.00     0.007 A 
ATOM     41  C   UNL     1      31.353  32.394  15.452  1.00  0.00     0.007 A 
ATOM     42  C   UNL     1      31.407  34.257  17.469  1.00  0.00     0.016 A 
ATOM     43  C   UNL     1      31.959  33.626  15.209  1.00  0.00     0.016 A 
ATOM     44  C   UNL     1      31.967  34.529  16.242  1.00  0.00     0.017 A 
ATOM     45  Br  UNL     1      32.792  36.228  15.941  1.00  0.00    -0.051 Br
ENDBRANCH  38  39
ENDBRANCH  36  38
ENDBRANCH  32  33
ENDBRANCH  31  32
ENDBRANCH   2  31
TORSDOF 16
BEGIN_RES LYS A 131
REMARK  4 active torsions:
REMARK  status: ('A' for Active; 'I' for Inactive)
REMARK    1  A    between atoms: CA   and  CB  
REMARK    2  A    between atoms: CB   and  CG  
REMARK    3  A    between atoms: CG   and  CD  
REMARK    4  A    between atoms: CD   and  CE  
ROOT
ATOM      1  CA  LYS A 131      29.867  25.555  16.977  1.00 20.52     0.186 C 
ENDROOT
BRANCH   1   2
ATOM      2  CB  LYS A 131      28.345  25.722  17.026  1.00 20.94     0.034 C 
BRANCH   2   3
ATOM      3  CG  LYS A 131      27.601  24.401  16.900  1.00 22.96     0.005 C 
BRANCH   3   4
ATOM      4  CD  LYS A 131      26.677  24.159  18.061  1.00 24.33     0.041 C 
BRANCH   4   5
ATOM      5  CE  LYS A 131      25.789  25.381  18.269  1.00 26.91     0.338 C 
ATOM      6  NZ  LYS A 131      24.579  25.294  17.418  1.00 27.40     0.618 N 
ENDBRANCH   4   5
ENDBRANCH   3   4
ENDBRANCH   2   3
ENDBRANCH   1   2
END_RES LYS A 131
BEGIN_RES LYS A 135
REMARK  4 active torsions:
REMARK  status: ('A' for Active; 'I' for Inactive)
REMARK    5  A    between atoms: CA   and  CB  
REMARK    6  A    between atoms: CB   and  CG  
REMARK    7  A    between atoms: CG   and  CD  
REMARK    8  A    between atoms: CD   and  CE  
ROOT
ATOM      7  CA  LYS A 135      33.193  34.663   9.290  1.00 25.02     0.186 C 
ENDROOT
BRANCH   7   8
ATOM      8  CB  LYS A 135      32.060  35.360  10.034  1.00 26.63     0.034 C 
BRANCH   8   9
ATOM      9  CG  LYS A 135      30.695  34.820   9.695  1.00 29.45     0.005 C 
BRANCH   9  10
ATOM     10  CD  LYS A 135      30.615  34.448   8.222  1.00 32.00     0.041 C 
BRANCH  10  11
ATOM     11  CE  LYS A 135      29.563  35.285   7.519  1.00 34.25     0.338 C 
ATOM     12  NZ  LYS A 135      29.252  36.518   8.293  1.00 35.99     0.618 N 
ENDBRANCH  10  11
ENDBRANCH   9  10
ENDBRANCH   8   9
ENDBRANCH   7   8
END_RES LYS A 135
