REMARK VINA RESULT:    -3.819      4.319      8.283
REMARK INTER + INTRA:         -17.252
REMARK INTER:                 -11.497
REMARK INTRA:                  -5.755
REMARK UNBOUND:                -8.298
REMARK SMILES CC(=O)N[C@@H]1[C@@H](O)C[C@](O)(C(=O)O)O[C@H]1C(O)[C@H](O)CNC(=O)OCc1cn(CCCCCCCCCCC(=O)O)nn1
REMARK SMILES IDX 29 1 28 2 26 3 27 4 43 5 42 6 25 7 24 8 22 9 21 10 23 12
REMARK SMILES IDX 20 13 18 14 16 15 15 16 9 17 8 18 14 19 6 20 5 21 10 22
REMARK SMILES IDX 11 24 12 25 13 26 7 28 4 30 2 31 1 33 3 34 17 35 19 37 30 39
REMARK SMILES IDX 31 40 32 41 33 42 34 43 35 44 36 45 37 46 38 47 39 48 40 49
REMARK SMILES IDX 41 50
REMARK H PARENT 21 11 10 23 13 27 7 29 4 32 17 36 19 38 41 51
REMARK Flexibility Score: inf
ROOT
ATOM      1  C   UNL     1      34.526  32.185  22.201  1.00  0.00     0.146 C 
ENDROOT
BRANCH   1   2
ATOM      2  N   UNL     1      33.552  31.189  21.848  1.00  0.00    -0.252 N 
ATOM      3  C   UNL     1      31.747  30.100  21.239  1.00  0.00     0.120 A 
ATOM      4  C   UNL     1      32.253  31.352  21.466  1.00  0.00     0.138 A 
ATOM      5  N   UNL     1      32.736  29.214  21.484  1.00  0.00    -0.132 NA
ATOM      6  N   UNL     1      33.792  29.894  21.842  1.00  0.00    -0.067 NA
BRANCH   3   7
ATOM      7  C   UNL     1      30.364  29.808  20.806  1.00  0.00     0.294 C 
BRANCH   7   8
ATOM      8  O   UNL     1      29.720  30.983  20.365  1.00  0.00    -0.443 OA
BRANCH   8   9
ATOM      9  C   UNL     1      29.439  31.175  19.019  1.00  0.00     0.407 C 
ATOM     10  N   UNL     1      30.403  30.908  18.010  1.00  0.00    -0.319 N 
ATOM     11  H   UNL     1      31.352  30.561  18.266  1.00  0.00     0.167 HD
ATOM     12  O   UNL     1      28.276  31.603  18.702  1.00  0.00    -0.225 OA
BRANCH  10  13
ATOM     13  C   UNL     1      30.072  31.119  16.637  1.00  0.00     0.154 C 
BRANCH  13  14
ATOM     14  C   UNL     1      30.850  32.260  16.017  1.00  0.00     0.165 C 
BRANCH  14  15
ATOM     15  C   UNL     1      29.936  33.414  15.739  1.00  0.00     0.176 C 
BRANCH  15  16
ATOM     16  C   UNL     1      30.732  34.587  15.207  1.00  0.00     0.178 C 
ATOM     17  C   UNL     1      31.540  35.463  13.220  1.00  0.00     0.269 C 
ATOM     18  C   UNL     1      32.529  36.150  14.134  1.00  0.00     0.112 C 
ATOM     19  O   UNL     1      30.861  34.434  13.853  1.00  0.00    -0.332 OA
ATOM     20  C   UNL     1      33.153  35.108  15.020  1.00  0.00     0.145 C 
ATOM     21  C   UNL     1      32.039  34.624  15.959  1.00  0.00     0.142 C 
BRANCH  17  22
ATOM     22  O   UNL     1      32.280  34.889  12.190  1.00  0.00    -0.357 OA
ATOM     23  H   UNL     1      31.972  33.975  11.993  1.00  0.00     0.214 HD
ENDBRANCH  17  22
BRANCH  17  24
ATOM     24  C   UNL     1      30.657  36.488  12.662  1.00  0.00     0.364 C 
ATOM     25  O   UNL     1      31.105  37.643  12.462  1.00  0.00    -0.246 OA
BRANCH  24  26
ATOM     26  O   UNL     1      29.327  36.272  12.329  1.00  0.00    -0.477 OA
ATOM     27  H   UNL     1      28.633  36.991  12.590  1.00  0.00     0.296 HD
ENDBRANCH  24  26
ENDBRANCH  17  24
BRANCH  20  28
ATOM     28  O   UNL     1      33.688  34.076  14.279  1.00  0.00    -0.391 OA
ATOM     29  H   UNL     1      34.146  34.468  13.494  1.00  0.00     0.211 HD
ENDBRANCH  20  28
BRANCH  21  30
ATOM     30  N   UNL     1      31.995  35.586  17.039  1.00  0.00    -0.348 N 
ATOM     31  C   UNL     1      31.890  35.106  18.366  1.00  0.00     0.217 C 
ATOM     32  H   UNL     1      32.040  36.621  16.867  1.00  0.00     0.163 HD
ATOM     33  C   UNL     1      31.843  36.068  19.510  1.00  0.00     0.114 C 
ATOM     34  O   UNL     1      31.837  33.881  18.587  1.00  0.00    -0.275 OA
ENDBRANCH  21  30
ENDBRANCH  15  16
BRANCH  15  35
ATOM     35  O   UNL     1      29.266  33.728  16.925  1.00  0.00    -0.388 OA
ATOM     36  H   UNL     1      29.117  34.682  17.045  1.00  0.00     0.211 HD
ENDBRANCH  15  35
ENDBRANCH  14  15
BRANCH  14  37
ATOM     37  O   UNL     1      31.443  31.878  14.813  1.00  0.00    -0.388 OA
ATOM     38  H   UNL     1      30.866  31.278  14.305  1.00  0.00     0.211 HD
ENDBRANCH  14  37
ENDBRANCH  13  14
ENDBRANCH  10  13
ENDBRANCH   8   9
ENDBRANCH   7   8
ENDBRANCH   3   7
ENDBRANCH   1   2
BRANCH   1  39
ATOM     39  C   UNL     1      35.905  31.607  22.027  1.00  0.00     0.024 C 
BRANCH  39  40
ATOM     40  C   UNL     1      36.761  32.408  21.088  1.00  0.00     0.002 C 
BRANCH  40  41
ATOM     41  C   UNL     1      38.218  32.026  21.169  1.00  0.00     0.000 C 
BRANCH  41  42
ATOM     42  C   UNL     1      39.038  32.947  20.270  1.00  0.00     0.000 C 
BRANCH  42  43
ATOM     43  C   UNL     1      38.236  33.258  19.034  1.00  0.00     0.000 C 
BRANCH  43  44
ATOM     44  C   UNL     1      39.066  33.133  17.789  1.00  0.00     0.000 C 
BRANCH  44  45
ATOM     45  C   UNL     1      38.328  33.670  16.608  1.00  0.00     0.001 C 
BRANCH  45  46
ATOM     46  C   UNL     1      38.329  35.196  16.608  1.00  0.00     0.012 C 
BRANCH  46  47
ATOM     47  C   UNL     1      36.984  35.764  16.241  1.00  0.00     0.122 C 
BRANCH  47  48
ATOM     48  C   UNL     1      36.293  36.086  17.529  1.00  0.00     0.303 C 
ATOM     49  O   UNL     1      35.060  35.980  17.692  1.00  0.00    -0.252 OA
BRANCH  48  50
ATOM     50  O   UNL     1      37.053  36.528  18.613  1.00  0.00    -0.481 OA
ATOM     51  H   UNL     1      37.994  36.845  18.452  1.00  0.00     0.296 HD
ENDBRANCH  48  50
ENDBRANCH  47  48
ENDBRANCH  46  47
ENDBRANCH  45  46
ENDBRANCH  44  45
ENDBRANCH  43  44
ENDBRANCH  42  43
ENDBRANCH  41  42
ENDBRANCH  40  41
ENDBRANCH  39  40
ENDBRANCH   1  39
TORSDOF 26
BEGIN_RES LYS A 131
REMARK  4 active torsions:
REMARK  status: ('A' for Active; 'I' for Inactive)
REMARK    1  A    between atoms: CA   and  CB  
REMARK    2  A    between atoms: CB   and  CG  
REMARK    3  A    between atoms: CG   and  CD  
REMARK    4  A    between atoms: CD   and  CE  
ROOT
ATOM      1  CA  LYS A 131      29.867  25.555  16.977  1.00 20.52     0.186 C 
ENDROOT
BRANCH   1   2
ATOM      2  CB  LYS A 131      28.345  25.722  17.026  1.00 20.94     0.034 C 
BRANCH   2   3
ATOM      3  CG  LYS A 131      27.833  26.068  18.416  1.00 22.96     0.005 C 
BRANCH   3   4
ATOM      4  CD  LYS A 131      26.333  26.169  18.458  1.00 24.33     0.041 C 
BRANCH   4   5
ATOM      5  CE  LYS A 131      25.926  27.632  18.606  1.00 26.91     0.338 C 
ATOM      6  NZ  LYS A 131      27.068  28.442  19.091  1.00 27.40     0.618 N 
ENDBRANCH   4   5
ENDBRANCH   3   4
ENDBRANCH   2   3
ENDBRANCH   1   2
END_RES LYS A 131
BEGIN_RES LYS A 135
REMARK  4 active torsions:
REMARK  status: ('A' for Active; 'I' for Inactive)
REMARK    5  A    between atoms: CA   and  CB  
REMARK    6  A    between atoms: CB   and  CG  
REMARK    7  A    between atoms: CG   and  CD  
REMARK    8  A    between atoms: CD   and  CE  
ROOT
ATOM      7  CA  LYS A 135      33.193  34.663   9.290  1.00 25.02     0.186 C 
ENDROOT
BRANCH   7   8
ATOM      8  CB  LYS A 135      32.060  35.360  10.034  1.00 26.63     0.034 C 
BRANCH   8   9
ATOM      9  CG  LYS A 135      30.828  35.573   9.193  1.00 29.45     0.005 C 
BRANCH   9  10
ATOM     10  CD  LYS A 135      30.146  34.247   8.895  1.00 32.00     0.041 C 
BRANCH  10  11
ATOM     11  CE  LYS A 135      28.656  34.448   8.693  1.00 34.25     0.338 C 
ATOM     12  NZ  LYS A 135      27.870  33.677   9.695  1.00 35.99     0.618 N 
ENDBRANCH  10  11
ENDBRANCH   9  10
ENDBRANCH   8   9
ENDBRANCH   7   8
END_RES LYS A 135
