REMARK VINA RESULT:    -5.425      3.583      7.692
REMARK INTER + INTRA:         -15.042
REMARK INTER:                  -7.463
REMARK INTRA:                  -7.580
REMARK UNBOUND:                -5.337
REMARK SMILES CC(=O)N[C@@H]1[C@@H](O)C[C@](O)(C(=O)O)O[C@H]1C(O)[C@H](O)CNC(=O)OCc1cn(CC2=CC[C@H]3C[C@@H]2C3(C)C)nn1
REMARK SMILES IDX 21 1 22 2 23 3 20 5 18 6 16 7 15 8 9 9 8 10 14 11 6 12 5 13
REMARK SMILES IDX 10 14 11 16 12 17 13 18 7 20 4 22 2 23 1 25 3 26 17 27 19 29
REMARK SMILES IDX 24 31 25 32 26 33 27 34 40 35 28 36 39 37 29 38 30 39 31 40
REMARK SMILES IDX 35 41 32 42 34 43 36 44 33 45 37 46 38 47
REMARK H PARENT 21 4 10 15 13 19 7 21 4 24 17 28 19 30
REMARK Flexibility Score: inf
ROOT
ATOM      1  N   UNL     1      28.579  30.631  19.531  1.00  0.00    -0.319 N 
ATOM      2  C   UNL     1      27.402  29.913  19.939  1.00  0.00     0.407 C 
ATOM      3  O   UNL     1      26.494  30.542  20.541  1.00  0.00    -0.225 OA
ATOM      4  H   UNL     1      29.334  30.115  19.032  1.00  0.00     0.167 HD
ENDROOT
BRANCH   1   5
ATOM      5  C   UNL     1      28.694  32.045  19.819  1.00  0.00     0.154 C 
BRANCH   5   6
ATOM      6  C   UNL     1      29.004  32.760  18.534  1.00  0.00     0.165 C 
BRANCH   6   7
ATOM      7  C   UNL     1      27.930  32.555  17.489  1.00  0.00     0.176 C 
BRANCH   7   8
ATOM      8  C   UNL     1      27.763  33.866  16.757  1.00  0.00     0.178 C 
ATOM      9  C   UNL     1      25.692  33.751  15.725  1.00  0.00     0.269 C 
ATOM     10  C   UNL     1      26.263  33.887  14.332  1.00  0.00     0.112 C 
ATOM     11  O   UNL     1      26.477  34.318  16.699  1.00  0.00    -0.332 OA
ATOM     12  C   UNL     1      27.593  34.591  14.441  1.00  0.00     0.145 C 
ATOM     13  C   UNL     1      28.442  33.791  15.409  1.00  0.00     0.142 C 
BRANCH   9  14
ATOM     14  O   UNL     1      25.400  32.407  15.979  1.00  0.00    -0.357 OA
ATOM     15  H   UNL     1      26.127  31.887  15.541  1.00  0.00     0.214 HD
ENDBRANCH   9  14
BRANCH   9  16
ATOM     16  C   UNL     1      24.387  34.477  15.725  1.00  0.00     0.364 C 
ATOM     17  O   UNL     1      23.360  33.907  16.228  1.00  0.00    -0.246 OA
BRANCH  16  18
ATOM     18  O   UNL     1      24.235  35.743  15.204  1.00  0.00    -0.477 OA
ATOM     19  H   UNL     1      25.014  36.393  15.137  1.00  0.00     0.296 HD
ENDBRANCH  16  18
ENDBRANCH   9  16
BRANCH  12  20
ATOM     20  O   UNL     1      28.256  34.658  13.231  1.00  0.00    -0.391 OA
ATOM     21  H   UNL     1      28.769  33.817  13.126  1.00  0.00     0.211 HD
ENDBRANCH  12  20
BRANCH  13  22
ATOM     22  N   UNL     1      29.803  34.260  15.437  1.00  0.00    -0.348 N 
ATOM     23  C   UNL     1      30.899  33.386  15.223  1.00  0.00     0.217 C 
ATOM     24  H   UNL     1      29.969  35.274  15.621  1.00  0.00     0.163 HD
ATOM     25  C   UNL     1      32.274  33.955  15.270  1.00  0.00     0.114 C 
ATOM     26  O   UNL     1      30.707  32.164  15.001  1.00  0.00    -0.275 OA
ENDBRANCH  13  22
ENDBRANCH   7   8
BRANCH   7  27
ATOM     27  O   UNL     1      28.322  31.597  16.558  1.00  0.00    -0.388 OA
ATOM     28  H   UNL     1      28.036  31.798  15.651  1.00  0.00     0.211 HD
ENDBRANCH   7  27
ENDBRANCH   6   7
BRANCH   6  29
ATOM     29  O   UNL     1      30.206  32.204  18.046  1.00  0.00    -0.388 OA
ATOM     30  H   UNL     1      30.522  31.479  18.655  1.00  0.00     0.211 HD
ENDBRANCH   6  29
ENDBRANCH   5   6
ENDBRANCH   1   5
BRANCH   2  31
ATOM     31  O   UNL     1      27.225  28.578  19.701  1.00  0.00    -0.443 OA
BRANCH  31  32
ATOM     32  C   UNL     1      27.331  27.978  18.422  1.00  0.00     0.294 C 
BRANCH  32  33
ATOM     33  C   UNL     1      26.293  28.516  17.519  1.00  0.00     0.120 A 
ATOM     34  C   UNL     1      24.935  28.302  17.546  1.00  0.00     0.138 A 
ATOM     35  N   UNL     1      26.516  29.336  16.482  1.00  0.00    -0.132 NA
ATOM     36  N   UNL     1      24.356  28.998  16.522  1.00  0.00    -0.248 N 
ATOM     37  N   UNL     1      25.348  29.614  15.897  1.00  0.00    -0.067 NA
BRANCH  36  38
ATOM     38  C   UNL     1      22.943  29.018  16.230  1.00  0.00     0.177 C 
BRANCH  38  39
ATOM     39  C   UNL     1      22.692  29.438  14.807  1.00  0.00    -0.049 C 
ATOM     40  C   UNL     1      22.828  28.581  13.799  1.00  0.00    -0.025 C 
ATOM     41  C   UNL     1      22.285  30.818  14.478  1.00  0.00     0.023 C 
ATOM     42  C   UNL     1      22.332  28.979  12.454  1.00  0.00     0.031 C 
ATOM     43  C   UNL     1      21.010  30.694  13.630  1.00  0.00     0.013 C 
ATOM     44  C   UNL     1      22.984  31.255  13.206  1.00  0.00    -0.026 C 
ATOM     45  C   UNL     1      21.934  30.422  12.455  1.00  0.00    -0.000 C 
ATOM     46  C   UNL     1      22.806  32.712  12.882  1.00  0.00     0.012 C 
ATOM     47  C   UNL     1      24.390  30.788  13.039  1.00  0.00     0.012 C 
ENDBRANCH  38  39
ENDBRANCH  36  38
ENDBRANCH  32  33
ENDBRANCH  31  32
ENDBRANCH   2  31
TORSDOF 16
BEGIN_RES LYS A 131
REMARK  4 active torsions:
REMARK  status: ('A' for Active; 'I' for Inactive)
REMARK    1  A    between atoms: CA   and  CB  
REMARK    2  A    between atoms: CB   and  CG  
REMARK    3  A    between atoms: CG   and  CD  
REMARK    4  A    between atoms: CD   and  CE  
ROOT
ATOM      1  CA  LYS A 131      29.867  25.555  16.977  1.00 20.52     0.186 C 
ENDROOT
BRANCH   1   2
ATOM      2  CB  LYS A 131      28.345  25.722  17.026  1.00 20.94     0.034 C 
BRANCH   2   3
ATOM      3  CG  LYS A 131      27.601  24.404  16.877  1.00 22.96     0.005 C 
BRANCH   3   4
ATOM      4  CD  LYS A 131      26.489  24.265  17.879  1.00 24.33     0.041 C 
BRANCH   4   5
ATOM      5  CE  LYS A 131      25.150  24.515  17.192  1.00 26.91     0.338 C 
ATOM      6  NZ  LYS A 131      24.363  23.261  17.118  1.00 27.40     0.618 N 
ENDBRANCH   4   5
ENDBRANCH   3   4
ENDBRANCH   2   3
ENDBRANCH   1   2
END_RES LYS A 131
BEGIN_RES LYS A 135
REMARK  4 active torsions:
REMARK  status: ('A' for Active; 'I' for Inactive)
REMARK    5  A    between atoms: CA   and  CB  
REMARK    6  A    between atoms: CB   and  CG  
REMARK    7  A    between atoms: CG   and  CD  
REMARK    8  A    between atoms: CD   and  CE  
ROOT
ATOM      7  CA  LYS A 135      33.193  34.663   9.290  1.00 25.02     0.186 C 
ENDROOT
BRANCH   7   8
ATOM      8  CB  LYS A 135      32.060  35.360  10.034  1.00 26.63     0.034 C 
BRANCH   8   9
ATOM      9  CG  LYS A 135      30.710  34.733   9.799  1.00 29.45     0.005 C 
BRANCH   9  10
ATOM     10  CD  LYS A 135      30.463  34.531   8.312  1.00 32.00     0.041 C 
BRANCH  10  11
ATOM     11  CE  LYS A 135      29.018  34.834   7.966  1.00 34.25     0.338 C 
ATOM     12  NZ  LYS A 135      28.916  35.555   6.667  1.00 35.99     0.618 N 
ENDBRANCH  10  11
ENDBRANCH   9  10
ENDBRANCH   8   9
ENDBRANCH   7   8
END_RES LYS A 135
