REMARK VINA RESULT:    -5.684      3.913      7.449
REMARK INTER + INTRA:         -16.277
REMARK INTER:                 -10.051
REMARK INTRA:                  -6.226
REMARK UNBOUND:                -5.110
REMARK SMILES CC(=O)N[C@@H]1[C@@H](O)C[C@](O)(C(=O)O)O[C@H]1C(O)[C@H](O)CNC(=O)OCc1cn([C@@H](C)C(=O)OCc2ccccc2)nn1
REMARK SMILES IDX 24 1 22 2 21 3 23 5 20 6 18 7 16 8 15 9 9 10 8 11 14 12 6 13
REMARK SMILES IDX 5 14 10 15 11 17 12 18 13 19 7 21 4 23 2 24 1 26 3 27 17 28
REMARK SMILES IDX 19 30 25 32 26 33 27 34 42 35 28 36 41 37 29 38 30 39 31 40
REMARK SMILES IDX 32 41 33 42 34 43 35 44 36 45 40 46 37 47 39 48 38 49
REMARK H PARENT 21 4 10 16 13 20 7 22 4 25 17 29 19 31
REMARK Flexibility Score: inf
ROOT
ATOM      1  O   UNL     1      26.137  36.805  13.193  1.00  0.00    -0.443 OA
ENDROOT
BRANCH   1   2
ATOM      2  C   UNL     1      25.648  36.704  11.870  1.00  0.00     0.407 C 
ATOM      3  N   UNL     1      25.711  37.813  10.998  1.00  0.00    -0.319 N 
ATOM      4  H   UNL     1      26.129  38.702  11.419  1.00  0.00     0.167 HD
ATOM      5  O   UNL     1      25.177  35.596  11.553  1.00  0.00    -0.225 OA
BRANCH   3   6
ATOM      6  C   UNL     1      25.255  37.779   9.646  1.00  0.00     0.154 C 
BRANCH   6   7
ATOM      7  C   UNL     1      26.165  36.995   8.761  1.00  0.00     0.165 C 
BRANCH   7   8
ATOM      8  C   UNL     1      26.412  37.755   7.460  1.00  0.00     0.176 C 
BRANCH   8   9
ATOM      9  C   UNL     1      27.228  38.997   7.640  1.00  0.00     0.178 C 
ATOM     10  C   UNL     1      27.980  39.234   5.434  1.00  0.00     0.269 C 
ATOM     11  C   UNL     1      29.300  38.670   5.852  1.00  0.00     0.112 C 
ATOM     12  O   UNL     1      27.242  39.765   6.463  1.00  0.00    -0.332 OA
ATOM     13  C   UNL     1      29.678  39.250   7.200  1.00  0.00     0.145 C 
ATOM     14  C   UNL     1      28.606  38.801   8.180  1.00  0.00     0.142 C 
BRANCH  10  15
ATOM     15  O   UNL     1      27.261  38.297   4.729  1.00  0.00    -0.357 OA
ATOM     16  H   UNL     1      27.402  37.367   5.059  1.00  0.00     0.214 HD
ENDBRANCH  10  15
BRANCH  10  17
ATOM     17  C   UNL     1      28.245  40.384   4.495  1.00  0.00     0.364 C 
ATOM     18  O   UNL     1      29.381  40.920   4.441  1.00  0.00    -0.246 OA
BRANCH  17  19
ATOM     19  O   UNL     1      27.261  40.892   3.659  1.00  0.00    -0.477 OA
ATOM     20  H   UNL     1      26.258  40.731   3.840  1.00  0.00     0.296 HD
ENDBRANCH  17  19
ENDBRANCH  10  17
BRANCH  13  21
ATOM     21  O   UNL     1      30.937  38.829   7.580  1.00  0.00    -0.391 OA
ATOM     22  H   UNL     1      31.376  38.256   6.903  1.00  0.00     0.211 HD
ENDBRANCH  13  21
BRANCH  14  23
ATOM     23  N   UNL     1      28.817  39.479   9.463  1.00  0.00    -0.348 N 
ATOM     24  C   UNL     1      28.931  38.772  10.696  1.00  0.00     0.217 C 
ATOM     25  H   UNL     1      28.891  40.529   9.513  1.00  0.00     0.163 HD
ATOM     26  C   UNL     1      29.145  39.521  11.973  1.00  0.00     0.114 C 
ATOM     27  O   UNL     1      28.852  37.522  10.702  1.00  0.00    -0.275 OA
ENDBRANCH  14  23
ENDBRANCH   8   9
BRANCH   8  28
ATOM     28  O   UNL     1      25.175  38.117   6.911  1.00  0.00    -0.388 OA
ATOM     29  H   UNL     1      25.280  38.235   5.928  1.00  0.00     0.211 HD
ENDBRANCH   8  28
ENDBRANCH   7   8
BRANCH   7  30
ATOM     30  O   UNL     1      25.591  35.757   8.474  1.00  0.00    -0.388 OA
ATOM     31  H   UNL     1      26.194  34.994   8.714  1.00  0.00     0.211 HD
ENDBRANCH   7  30
ENDBRANCH   6   7
ENDBRANCH   3   6
ENDBRANCH   1   2
BRANCH   1  32
ATOM     32  C   UNL     1      26.703  35.660  13.795  1.00  0.00     0.294 C 
BRANCH  32  33
ATOM     33  C   UNL     1      28.133  35.510  13.468  1.00  0.00     0.120 A 
ATOM     34  C   UNL     1      29.194  36.295  13.852  1.00  0.00     0.139 A 
ATOM     35  N   UNL     1      28.661  34.536  12.709  1.00  0.00    -0.132 NA
ATOM     36  N   UNL     1      30.332  35.787  13.322  1.00  0.00    -0.238 N 
ATOM     37  N   UNL     1      29.982  34.731  12.641  1.00  0.00    -0.066 NA
BRANCH  36  38
ATOM     38  C   UNL     1      31.654  36.328  13.495  1.00  0.00     0.215 C 
ATOM     39  C   UNL     1      32.010  37.221  12.326  1.00  0.00     0.046 C 
BRANCH  38  40
ATOM     40  C   UNL     1      31.733  37.023  14.787  1.00  0.00     0.331 C 
ATOM     41  O   UNL     1      31.508  38.268  14.841  1.00  0.00    -0.250 OA
BRANCH  40  42
ATOM     42  O   UNL     1      32.047  36.374  15.962  1.00  0.00    -0.459 OA
BRANCH  42  43
ATOM     43  C   UNL     1      32.850  35.245  16.102  1.00  0.00     0.268 C 
BRANCH  43  44
ATOM     44  C   UNL     1      31.988  34.064  16.384  1.00  0.00    -0.011 A 
ATOM     45  C   UNL     1      31.731  33.139  15.397  1.00  0.00     0.007 A 
ATOM     46  C   UNL     1      31.449  33.892  17.630  1.00  0.00     0.007 A 
ATOM     47  C   UNL     1      30.939  32.046  15.654  1.00  0.00     0.000 A 
ATOM     48  C   UNL     1      30.657  32.814  17.914  1.00  0.00     0.000 A 
ATOM     49  C   UNL     1      30.403  31.894  16.926  1.00  0.00     0.000 A 
ENDBRANCH  43  44
ENDBRANCH  42  43
ENDBRANCH  40  42
ENDBRANCH  38  40
ENDBRANCH  36  38
ENDBRANCH  32  33
ENDBRANCH   1  32
TORSDOF 19
BEGIN_RES LYS A 131
REMARK  4 active torsions:
REMARK  status: ('A' for Active; 'I' for Inactive)
REMARK    1  A    between atoms: CA   and  CB  
REMARK    2  A    between atoms: CB   and  CG  
REMARK    3  A    between atoms: CG   and  CD  
REMARK    4  A    between atoms: CD   and  CE  
ROOT
ATOM      1  CA  LYS A 131      29.867  25.555  16.977  1.00 20.52     0.186 C 
ENDROOT
BRANCH   1   2
ATOM      2  CB  LYS A 131      28.345  25.722  17.026  1.00 20.94     0.034 C 
BRANCH   2   3
ATOM      3  CG  LYS A 131      27.601  24.403  16.887  1.00 22.96     0.005 C 
BRANCH   3   4
ATOM      4  CD  LYS A 131      26.604  24.196  17.993  1.00 24.33     0.041 C 
BRANCH   4   5
ATOM      5  CE  LYS A 131      25.611  23.111  17.586  1.00 26.91     0.338 C 
ATOM      6  NZ  LYS A 131      24.422  23.713  16.936  1.00 27.40     0.618 N 
ENDBRANCH   4   5
ENDBRANCH   3   4
ENDBRANCH   2   3
ENDBRANCH   1   2
END_RES LYS A 131
BEGIN_RES LYS A 135
REMARK  4 active torsions:
REMARK  status: ('A' for Active; 'I' for Inactive)
REMARK    5  A    between atoms: CA   and  CB  
REMARK    6  A    between atoms: CB   and  CG  
REMARK    7  A    between atoms: CG   and  CD  
REMARK    8  A    between atoms: CD   and  CE  
ROOT
ATOM      7  CA  LYS A 135      33.193  34.663   9.290  1.00 25.02     0.186 C 
ENDROOT
BRANCH   7   8
ATOM      8  CB  LYS A 135      32.060  35.360  10.034  1.00 26.63     0.034 C 
BRANCH   8   9
ATOM      9  CG  LYS A 135      30.881  35.697   9.158  1.00 29.45     0.005 C 
BRANCH   9  10
ATOM     10  CD  LYS A 135      30.387  34.459   8.424  1.00 32.00     0.041 C 
BRANCH  10  11
ATOM     11  CE  LYS A 135      28.874  34.470   8.322  1.00 34.25     0.338 C 
ATOM     12  NZ  LYS A 135      28.253  33.746   9.466  1.00 35.99     0.618 N 
ENDBRANCH  10  11
ENDBRANCH   9  10
ENDBRANCH   8   9
ENDBRANCH   7   8
END_RES LYS A 135
