REMARK VINA RESULT:    -4.632      3.189      9.225
REMARK INTER + INTRA:         -16.679
REMARK INTER:                  -9.157
REMARK INTRA:                  -7.521
REMARK UNBOUND:                -7.171
REMARK SMILES CCOCCc1c(-c2ccccc2)nc(N)nc1-n1cc(COC(=O)NC[C@@H](O)C(O)[C@@H]2O[C@@](O)(C(=O)O)C[C@H](O)[C@H]2NC(C)=O)nn1
REMARK SMILES IDX 23 1 24 2 26 3 25 5 27 6 28 7 30 8 32 9 34 10 39 11 33 12
REMARK SMILES IDX 40 13 42 14 35 15 36 17 37 18 38 19 41 21 43 23 44 24 45 26
REMARK SMILES IDX 46 27 31 28 29 30 22 32 21 33 20 34 47 35 19 36 48 37 18 38
REMARK SMILES IDX 17 39 6 40 15 41 7 42 14 43 5 44 4 45 3 46 2 47 1 48 16 49
REMARK SMILES IDX 8 52 9 53 13 54 10 55 12 56 11 57
REMARK H PARENT 26 4 35 16 38 20 41 22 43 25 31 29 29 31 16 50 16 51
REMARK Flexibility Score: inf
ROOT
ATOM      1  O   UNL     1      32.518  36.434  13.685  1.00  0.00    -0.443 OA
ENDROOT
BRANCH   1   2
ATOM      2  C   UNL     1      32.618  35.335  14.510  1.00  0.00     0.407 C 
ATOM      3  N   UNL     1      31.804  35.201  15.695  1.00  0.00    -0.319 N 
ATOM      4  H   UNL     1      31.154  35.995  15.863  1.00  0.00     0.167 HD
ATOM      5  O   UNL     1      33.445  34.439  14.207  1.00  0.00    -0.225 OA
BRANCH   3   6
ATOM      6  C   UNL     1      31.950  34.028  16.524  1.00  0.00     0.154 C 
BRANCH   6   7
ATOM      7  C   UNL     1      30.554  33.554  16.906  1.00  0.00     0.165 C 
BRANCH   7   8
ATOM      8  C   UNL     1      30.249  32.365  16.027  1.00  0.00     0.176 C 
BRANCH   8   9
ATOM      9  C   UNL     1      29.929  31.100  16.763  1.00  0.00     0.178 C 
ATOM     10  C   UNL     1      27.633  31.142  16.295  1.00  0.00     0.269 C 
ATOM     11  C   UNL     1      27.444  31.753  17.673  1.00  0.00     0.112 C 
ATOM     12  O   UNL     1      28.841  30.521  16.153  1.00  0.00    -0.332 OA
ATOM     13  C   UNL     1      28.339  31.013  18.645  1.00  0.00     0.145 C 
ATOM     14  C   UNL     1      29.814  31.202  18.240  1.00  0.00     0.142 C 
BRANCH  10  15
ATOM     15  O   UNL     1      27.445  32.191  15.386  1.00  0.00    -0.357 OA
ATOM     16  H   UNL     1      26.683  32.761  15.630  1.00  0.00     0.214 HD
ENDBRANCH  10  15
BRANCH  10  17
ATOM     17  C   UNL     1      26.584  30.137  16.026  1.00  0.00     0.364 C 
ATOM     18  O   UNL     1      26.714  28.981  16.472  1.00  0.00    -0.246 OA
BRANCH  17  19
ATOM     19  O   UNL     1      25.476  30.471  15.292  1.00  0.00    -0.477 OA
ATOM     20  H   UNL     1      24.871  31.259  15.484  1.00  0.00     0.296 HD
ENDBRANCH  17  19
ENDBRANCH  10  17
BRANCH  13  21
ATOM     21  O   UNL     1      28.119  31.428  19.938  1.00  0.00    -0.391 OA
ATOM     22  H   UNL     1      28.845  31.149  20.536  1.00  0.00     0.211 HD
ENDBRANCH  13  21
BRANCH  14  23
ATOM     23  N   UNL     1      30.524  30.119  18.935  1.00  0.00    -0.348 N 
ATOM     24  C   UNL     1      31.182  30.388  20.159  1.00  0.00     0.217 C 
ATOM     25  H   UNL     1      30.553  29.154  18.543  1.00  0.00     0.163 HD
ATOM     26  C   UNL     1      31.923  29.335  20.919  1.00  0.00     0.114 C 
ATOM     27  O   UNL     1      31.125  31.569  20.603  1.00  0.00    -0.275 OA
ENDBRANCH  14  23
ENDBRANCH   8   9
BRANCH   8  28
ATOM     28  O   UNL     1      31.514  32.099  15.406  1.00  0.00    -0.388 OA
ATOM     29  H   UNL     1      31.872  31.251  15.733  1.00  0.00     0.211 HD
ENDBRANCH   8  28
ENDBRANCH   7   8
BRANCH   7  30
ATOM     30  O   UNL     1      29.711  34.637  16.710  1.00  0.00    -0.388 OA
ATOM     31  H   UNL     1      28.766  34.392  16.811  1.00  0.00     0.211 HD
ENDBRANCH   7  30
ENDBRANCH   6   7
ENDBRANCH   3   6
ENDBRANCH   1   2
BRANCH   1  32
ATOM     32  C   UNL     1      31.508  36.650  12.724  1.00  0.00     0.294 C 
BRANCH  32  33
ATOM     33  C   UNL     1      30.300  35.836  13.072  1.00  0.00     0.121 A 
ATOM     34  C   UNL     1      29.130  36.261  13.649  1.00  0.00     0.146 A 
ATOM     35  N   UNL     1      30.143  34.508  12.880  1.00  0.00    -0.131 NA
ATOM     36  N   UNL     1      28.279  35.201  13.802  1.00  0.00    -0.202 N 
ATOM     37  N   UNL     1      28.947  34.162  13.317  1.00  0.00    -0.060 NA
BRANCH  36  38
ATOM     38  C   UNL     1      26.984  35.231  14.375  1.00  0.00     0.164 A 
ATOM     39  N   UNL     1      26.808  35.166  15.702  1.00  0.00    -0.193 NA
ATOM     40  C   UNL     1      25.845  35.303  13.564  1.00  0.00     0.026 A 
ATOM     41  C   UNL     1      25.568  35.168  16.254  1.00  0.00     0.222 A 
ATOM     42  C   UNL     1      24.596  35.302  14.116  1.00  0.00     0.081 A 
ATOM     43  N   UNL     1      24.472  35.233  15.491  1.00  0.00    -0.213 NA
BRANCH  40  44
ATOM     44  C   UNL     1      26.030  35.343  12.099  1.00  0.00     0.070 C 
BRANCH  44  45
ATOM     45  C   UNL     1      26.039  36.720  11.497  1.00  0.00     0.165 C 
BRANCH  45  46
ATOM     46  O   UNL     1      25.266  36.812  10.373  1.00  0.00    -0.381 OA
BRANCH  46  47
ATOM     47  C   UNL     1      24.809  35.604   9.900  1.00  0.00     0.156 C 
ATOM     48  C   UNL     1      23.516  35.756   9.126  1.00  0.00     0.035 C 
ENDBRANCH  46  47
ENDBRANCH  45  46
ENDBRANCH  44  45
ENDBRANCH  40  44
BRANCH  41  49
ATOM     49  N   UNL     1      25.430  35.098  17.659  1.00  0.00    -0.368 N 
ATOM     50  H   UNL     1      25.813  35.851  18.258  1.00  0.00     0.159 HD
ATOM     51  H   UNL     1      24.949  34.306  18.125  1.00  0.00     0.159 HD
ENDBRANCH  41  49
BRANCH  42  52
ATOM     52  C   UNL     1      23.381  35.258  13.327  1.00  0.00     0.001 A 
ATOM     53  C   UNL     1      22.602  36.280  12.924  1.00  0.00     0.010 A 
ATOM     54  C   UNL     1      22.983  33.967  12.913  1.00  0.00     0.010 A 
ATOM     55  C   UNL     1      21.459  36.055  12.133  1.00  0.00     0.001 A 
ATOM     56  C   UNL     1      21.876  33.735  12.145  1.00  0.00     0.001 A 
ATOM     57  C   UNL     1      21.084  34.794  11.737  1.00  0.00     0.000 A 
ENDBRANCH  42  52
ENDBRANCH  36  38
ENDBRANCH  32  33
ENDBRANCH   1  32
TORSDOF 21
BEGIN_RES LYS A 131
REMARK  4 active torsions:
REMARK  status: ('A' for Active; 'I' for Inactive)
REMARK    1  A    between atoms: CA   and  CB  
REMARK    2  A    between atoms: CB   and  CG  
REMARK    3  A    between atoms: CG   and  CD  
REMARK    4  A    between atoms: CD   and  CE  
ROOT
ATOM      1  CA  LYS A 131      29.867  25.555  16.977  1.00 20.52     0.186 C 
ENDROOT
BRANCH   1   2
ATOM      2  CB  LYS A 131      28.345  25.722  17.026  1.00 20.94     0.034 C 
BRANCH   2   3
ATOM      3  CG  LYS A 131      27.602  24.399  16.926  1.00 22.96     0.005 C 
BRANCH   3   4
ATOM      4  CD  LYS A 131      26.654  24.193  18.075  1.00 24.33     0.041 C 
BRANCH   4   5
ATOM      5  CE  LYS A 131      26.372  25.532  18.748  1.00 26.91     0.338 C 
ATOM      6  NZ  LYS A 131      25.598  25.333  19.996  1.00 27.40     0.618 N 
ENDBRANCH   4   5
ENDBRANCH   3   4
ENDBRANCH   2   3
ENDBRANCH   1   2
END_RES LYS A 131
BEGIN_RES LYS A 135
REMARK  4 active torsions:
REMARK  status: ('A' for Active; 'I' for Inactive)
REMARK    5  A    between atoms: CA   and  CB  
REMARK    6  A    between atoms: CB   and  CG  
REMARK    7  A    between atoms: CG   and  CD  
REMARK    8  A    between atoms: CD   and  CE  
ROOT
ATOM      7  CA  LYS A 135      33.193  34.663   9.290  1.00 25.02     0.186 C 
ENDROOT
BRANCH   7   8
ATOM      8  CB  LYS A 135      32.060  35.360  10.034  1.00 26.63     0.034 C 
BRANCH   8   9
ATOM      9  CG  LYS A 135      30.829  35.575   9.192  1.00 29.45     0.005 C 
BRANCH   9  10
ATOM     10  CD  LYS A 135      30.013  34.295   9.099  1.00 32.00     0.041 C 
BRANCH  10  11
ATOM     11  CE  LYS A 135      28.531  34.612   9.036  1.00 34.25     0.338 C 
ATOM     12  NZ  LYS A 135      27.722  33.515   9.638  1.00 35.99     0.618 N 
ENDBRANCH  10  11
ENDBRANCH   9  10
ENDBRANCH   8   9
ENDBRANCH   7   8
END_RES LYS A 135
