REMARK VINA RESULT:    -4.358      2.303      5.932
REMARK INTER + INTRA:         -14.366
REMARK INTER:                  -8.204
REMARK INTRA:                  -6.162
REMARK UNBOUND:                -6.059
REMARK SMILES CC(=O)N[C@@H]1[C@@H](O)C[C@](O)(C(=O)O)O[C@H]1C(O)[C@H](O)CNC(=O)OCc1cn(CCOC(C)=O)nn1
REMARK SMILES IDX 21 1 22 2 23 3 20 5 18 6 16 7 15 8 9 9 8 10 14 11 6 12 5 13
REMARK SMILES IDX 10 14 11 16 12 17 13 18 7 20 4 22 2 23 1 25 3 26 17 27 19 29
REMARK SMILES IDX 24 31 25 32 26 33 27 34 36 35 28 36 35 37 29 38 30 39 31 40
REMARK SMILES IDX 32 41 34 42 33 43
REMARK H PARENT 21 4 10 15 13 19 7 21 4 24 17 28 19 30
REMARK Flexibility Score: inf
ROOT
ATOM      1  N   UNL     1      29.075  30.677  17.434  1.00  0.00    -0.319 N 
ATOM      2  C   UNL     1      28.310  30.174  16.358  1.00  0.00     0.407 C 
ATOM      3  O   UNL     1      28.814  30.046  15.233  1.00  0.00    -0.225 OA
ATOM      4  H   UNL     1      28.567  30.759  18.358  1.00  0.00     0.167 HD
ENDROOT
BRANCH   1   5
ATOM      5  C   UNL     1      30.465  31.071  17.350  1.00  0.00     0.154 C 
BRANCH   5   6
ATOM      6  C   UNL     1      30.620  32.540  17.235  1.00  0.00     0.165 C 
BRANCH   6   7
ATOM      7  C   UNL     1      31.193  33.052  15.932  1.00  0.00     0.176 C 
BRANCH   7   8
ATOM      8  C   UNL     1      30.292  33.967  15.158  1.00  0.00     0.178 C 
ATOM      9  C   UNL     1      32.092  35.052  14.161  1.00  0.00     0.269 C 
ATOM     10  C   UNL     1      32.194  35.949  15.334  1.00  0.00     0.112 C 
ATOM     11  O   UNL     1      30.894  34.412  13.983  1.00  0.00    -0.332 OA
ATOM     12  C   UNL     1      30.973  36.110  16.165  1.00  0.00     0.145 C 
ATOM     13  C   UNL     1      29.830  35.205  15.858  1.00  0.00     0.142 C 
BRANCH   9  14
ATOM     14  O   UNL     1      33.080  34.037  14.189  1.00  0.00    -0.357 OA
ATOM     15  H   UNL     1      33.913  34.334  13.753  1.00  0.00     0.214 HD
ENDBRANCH   9  14
BRANCH   9  16
ATOM     16  C   UNL     1      32.365  35.803  12.903  1.00  0.00     0.364 C 
ATOM     17  O   UNL     1      31.630  36.787  12.551  1.00  0.00    -0.246 OA
BRANCH  16  18
ATOM     18  O   UNL     1      33.407  35.505  12.038  1.00  0.00    -0.477 OA
ATOM     19  H   UNL     1      33.809  36.283  11.504  1.00  0.00     0.296 HD
ENDBRANCH  16  18
ENDBRANCH   9  16
BRANCH  12  20
ATOM     20  O   UNL     1      31.331  35.916  17.502  1.00  0.00    -0.391 OA
ATOM     21  H   UNL     1      32.125  36.486  17.744  1.00  0.00     0.211 HD
ENDBRANCH  12  20
BRANCH  13  22
ATOM     22  N   UNL     1      28.810  35.799  15.026  1.00  0.00    -0.348 N 
ATOM     23  C   UNL     1      27.671  36.426  15.540  1.00  0.00     0.217 C 
ATOM     24  H   UNL     1      28.951  35.744  14.000  1.00  0.00     0.163 HD
ATOM     25  C   UNL     1      26.608  37.046  14.709  1.00  0.00     0.114 C 
ATOM     26  O   UNL     1      27.550  36.460  16.780  1.00  0.00    -0.275 OA
ENDBRANCH  13  22
ENDBRANCH   7   8
BRANCH   7  27
ATOM     27  O   UNL     1      31.213  31.857  15.116  1.00  0.00    -0.388 OA
ATOM     28  H   UNL     1      31.739  31.220  15.691  1.00  0.00     0.211 HD
ENDBRANCH   7  27
ENDBRANCH   6   7
BRANCH   6  29
ATOM     29  O   UNL     1      31.044  33.233  18.328  1.00  0.00    -0.388 OA
ATOM     30  H   UNL     1      31.001  34.195  18.222  1.00  0.00     0.211 HD
ENDBRANCH   6  29
ENDBRANCH   5   6
ENDBRANCH   1   5
BRANCH   2  31
ATOM     31  O   UNL     1      26.959  29.809  16.554  1.00  0.00    -0.443 OA
BRANCH  31  32
ATOM     32  C   UNL     1      26.000  30.805  16.910  1.00  0.00     0.294 C 
BRANCH  32  33
ATOM     33  C   UNL     1      25.438  31.359  15.662  1.00  0.00     0.120 A 
ATOM     34  C   UNL     1      25.133  32.689  15.429  1.00  0.00     0.138 A 
ATOM     35  N   UNL     1      25.113  30.700  14.542  1.00  0.00    -0.132 NA
ATOM     36  N   UNL     1      24.640  32.781  14.185  1.00  0.00    -0.249 N 
ATOM     37  N   UNL     1      24.639  31.572  13.673  1.00  0.00    -0.067 NA
BRANCH  36  38
ATOM     38  C   UNL     1      24.203  34.009  13.560  1.00  0.00     0.187 C 
BRANCH  38  39
ATOM     39  C   UNL     1      25.003  34.211  12.295  1.00  0.00     0.256 C 
BRANCH  39  40
ATOM     40  O   UNL     1      26.352  34.396  12.612  1.00  0.00    -0.464 OA
BRANCH  40  41
ATOM     41  C   UNL     1      27.246  34.866  11.696  1.00  0.00     0.302 C 
ATOM     42  O   UNL     1      28.338  35.353  12.044  1.00  0.00    -0.253 OA
ATOM     43  C   UNL     1      26.932  34.808  10.226  1.00  0.00     0.139 C 
ENDBRANCH  40  41
ENDBRANCH  39  40
ENDBRANCH  38  39
ENDBRANCH  36  38
ENDBRANCH  32  33
ENDBRANCH  31  32
ENDBRANCH   2  31
TORSDOF 18
BEGIN_RES LYS A 131
REMARK  4 active torsions:
REMARK  status: ('A' for Active; 'I' for Inactive)
REMARK    1  A    between atoms: CA   and  CB  
REMARK    2  A    between atoms: CB   and  CG  
REMARK    3  A    between atoms: CG   and  CD  
REMARK    4  A    between atoms: CD   and  CE  
ROOT
ATOM      1  CA  LYS A 131      29.867  25.555  16.977  1.00 20.52     0.186 C 
ENDROOT
BRANCH   1   2
ATOM      2  CB  LYS A 131      28.345  25.722  17.026  1.00 20.94     0.034 C 
BRANCH   2   3
ATOM      3  CG  LYS A 131      27.599  24.423  16.760  1.00 22.96     0.005 C 
BRANCH   3   4
ATOM      4  CD  LYS A 131      26.648  24.078  17.873  1.00 24.33     0.041 C 
BRANCH   4   5
ATOM      5  CE  LYS A 131      25.306  24.760  17.625  1.00 26.91     0.338 C 
ATOM      6  NZ  LYS A 131      24.379  23.840  16.925  1.00 27.40     0.618 N 
ENDBRANCH   4   5
ENDBRANCH   3   4
ENDBRANCH   2   3
ENDBRANCH   1   2
END_RES LYS A 131
BEGIN_RES LYS A 135
REMARK  4 active torsions:
REMARK  status: ('A' for Active; 'I' for Inactive)
REMARK    5  A    between atoms: CA   and  CB  
REMARK    6  A    between atoms: CB   and  CG  
REMARK    7  A    between atoms: CG   and  CD  
REMARK    8  A    between atoms: CD   and  CE  
ROOT
ATOM      7  CA  LYS A 135      33.193  34.663   9.290  1.00 25.02     0.186 C 
ENDROOT
BRANCH   7   8
ATOM      8  CB  LYS A 135      32.060  35.360  10.034  1.00 26.63     0.034 C 
BRANCH   8   9
ATOM      9  CG  LYS A 135      30.691  34.860   9.652  1.00 29.45     0.005 C 
BRANCH   9  10
ATOM     10  CD  LYS A 135      30.080  35.741   8.572  1.00 32.00     0.041 C 
BRANCH  10  11
ATOM     11  CE  LYS A 135      29.375  34.894   7.530  1.00 34.25     0.338 C 
ATOM     12  NZ  LYS A 135      28.702  35.747   6.512  1.00 35.99     0.618 N 
ENDBRANCH  10  11
ENDBRANCH   9  10
ENDBRANCH   8   9
ENDBRANCH   7   8
END_RES LYS A 135
