REMARK VINA RESULT:    -4.223      3.363      8.438
REMARK INTER + INTRA:         -14.302
REMARK INTER:                  -8.975
REMARK INTRA:                  -5.327
REMARK UNBOUND:                -6.624
REMARK SMILES CC(=O)N[C@@H]1[C@@H](O)C[C@](O)(C(=O)O)O[C@H]1C(O)[C@H](O)CNC(=O)OCc1cn(-c2cccc(S(N)(=O)=O)c2)nn1
REMARK SMILES IDX 21 1 22 2 23 3 20 5 18 6 16 7 15 8 9 9 8 10 14 11 6 12 5 13
REMARK SMILES IDX 10 14 11 16 12 17 13 18 7 20 4 22 2 23 1 25 3 26 17 27 19 29
REMARK SMILES IDX 24 31 25 32 26 33 27 34 40 35 28 36 39 37 29 38 38 39 30 40
REMARK SMILES IDX 33 41 31 42 32 43 34 44 36 45 37 46 35 47
REMARK H PARENT 21 4 10 15 13 19 7 21 4 24 17 28 19 30 35 48 35 49
REMARK Flexibility Score: inf
ROOT
ATOM      1  N   UNL     1      25.473  36.556  15.000  1.00  0.00    -0.319 N 
ATOM      2  C   UNL     1      24.562  35.488  15.198  1.00  0.00     0.407 C 
ATOM      3  O   UNL     1      24.549  34.906  16.296  1.00  0.00    -0.225 OA
ATOM      4  H   UNL     1      25.428  37.005  14.045  1.00  0.00     0.167 HD
ENDROOT
BRANCH   1   5
ATOM      5  C   UNL     1      26.391  37.001  16.017  1.00  0.00     0.154 C 
BRANCH   5   6
ATOM      6  C   UNL     1      27.817  36.651  15.652  1.00  0.00     0.165 C 
BRANCH   6   7
ATOM      7  C   UNL     1      28.012  35.146  15.784  1.00  0.00     0.176 C 
BRANCH   7   8
ATOM      8  C   UNL     1      29.508  34.847  15.723  1.00  0.00     0.178 C 
ATOM      9  C   UNL     1      30.642  35.100  13.718  1.00  0.00     0.269 C 
ATOM     10  C   UNL     1      31.605  33.976  14.022  1.00  0.00     0.112 C 
ATOM     11  O   UNL     1      30.130  35.690  14.856  1.00  0.00    -0.332 OA
ATOM     12  C   UNL     1      31.199  33.161  15.203  1.00  0.00     0.145 C 
ATOM     13  C   UNL     1      29.708  33.386  15.454  1.00  0.00     0.142 C 
BRANCH   9  14
ATOM     14  O   UNL     1      29.602  34.684  12.892  1.00  0.00    -0.357 OA
ATOM     15  H   UNL     1      29.997  34.228  12.085  1.00  0.00     0.214 HD
ENDBRANCH   9  14
BRANCH   9  16
ATOM     16  C   UNL     1      31.410  36.141  12.984  1.00  0.00     0.364 C 
ATOM     17  O   UNL     1      31.024  37.338  12.939  1.00  0.00    -0.246 OA
BRANCH  16  18
ATOM     18  O   UNL     1      32.596  35.843  12.311  1.00  0.00    -0.477 OA
ATOM     19  H   UNL     1      33.435  36.384  12.485  1.00  0.00     0.296 HD
ENDBRANCH  16  18
ENDBRANCH   9  16
BRANCH  12  20
ATOM     20  O   UNL     1      31.475  31.811  15.081  1.00  0.00    -0.391 OA
ATOM     21  H   UNL     1      32.292  31.529  15.583  1.00  0.00     0.211 HD
ENDBRANCH  12  20
BRANCH  13  22
ATOM     22  N   UNL     1      29.316  32.661  16.650  1.00  0.00    -0.348 N 
ATOM     23  C   UNL     1      28.765  31.347  16.602  1.00  0.00     0.217 C 
ATOM     24  H   UNL     1      29.445  33.127  17.591  1.00  0.00     0.163 HD
ATOM     25  C   UNL     1      28.401  30.701  17.890  1.00  0.00     0.114 C 
ATOM     26  O   UNL     1      28.621  30.814  15.488  1.00  0.00    -0.275 OA
ENDBRANCH  13  22
ENDBRANCH   7   8
BRANCH   7  27
ATOM     27  O   UNL     1      27.545  34.769  17.031  1.00  0.00    -0.388 OA
ATOM     28  H   UNL     1      27.761  33.826  17.225  1.00  0.00     0.211 HD
ENDBRANCH   7  27
ENDBRANCH   6   7
BRANCH   6  29
ATOM     29  O   UNL     1      28.672  37.320  16.546  1.00  0.00    -0.388 OA
ATOM     30  H   UNL     1      28.309  38.232  16.773  1.00  0.00     0.211 HD
ENDBRANCH   6  29
ENDBRANCH   5   6
ENDBRANCH   1   5
BRANCH   2  31
ATOM     31  O   UNL     1      23.684  35.080  14.188  1.00  0.00    -0.443 OA
BRANCH  31  32
ATOM     32  C   UNL     1      24.016  34.023  13.312  1.00  0.00     0.294 C 
BRANCH  32  33
ATOM     33  C   UNL     1      25.119  34.435  12.409  1.00  0.00     0.121 A 
ATOM     34  C   UNL     1      24.957  34.869  11.107  1.00  0.00     0.144 A 
ATOM     35  N   UNL     1      26.434  34.471  12.655  1.00  0.00    -0.131 NA
ATOM     36  N   UNL     1      26.194  35.137  10.659  1.00  0.00    -0.220 N 
ATOM     37  N   UNL     1      27.101  34.898  11.593  1.00  0.00    -0.062 NA
BRANCH  36  38
ATOM     38  C   UNL     1      26.511  35.615   9.353  1.00  0.00     0.068 A 
ATOM     39  C   UNL     1      26.246  36.905   8.947  1.00  0.00     0.050 A 
ATOM     40  C   UNL     1      27.111  34.778   8.428  1.00  0.00     0.028 A 
ATOM     41  C   UNL     1      26.559  37.365   7.669  1.00  0.00     0.084 A 
ATOM     42  C   UNL     1      27.429  35.206   7.168  1.00  0.00     0.004 A 
ATOM     43  C   UNL     1      27.152  36.498   6.791  1.00  0.00     0.022 A 
BRANCH  41  44
ATOM     44  S   UNL     1      26.223  38.989   7.163  1.00  0.00     0.238 S 
ATOM     45  O   UNL     1      27.062  39.288   5.947  1.00  0.00    -0.207 OA
ATOM     46  O   UNL     1      26.673  39.949   8.239  1.00  0.00    -0.207 OA
BRANCH  44  47
ATOM     47  N   UNL     1      24.566  39.205   6.772  1.00  0.00    -0.225 NA
ATOM     48  H   UNL     1      24.481  39.763   5.904  1.00  0.00     0.137 HD
ATOM     49  H   UNL     1      24.023  39.630   7.553  1.00  0.00     0.137 HD
ENDBRANCH  44  47
ENDBRANCH  41  44
ENDBRANCH  36  38
ENDBRANCH  32  33
ENDBRANCH  31  32
ENDBRANCH   2  31
TORSDOF 17
BEGIN_RES LYS A 131
REMARK  4 active torsions:
REMARK  status: ('A' for Active; 'I' for Inactive)
REMARK    1  A    between atoms: CA   and  CB  
REMARK    2  A    between atoms: CB   and  CG  
REMARK    3  A    between atoms: CG   and  CD  
REMARK    4  A    between atoms: CD   and  CE  
ROOT
ATOM      1  CA  LYS A 131      29.867  25.555  16.977  1.00 20.52     0.186 C 
ENDROOT
BRANCH   1   2
ATOM      2  CB  LYS A 131      28.345  25.722  17.026  1.00 20.94     0.034 C 
BRANCH   2   3
ATOM      3  CG  LYS A 131      27.600  24.409  16.840  1.00 22.96     0.005 C 
BRANCH   3   4
ATOM      4  CD  LYS A 131      26.610  24.158  17.943  1.00 24.33     0.041 C 
BRANCH   4   5
ATOM      5  CE  LYS A 131      25.194  24.361  17.412  1.00 26.91     0.338 C 
ATOM      6  NZ  LYS A 131      24.510  23.056  17.249  1.00 27.40     0.618 N 
ENDBRANCH   4   5
ENDBRANCH   3   4
ENDBRANCH   2   3
ENDBRANCH   1   2
END_RES LYS A 131
BEGIN_RES LYS A 135
REMARK  4 active torsions:
REMARK  status: ('A' for Active; 'I' for Inactive)
REMARK    5  A    between atoms: CA   and  CB  
REMARK    6  A    between atoms: CB   and  CG  
REMARK    7  A    between atoms: CG   and  CD  
REMARK    8  A    between atoms: CD   and  CE  
ROOT
ATOM      7  CA  LYS A 135      33.193  34.663   9.290  1.00 25.02     0.186 C 
ENDROOT
BRANCH   7   8
ATOM      8  CB  LYS A 135      32.060  35.360  10.034  1.00 26.63     0.034 C 
BRANCH   8   9
ATOM      9  CG  LYS A 135      30.759  35.375   9.273  1.00 29.45     0.005 C 
BRANCH   9  10
ATOM     10  CD  LYS A 135      29.942  36.607   9.632  1.00 32.00     0.041 C 
BRANCH  10  11
ATOM     11  CE  LYS A 135      30.655  37.868   9.182  1.00 34.25     0.338 C 
ATOM     12  NZ  LYS A 135      30.069  38.393   7.918  1.00 35.99     0.618 N 
ENDBRANCH  10  11
ENDBRANCH   9  10
ENDBRANCH   8   9
ENDBRANCH   7   8
END_RES LYS A 135
