REMARK VINA RESULT:    -5.746      3.280      6.505
REMARK INTER + INTRA:         -15.741
REMARK INTER:                  -8.706
REMARK INTRA:                  -7.034
REMARK UNBOUND:                -5.796
REMARK SMILES CC(=O)N[C@@H]1[C@@H](O)C[C@](O)(C(=O)O)O[C@H]1C(O)[C@H](O)CNC(=O)OCc1cn(C2CCCCC2)nn1
REMARK SMILES IDX 20 1 18 2 16 3 15 4 9 5 8 6 14 7 6 8 5 9 10 10 11 12 12 13
REMARK SMILES IDX 13 14 7 16 4 18 2 19 1 21 3 22 17 23 19 25 21 27 22 28 23 30
REMARK SMILES IDX 24 31 25 32 26 33 27 34 36 35 28 36 35 37 29 38 30 39 34 40
REMARK SMILES IDX 31 41 33 42 32 43
REMARK H PARENT 10 11 13 15 7 17 4 20 17 24 19 26 21 29
REMARK Flexibility Score: inf
ROOT
ATOM      1  C   UNL     1      30.189  30.933  19.460  1.00  0.00     0.154 C 
ENDROOT
BRANCH   1   2
ATOM      2  C   UNL     1      30.387  31.553  18.085  1.00  0.00     0.165 C 
BRANCH   2   3
ATOM      3  C   UNL     1      29.471  32.735  17.998  1.00  0.00     0.176 C 
BRANCH   3   4
ATOM      4  C   UNL     1      29.961  33.858  17.109  1.00  0.00     0.178 C 
ATOM      5  C   UNL     1      29.038  33.642  14.954  1.00  0.00     0.269 C 
ATOM      6  C   UNL     1      30.403  33.831  14.314  1.00  0.00     0.112 C 
ATOM      7  O   UNL     1      29.036  34.232  16.173  1.00  0.00    -0.332 OA
ATOM      8  C   UNL     1      31.495  33.266  15.184  1.00  0.00     0.145 C 
ATOM      9  C   UNL     1      31.361  33.713  16.626  1.00  0.00     0.142 C 
BRANCH   5  10
ATOM     10  O   UNL     1      28.664  32.299  14.933  1.00  0.00    -0.357 OA
ATOM     11  H   UNL     1      28.447  32.027  15.880  1.00  0.00     0.214 HD
ENDBRANCH   5  10
BRANCH   5  12
ATOM     12  C   UNL     1      28.091  34.394  14.085  1.00  0.00     0.364 C 
ATOM     13  O   UNL     1      26.865  34.376  14.333  1.00  0.00    -0.246 OA
BRANCH  12  14
ATOM     14  O   UNL     1      28.564  35.104  13.020  1.00  0.00    -0.477 OA
ATOM     15  H   UNL     1      29.257  35.840  13.079  1.00  0.00     0.296 HD
ENDBRANCH  12  14
ENDBRANCH   5  12
BRANCH   8  16
ATOM     16  O   UNL     1      31.556  31.883  15.076  1.00  0.00    -0.391 OA
ATOM     17  H   UNL     1      31.743  31.624  14.141  1.00  0.00     0.211 HD
ENDBRANCH   8  16
BRANCH   9  18
ATOM     18  N   UNL     1      32.116  34.955  16.809  1.00  0.00    -0.348 N 
ATOM     19  C   UNL     1      32.628  35.247  18.091  1.00  0.00     0.217 C 
ATOM     20  H   UNL     1      32.280  35.616  16.026  1.00  0.00     0.163 HD
ATOM     21  C   UNL     1      33.411  36.488  18.378  1.00  0.00     0.114 C 
ATOM     22  O   UNL     1      32.460  34.474  19.087  1.00  0.00    -0.275 OA
ENDBRANCH   9  18
ENDBRANCH   3   4
BRANCH   3  23
ATOM     23  O   UNL     1      28.154  32.393  17.839  1.00  0.00    -0.388 OA
ATOM     24  H   UNL     1      27.600  33.126  17.422  1.00  0.00     0.211 HD
ENDBRANCH   3  23
ENDBRANCH   2   3
BRANCH   2  25
ATOM     25  O   UNL     1      30.180  30.571  17.146  1.00  0.00    -0.388 OA
ATOM     26  H   UNL     1      29.898  30.976  16.311  1.00  0.00     0.211 HD
ENDBRANCH   2  25
ENDBRANCH   1   2
BRANCH   1  27
ATOM     27  N   UNL     1      29.373  29.751  19.309  1.00  0.00    -0.319 N 
ATOM     28  C   UNL     1      28.014  29.641  19.694  1.00  0.00     0.407 C 
ATOM     29  H   UNL     1      29.782  28.866  18.877  1.00  0.00     0.167 HD
ATOM     30  O   UNL     1      27.440  30.627  20.215  1.00  0.00    -0.225 OA
BRANCH  28  31
ATOM     31  O   UNL     1      27.299  28.462  19.509  1.00  0.00    -0.443 OA
BRANCH  31  32
ATOM     32  C   UNL     1      27.287  27.845  18.247  1.00  0.00     0.294 C 
BRANCH  32  33
ATOM     33  C   UNL     1      26.789  28.831  17.252  1.00  0.00     0.120 A 
ATOM     34  C   UNL     1      25.454  29.017  16.869  1.00  0.00     0.138 A 
ATOM     35  N   UNL     1      27.463  29.733  16.515  1.00  0.00    -0.132 NA
ATOM     36  N   UNL     1      25.384  29.993  15.947  1.00  0.00    -0.249 N 
ATOM     37  N   UNL     1      26.623  30.409  15.751  1.00  0.00    -0.067 NA
BRANCH  36  38
ATOM     38  C   UNL     1      24.182  30.491  15.294  1.00  0.00     0.109 C 
ATOM     39  C   UNL     1      24.536  30.971  13.904  1.00  0.00     0.027 C 
ATOM     40  C   UNL     1      23.168  29.376  15.161  1.00  0.00     0.027 C 
ATOM     41  C   UNL     1      24.088  29.986  12.841  1.00  0.00     0.002 C 
ATOM     42  C   UNL     1      22.057  29.898  14.266  1.00  0.00     0.002 C 
ATOM     43  C   UNL     1      22.587  29.875  12.846  1.00  0.00     0.000 C 
ENDBRANCH  36  38
ENDBRANCH  32  33
ENDBRANCH  31  32
ENDBRANCH  28  31
ENDBRANCH   1  27
TORSDOF 15
BEGIN_RES LYS A 131
REMARK  4 active torsions:
REMARK  status: ('A' for Active; 'I' for Inactive)
REMARK    1  A    between atoms: CA   and  CB  
REMARK    2  A    between atoms: CB   and  CG  
REMARK    3  A    between atoms: CG   and  CD  
REMARK    4  A    between atoms: CD   and  CE  
ROOT
ATOM      1  CA  LYS A 131      29.867  25.555  16.977  1.00 20.52     0.186 C 
ENDROOT
BRANCH   1   2
ATOM      2  CB  LYS A 131      28.345  25.722  17.026  1.00 20.94     0.034 C 
BRANCH   2   3
ATOM      3  CG  LYS A 131      27.599  24.435  16.711  1.00 22.96     0.005 C 
BRANCH   3   4
ATOM      4  CD  LYS A 131      26.976  23.826  17.936  1.00 24.33     0.041 C 
BRANCH   4   5
ATOM      5  CE  LYS A 131      25.609  23.251  17.581  1.00 26.91     0.338 C 
ATOM      6  NZ  LYS A 131      24.779  24.271  16.898  1.00 27.40     0.618 N 
ENDBRANCH   4   5
ENDBRANCH   3   4
ENDBRANCH   2   3
ENDBRANCH   1   2
END_RES LYS A 131
BEGIN_RES LYS A 135
REMARK  4 active torsions:
REMARK  status: ('A' for Active; 'I' for Inactive)
REMARK    5  A    between atoms: CA   and  CB  
REMARK    6  A    between atoms: CB   and  CG  
REMARK    7  A    between atoms: CG   and  CD  
REMARK    8  A    between atoms: CD   and  CE  
ROOT
ATOM      7  CA  LYS A 135      33.193  34.663   9.290  1.00 25.02     0.186 C 
ENDROOT
BRANCH   7   8
ATOM      8  CB  LYS A 135      32.060  35.360  10.034  1.00 26.63     0.034 C 
BRANCH   8   9
ATOM      9  CG  LYS A 135      30.744  34.631   9.947  1.00 29.45     0.005 C 
BRANCH   9  10
ATOM     10  CD  LYS A 135      30.317  34.465   8.496  1.00 32.00     0.041 C 
BRANCH  10  11
ATOM     11  CE  LYS A 135      28.807  34.539   8.374  1.00 34.25     0.338 C 
ATOM     12  NZ  LYS A 135      28.142  33.818   9.494  1.00 35.99     0.618 N 
ENDBRANCH  10  11
ENDBRANCH   9  10
ENDBRANCH   8   9
ENDBRANCH   7   8
END_RES LYS A 135
