REMARK VINA RESULT:    -5.145      0.000      0.000
REMARK INTER + INTRA:         -14.822
REMARK INTER:                  -9.343
REMARK INTRA:                  -5.479
REMARK UNBOUND:                -5.917
REMARK SMILES CC(=O)N[C@@H]1[C@@H](O)C[C@](O)(C(=O)O)O[C@H]1C(O)[C@H](O)CNC(=O)OCc1cn(-c2c(C)cc(C)cc2C)nn1
REMARK SMILES IDX 20 1 18 2 16 3 15 4 9 5 8 6 14 7 6 8 5 9 10 10 11 12 12 13
REMARK SMILES IDX 13 14 7 16 4 18 2 19 1 21 3 22 17 23 19 25 21 27 22 28 23 30
REMARK SMILES IDX 24 31 25 32 26 33 27 34 39 35 28 36 38 37 29 38 30 39 36 40
REMARK SMILES IDX 31 41 32 42 35 43 37 44 33 45 34 46
REMARK H PARENT 10 11 13 15 7 17 4 20 17 24 19 26 21 29
REMARK Flexibility Score: inf
ROOT
ATOM      1  C   UNL     1      26.976  30.516  20.516  1.00  0.00     0.154 C 
ENDROOT
BRANCH   1   2
ATOM      2  C   UNL     1      26.796  29.303  21.354  1.00  0.00     0.165 C 
BRANCH   2   3
ATOM      3  C   UNL     1      27.529  29.304  22.657  1.00  0.00     0.176 C 
BRANCH   3   4
ATOM      4  C   UNL     1      28.724  28.431  22.736  1.00  0.00     0.178 C 
ATOM      5  C   UNL     1      30.333  27.615  21.247  1.00  0.00     0.269 C 
ATOM      6  C   UNL     1      30.775  26.590  22.252  1.00  0.00     0.112 C 
ATOM      7  O   UNL     1      29.650  28.675  21.765  1.00  0.00    -0.332 OA
ATOM      8  C   UNL     1      29.786  26.346  23.340  1.00  0.00     0.145 C 
ATOM      9  C   UNL     1      28.442  26.970  22.921  1.00  0.00     0.142 C 
BRANCH   5  10
ATOM     10  O   UNL     1      29.573  26.963  20.280  1.00  0.00    -0.357 OA
ATOM     11  H   UNL     1      28.612  27.050  20.543  1.00  0.00     0.214 HD
ENDBRANCH   5  10
BRANCH   5  12
ATOM     12  C   UNL     1      31.565  28.140  20.600  1.00  0.00     0.364 C 
ATOM     13  O   UNL     1      32.018  29.259  20.912  1.00  0.00    -0.246 OA
BRANCH  12  14
ATOM     14  O   UNL     1      32.239  27.390  19.628  1.00  0.00    -0.477 OA
ATOM     15  H   UNL     1      32.325  27.784  18.680  1.00  0.00     0.296 HD
ENDBRANCH  12  14
ENDBRANCH   5  12
BRANCH   8  16
ATOM     16  O   UNL     1      29.644  25.021  23.702  1.00  0.00    -0.391 OA
ATOM     17  H   UNL     1      29.379  24.515  22.877  1.00  0.00     0.211 HD
ENDBRANCH   8  16
BRANCH   9  18
ATOM     18  N   UNL     1      27.557  26.723  24.029  1.00  0.00    -0.348 N 
ATOM     19  C   UNL     1      26.272  26.182  23.759  1.00  0.00     0.217 C 
ATOM     20  H   UNL     1      27.826  26.925  25.024  1.00  0.00     0.163 HD
ATOM     21  C   UNL     1      25.284  25.893  24.831  1.00  0.00     0.114 C 
ATOM     22  O   UNL     1      25.924  25.929  22.578  1.00  0.00    -0.275 OA
ENDBRANCH   9  18
ENDBRANCH   3   4
BRANCH   3  23
ATOM     23  O   UNL     1      27.893  30.618  22.942  1.00  0.00    -0.388 OA
ATOM     24  H   UNL     1      28.755  30.594  23.427  1.00  0.00     0.211 HD
ENDBRANCH   3  23
ENDBRANCH   2   3
BRANCH   2  25
ATOM     25  O   UNL     1      27.015  28.138  20.617  1.00  0.00    -0.388 OA
ATOM     26  H   UNL     1      27.978  27.929  20.530  1.00  0.00     0.211 HD
ENDBRANCH   2  25
ENDBRANCH   1   2
BRANCH   1  27
ATOM     27  N   UNL     1      28.361  30.775  20.180  1.00  0.00    -0.319 N 
ATOM     28  C   UNL     1      28.899  30.563  18.879  1.00  0.00     0.407 C 
ATOM     29  H   UNL     1      29.060  31.142  20.893  1.00  0.00     0.167 HD
ATOM     30  O   UNL     1      28.173  30.135  17.963  1.00  0.00    -0.225 OA
BRANCH  28  31
ATOM     31  O   UNL     1      30.242  30.828  18.602  1.00  0.00    -0.443 OA
BRANCH  31  32
ATOM     32  C   UNL     1      30.681  32.194  18.524  1.00  0.00     0.294 C 
BRANCH  32  33
ATOM     33  C   UNL     1      30.771  32.571  17.091  1.00  0.00     0.121 A 
ATOM     34  C   UNL     1      30.854  33.864  16.603  1.00  0.00     0.144 A 
ATOM     35  N   UNL     1      30.791  31.781  16.026  1.00  0.00    -0.131 NA
ATOM     36  N   UNL     1      30.921  33.831  15.270  1.00  0.00    -0.220 N 
ATOM     37  N   UNL     1      30.880  32.525  14.960  1.00  0.00    -0.062 NA
BRANCH  36  38
ATOM     38  C   UNL     1      31.017  34.894  14.331  1.00  0.00     0.072 A 
ATOM     39  C   UNL     1      32.250  35.386  13.963  1.00  0.00    -0.025 A 
ATOM     40  C   UNL     1      29.893  35.468  13.758  1.00  0.00    -0.025 A 
ATOM     41  C   UNL     1      33.466  34.790  14.559  1.00  0.00     0.047 C 
ATOM     42  C   UNL     1      32.340  36.434  13.038  1.00  0.00     0.009 A 
ATOM     43  C   UNL     1      29.993  36.501  12.846  1.00  0.00     0.009 A 
ATOM     44  C   UNL     1      28.555  34.916  14.173  1.00  0.00     0.047 C 
ATOM     45  C   UNL     1      31.220  37.003  12.470  1.00  0.00    -0.050 A 
ATOM     46  C   UNL     1      31.343  38.119  11.484  1.00  0.00     0.044 C 
ENDBRANCH  36  38
ENDBRANCH  32  33
ENDBRANCH  31  32
ENDBRANCH  28  31
ENDBRANCH   1  27
TORSDOF 15
BEGIN_RES LYS A 131
REMARK  4 active torsions:
REMARK  status: ('A' for Active; 'I' for Inactive)
REMARK    1  A    between atoms: CA   and  CB  
REMARK    2  A    between atoms: CB   and  CG  
REMARK    3  A    between atoms: CG   and  CD  
REMARK    4  A    between atoms: CD   and  CE  
ROOT
ATOM      1  CA  LYS A 131      29.867  25.555  16.977  1.00 20.52     0.186 C 
ENDROOT
BRANCH   1   2
ATOM      2  CB  LYS A 131      28.345  25.722  17.026  1.00 20.94     0.034 C 
BRANCH   2   3
ATOM      3  CG  LYS A 131      27.599  24.432  16.722  1.00 22.96     0.005 C 
BRANCH   3   4
ATOM      4  CD  LYS A 131      26.971  23.837  17.951  1.00 24.33     0.041 C 
BRANCH   4   5
ATOM      5  CE  LYS A 131      25.576  23.321  17.612  1.00 26.91     0.338 C 
ATOM      6  NZ  LYS A 131      24.796  24.364  16.905  1.00 27.40     0.618 N 
ENDBRANCH   4   5
ENDBRANCH   3   4
ENDBRANCH   2   3
ENDBRANCH   1   2
END_RES LYS A 131
BEGIN_RES LYS A 135
REMARK  4 active torsions:
REMARK  status: ('A' for Active; 'I' for Inactive)
REMARK    5  A    between atoms: CA   and  CB  
REMARK    6  A    between atoms: CB   and  CG  
REMARK    7  A    between atoms: CG   and  CD  
REMARK    8  A    between atoms: CD   and  CE  
ROOT
ATOM      7  CA  LYS A 135      33.193  34.663   9.290  1.00 25.02     0.186 C 
ENDROOT
BRANCH   7   8
ATOM      8  CB  LYS A 135      32.060  35.360  10.034  1.00 26.63     0.034 C 
BRANCH   8   9
ATOM      9  CG  LYS A 135      30.708  34.739   9.792  1.00 29.45     0.005 C 
BRANCH   9  10
ATOM     10  CD  LYS A 135      30.401  34.688   8.303  1.00 32.00     0.041 C 
BRANCH  10  11
ATOM     11  CE  LYS A 135      29.161  35.503   7.987  1.00 34.25     0.338 C 
ATOM     12  NZ  LYS A 135      28.891  35.523   6.523  1.00 35.99     0.618 N 
ENDBRANCH  10  11
ENDBRANCH   9  10
ENDBRANCH   8   9
ENDBRANCH   7   8
END_RES LYS A 135
