REMARK VINA RESULT:    -5.328      1.692      2.606
REMARK INTER + INTRA:         -15.827
REMARK INTER:                 -10.016
REMARK INTRA:                  -5.811
REMARK UNBOUND:                -5.671
REMARK SMILES CCOC(=O)c1cccc(-n2cc(COC(=O)NC[C@@H](O)C(O)[C@@H]3O[C@@](O)(C(=O)O)C[C@H](O)[C@H]3NC(C)=O)nn2)c1
REMARK SMILES IDX 18 1 16 2 17 3 19 5 20 6 22 7 24 8 26 9 31 10 25 11 32 12
REMARK SMILES IDX 34 13 27 14 28 16 29 17 30 18 33 20 35 22 36 23 37 25 38 26
REMARK SMILES IDX 23 27 21 29 15 31 14 32 13 33 12 34 39 35 11 36 40 37 10 38
REMARK SMILES IDX 41 39 9 40 6 41 8 42 7 43 4 44 5 45 3 46 2 47 1 48
REMARK H PARENT 18 4 27 15 30 19 33 21 35 24 23 28 21 30
REMARK Flexibility Score: inf
ROOT
ATOM      1  N   UNL     1      25.718  27.813  18.447  1.00  0.00    -0.319 N 
ATOM      2  C   UNL     1      24.729  28.683  17.913  1.00  0.00     0.407 C 
ATOM      3  O   UNL     1      23.960  29.275  18.711  1.00  0.00    -0.225 OA
ATOM      4  H   UNL     1      26.343  27.334  17.769  1.00  0.00     0.167 HD
ENDROOT
BRANCH   1   5
ATOM      5  C   UNL     1      25.848  27.599  19.873  1.00  0.00     0.154 C 
BRANCH   5   6
ATOM      6  C   UNL     1      27.267  27.466  20.315  1.00  0.00     0.165 C 
BRANCH   6   7
ATOM      7  C   UNL     1      27.997  28.768  20.394  1.00  0.00     0.176 C 
BRANCH   7   8
ATOM      8  C   UNL     1      29.379  28.573  21.071  1.00  0.00     0.178 C 
ATOM      9  C   UNL     1      31.470  27.804  20.676  1.00  0.00     0.269 C 
ATOM     10  C   UNL     1      31.367  26.693  21.696  1.00  0.00     0.112 C 
ATOM     11  O   UNL     1      30.240  28.042  20.147  1.00  0.00    -0.332 OA
ATOM     12  C   UNL     1      30.386  27.000  22.787  1.00  0.00     0.145 C 
ATOM     13  C   UNL     1      29.205  27.808  22.330  1.00  0.00     0.142 C 
BRANCH   9  14
ATOM     14  O   UNL     1      32.262  27.261  19.626  1.00  0.00    -0.357 OA
ATOM     15  H   UNL     1      31.769  26.612  19.093  1.00  0.00     0.214 HD
ENDBRANCH   9  14
BRANCH   9  16
ATOM     16  C   UNL     1      32.190  28.960  21.227  1.00  0.00     0.364 C 
ATOM     17  O   UNL     1      31.866  30.170  20.978  1.00  0.00    -0.246 OA
BRANCH  16  18
ATOM     18  O   UNL     1      33.292  28.717  22.070  1.00  0.00    -0.477 OA
ATOM     19  H   UNL     1      33.980  29.473  22.170  1.00  0.00     0.296 HD
ENDBRANCH  16  18
ENDBRANCH   9  16
BRANCH  12  20
ATOM     20  O   UNL     1      29.990  25.803  23.381  1.00  0.00    -0.391 OA
ATOM     21  H   UNL     1      29.055  25.560  23.164  1.00  0.00     0.211 HD
ENDBRANCH  12  20
BRANCH  13  22
ATOM     22  N   UNL     1      28.728  28.695  23.376  1.00  0.00    -0.348 N 
ATOM     23  C   UNL     1      27.743  28.289  24.315  1.00  0.00     0.217 C 
ATOM     24  H   UNL     1      29.141  29.673  23.425  1.00  0.00     0.163 HD
ATOM     25  C   UNL     1      27.304  29.253  25.356  1.00  0.00     0.114 C 
ATOM     26  O   UNL     1      27.237  27.116  24.274  1.00  0.00    -0.275 OA
ENDBRANCH  13  22
ENDBRANCH   7   8
BRANCH   7  27
ATOM     27  O   UNL     1      28.207  29.395  19.192  1.00  0.00    -0.388 OA
ATOM     28  H   UNL     1      28.311  28.806  18.423  1.00  0.00     0.211 HD
ENDBRANCH   7  27
ENDBRANCH   6   7
BRANCH   6  29
ATOM     29  O   UNL     1      27.936  26.504  19.563  1.00  0.00    -0.388 OA
ATOM     30  H   UNL     1      28.887  26.790  19.500  1.00  0.00     0.211 HD
ENDBRANCH   6  29
ENDBRANCH   5   6
ENDBRANCH   1   5
BRANCH   2  31
ATOM     31  O   UNL     1      24.563  28.921  16.560  1.00  0.00    -0.443 OA
BRANCH  31  32
ATOM     32  C   UNL     1      24.901  30.161  15.968  1.00  0.00     0.294 C 
BRANCH  32  33
ATOM     33  C   UNL     1      26.362  30.364  15.989  1.00  0.00     0.121 A 
ATOM     34  C   UNL     1      27.078  31.533  15.797  1.00  0.00     0.144 A 
ATOM     35  N   UNL     1      27.306  29.421  16.202  1.00  0.00    -0.131 NA
ATOM     36  N   UNL     1      28.397  31.270  15.898  1.00  0.00    -0.220 N 
ATOM     37  N   UNL     1      28.494  29.961  16.148  1.00  0.00    -0.062 NA
BRANCH  36  38
ATOM     38  C   UNL     1      29.493  32.152  15.775  1.00  0.00     0.067 A 
ATOM     39  C   UNL     1      29.589  33.041  14.721  1.00  0.00     0.044 A 
ATOM     40  C   UNL     1      30.510  32.161  16.704  1.00  0.00     0.028 A 
ATOM     41  C   UNL     1      30.642  33.921  14.564  1.00  0.00     0.062 A 
ATOM     42  C   UNL     1      31.585  33.036  16.573  1.00  0.00     0.003 A 
ATOM     43  C   UNL     1      31.641  33.902  15.511  1.00  0.00     0.016 A 
BRANCH  41  44
ATOM     44  C   UNL     1      30.717  34.849  13.442  1.00  0.00     0.338 C 
ATOM     45  O   UNL     1      30.522  34.424  12.277  1.00  0.00    -0.246 OA
BRANCH  44  46
ATOM     46  O   UNL     1      30.996  36.196  13.605  1.00  0.00    -0.462 OA
BRANCH  46  47
ATOM     47  C   UNL     1      30.036  37.208  13.376  1.00  0.00     0.230 C 
ATOM     48  C   UNL     1      30.433  37.979  12.151  1.00  0.00     0.049 C 
ENDBRANCH  46  47
ENDBRANCH  44  46
ENDBRANCH  41  44
ENDBRANCH  36  38
ENDBRANCH  32  33
ENDBRANCH  31  32
ENDBRANCH   2  31
TORSDOF 18
BEGIN_RES LYS A 131
REMARK  4 active torsions:
REMARK  status: ('A' for Active; 'I' for Inactive)
REMARK    1  A    between atoms: CA   and  CB  
REMARK    2  A    between atoms: CB   and  CG  
REMARK    3  A    between atoms: CG   and  CD  
REMARK    4  A    between atoms: CD   and  CE  
ROOT
ATOM      1  CA  LYS A 131      29.867  25.555  16.977  1.00 20.52     0.186 C 
ENDROOT
BRANCH   1   2
ATOM      2  CB  LYS A 131      28.345  25.722  17.026  1.00 20.94     0.034 C 
BRANCH   2   3
ATOM      3  CG  LYS A 131      27.601  24.403  16.885  1.00 22.96     0.005 C 
BRANCH   3   4
ATOM      4  CD  LYS A 131      26.150  24.528  17.260  1.00 24.33     0.041 C 
BRANCH   4   5
ATOM      5  CE  LYS A 131      25.647  23.193  17.798  1.00 26.91     0.338 C 
ATOM      6  NZ  LYS A 131      25.522  23.242  19.274  1.00 27.40     0.618 N 
ENDBRANCH   4   5
ENDBRANCH   3   4
ENDBRANCH   2   3
ENDBRANCH   1   2
END_RES LYS A 131
BEGIN_RES LYS A 135
REMARK  4 active torsions:
REMARK  status: ('A' for Active; 'I' for Inactive)
REMARK    5  A    between atoms: CA   and  CB  
REMARK    6  A    between atoms: CB   and  CG  
REMARK    7  A    between atoms: CG   and  CD  
REMARK    8  A    between atoms: CD   and  CE  
ROOT
ATOM      7  CA  LYS A 135      33.193  34.663   9.290  1.00 25.02     0.186 C 
ENDROOT
BRANCH   7   8
ATOM      8  CB  LYS A 135      32.060  35.360  10.034  1.00 26.63     0.034 C 
BRANCH   8   9
ATOM      9  CG  LYS A 135      30.879  35.693   9.159  1.00 29.45     0.005 C 
BRANCH   9  10
ATOM     10  CD  LYS A 135      30.382  34.452   8.433  1.00 32.00     0.041 C 
BRANCH  10  11
ATOM     11  CE  LYS A 135      28.867  34.441   8.375  1.00 34.25     0.338 C 
ATOM     12  NZ  LYS A 135      28.288  33.784   9.580  1.00 35.99     0.618 N 
ENDBRANCH  10  11
ENDBRANCH   9  10
ENDBRANCH   8   9
ENDBRANCH   7   8
END_RES LYS A 135
