REMARK VINA RESULT:    -4.644      1.984      2.841
REMARK INTER + INTRA:         -16.703
REMARK INTER:                 -11.152
REMARK INTRA:                  -5.551
REMARK UNBOUND:                -7.171
REMARK SMILES CCOCCc1c(-c2ccccc2)nc(N)nc1-n1cc(COC(=O)NC[C@@H](O)C(O)[C@@H]2O[C@@](O)(C(=O)O)C[C@H](O)[C@H]2NC(C)=O)nn1
REMARK SMILES IDX 23 1 24 2 26 3 25 5 27 6 28 7 30 8 32 9 34 10 39 11 33 12
REMARK SMILES IDX 40 13 42 14 35 15 36 17 37 18 38 19 41 21 43 23 44 24 45 26
REMARK SMILES IDX 46 27 31 28 29 30 22 32 21 33 20 34 47 35 19 36 48 37 18 38
REMARK SMILES IDX 17 39 6 40 15 41 7 42 14 43 5 44 4 45 3 46 2 47 1 48 16 49
REMARK SMILES IDX 8 52 9 53 13 54 10 55 12 56 11 57
REMARK H PARENT 26 4 35 16 38 20 41 22 43 25 31 29 29 31 16 50 16 51
REMARK Flexibility Score: inf
ROOT
ATOM      1  O   UNL     1      28.964  39.190  10.777  1.00  0.00    -0.443 OA
ENDROOT
BRANCH   1   2
ATOM      2  C   UNL     1      28.484  39.027   9.496  1.00  0.00     0.407 C 
ATOM      3  N   UNL     1      27.138  38.568   9.244  1.00  0.00    -0.319 N 
ATOM      4  H   UNL     1      26.582  38.375  10.100  1.00  0.00     0.167 HD
ATOM      5  O   UNL     1      29.252  39.288   8.537  1.00  0.00    -0.225 OA
BRANCH   3   6
ATOM      6  C   UNL     1      26.687  38.415   7.881  1.00  0.00     0.154 C 
BRANCH   6   7
ATOM      7  C   UNL     1      25.168  38.515   7.882  1.00  0.00     0.165 C 
BRANCH   7   8
ATOM      8  C   UNL     1      24.645  37.098   7.896  1.00  0.00     0.176 C 
BRANCH   8   9
ATOM      9  C   UNL     1      23.889  36.716   9.131  1.00  0.00     0.178 C 
ATOM     10  C   UNL     1      21.802  36.553   8.079  1.00  0.00     0.269 C 
ATOM     11  C   UNL     1      21.525  37.958   8.589  1.00  0.00     0.112 C 
ATOM     12  O   UNL     1      22.821  35.939   8.749  1.00  0.00    -0.332 OA
ATOM     13  C   UNL     1      22.014  38.046  10.020  1.00  0.00     0.145 C 
ATOM     14  C   UNL     1      23.538  37.817  10.063  1.00  0.00     0.142 C 
BRANCH  10  15
ATOM     15  O   UNL     1      22.051  36.691   6.708  1.00  0.00    -0.357 OA
ATOM     16  H   UNL     1      22.396  35.863   6.307  1.00  0.00     0.214 HD
ENDBRANCH  10  15
BRANCH  10  17
ATOM     17  C   UNL     1      20.601  35.705   8.223  1.00  0.00     0.364 C 
ATOM     18  O   UNL     1      19.691  36.058   8.995  1.00  0.00    -0.246 OA
BRANCH  17  19
ATOM     19  O   UNL     1      20.488  34.537   7.514  1.00  0.00    -0.477 OA
ATOM     20  H   UNL     1      19.823  34.376   6.768  1.00  0.00     0.296 HD
ENDBRANCH  17  19
ENDBRANCH  10  17
BRANCH  13  21
ATOM     21  O   UNL     1      21.674  39.251  10.589  1.00  0.00    -0.391 OA
ATOM     22  H   UNL     1      21.685  39.978   9.929  1.00  0.00     0.211 HD
ENDBRANCH  13  21
BRANCH  14  23
ATOM     23  N   UNL     1      23.815  37.477  11.465  1.00  0.00    -0.348 N 
ATOM     24  C   UNL     1      24.780  38.220  12.187  1.00  0.00     0.217 C 
ATOM     25  H   UNL     1      23.315  36.696  11.941  1.00  0.00     0.163 HD
ATOM     26  C   UNL     1      25.113  37.929  13.615  1.00  0.00     0.114 C 
ATOM     27  O   UNL     1      25.366  39.158  11.578  1.00  0.00    -0.275 OA
ENDBRANCH  14  23
ENDBRANCH   8   9
BRANCH   8  28
ATOM     28  O   UNL     1      25.847  36.319   7.963  1.00  0.00    -0.388 OA
ATOM     29  H   UNL     1      26.514  36.686   7.349  1.00  0.00     0.211 HD
ENDBRANCH   8  28
ENDBRANCH   7   8
BRANCH   7  30
ATOM     30  O   UNL     1      24.826  39.236   6.749  1.00  0.00    -0.388 OA
ATOM     31  H   UNL     1      25.458  39.090   6.014  1.00  0.00     0.211 HD
ENDBRANCH   7  30
ENDBRANCH   6   7
ENDBRANCH   3   6
ENDBRANCH   1   2
BRANCH   1  32
ATOM     32  C   UNL     1      30.250  39.657  11.119  1.00  0.00     0.294 C 
BRANCH  32  33
ATOM     33  C   UNL     1      31.022  38.560  11.785  1.00  0.00     0.121 A 
ATOM     34  C   UNL     1      31.015  38.203  13.110  1.00  0.00     0.146 A 
ATOM     35  N   UNL     1      31.886  37.709  11.191  1.00  0.00    -0.131 NA
ATOM     36  N   UNL     1      31.864  37.150  13.310  1.00  0.00    -0.202 N 
ATOM     37  N   UNL     1      32.365  36.891  12.109  1.00  0.00    -0.060 NA
BRANCH  36  38
ATOM     38  C   UNL     1      32.145  36.509  14.542  1.00  0.00     0.164 A 
ATOM     39  N   UNL     1      33.063  36.997  15.387  1.00  0.00    -0.193 NA
ATOM     40  C   UNL     1      31.485  35.327  14.898  1.00  0.00     0.026 A 
ATOM     41  C   UNL     1      33.353  36.372  16.556  1.00  0.00     0.222 A 
ATOM     42  C   UNL     1      31.777  34.694  16.073  1.00  0.00     0.081 A 
ATOM     43  N   UNL     1      32.733  35.241  16.909  1.00  0.00    -0.213 NA
BRANCH  40  44
ATOM     44  C   UNL     1      30.494  34.766  13.958  1.00  0.00     0.070 C 
BRANCH  44  45
ATOM     45  C   UNL     1      29.088  35.263  14.144  1.00  0.00     0.165 C 
BRANCH  45  46
ATOM     46  O   UNL     1      28.154  34.429  13.594  1.00  0.00    -0.381 OA
BRANCH  46  47
ATOM     47  C   UNL     1      27.238  35.060  12.785  1.00  0.00     0.156 C 
ATOM     48  C   UNL     1      27.898  36.063  11.862  1.00  0.00     0.035 C 
ENDBRANCH  46  47
ENDBRANCH  45  46
ENDBRANCH  44  45
ENDBRANCH  40  44
BRANCH  41  49
ATOM     49  N   UNL     1      34.329  36.923  17.418  1.00  0.00    -0.368 N 
ATOM     50  H   UNL     1      34.439  37.950  17.492  1.00  0.00     0.159 HD
ATOM     51  H   UNL     1      34.954  36.327  17.992  1.00  0.00     0.159 HD
ENDBRANCH  41  49
BRANCH  42  52
ATOM     52  C   UNL     1      31.213  33.411  16.444  1.00  0.00     0.001 A 
ATOM     53  C   UNL     1      31.087  32.299  15.695  1.00  0.00     0.010 A 
ATOM     54  C   UNL     1      30.758  33.322  17.779  1.00  0.00     0.010 A 
ATOM     55  C   UNL     1      30.532  31.121  16.230  1.00  0.00     0.001 A 
ATOM     56  C   UNL     1      30.216  32.185  18.310  1.00  0.00     0.001 A 
ATOM     57  C   UNL     1      30.093  31.048  17.529  1.00  0.00     0.000 A 
ENDBRANCH  42  52
ENDBRANCH  36  38
ENDBRANCH  32  33
ENDBRANCH   1  32
TORSDOF 21
BEGIN_RES LYS A 131
REMARK  4 active torsions:
REMARK  status: ('A' for Active; 'I' for Inactive)
REMARK    1  A    between atoms: CA   and  CB  
REMARK    2  A    between atoms: CB   and  CG  
REMARK    3  A    between atoms: CG   and  CD  
REMARK    4  A    between atoms: CD   and  CE  
ROOT
ATOM      1  CA  LYS A 131      29.867  25.555  16.977  1.00 20.52     0.186 C 
ENDROOT
BRANCH   1   2
ATOM      2  CB  LYS A 131      28.345  25.722  17.026  1.00 20.94     0.034 C 
BRANCH   2   3
ATOM      3  CG  LYS A 131      27.601  24.402  16.894  1.00 22.96     0.005 C 
BRANCH   3   4
ATOM      4  CD  LYS A 131      26.141  24.538  17.227  1.00 24.33     0.041 C 
BRANCH   4   5
ATOM      5  CE  LYS A 131      25.898  24.061  18.655  1.00 26.91     0.338 C 
ATOM      6  NZ  LYS A 131      25.707  25.216  19.563  1.00 27.40     0.618 N 
ENDBRANCH   4   5
ENDBRANCH   3   4
ENDBRANCH   2   3
ENDBRANCH   1   2
END_RES LYS A 131
BEGIN_RES LYS A 135
REMARK  4 active torsions:
REMARK  status: ('A' for Active; 'I' for Inactive)
REMARK    5  A    between atoms: CA   and  CB  
REMARK    6  A    between atoms: CB   and  CG  
REMARK    7  A    between atoms: CG   and  CD  
REMARK    8  A    between atoms: CD   and  CE  
ROOT
ATOM      7  CA  LYS A 135      33.193  34.663   9.290  1.00 25.02     0.186 C 
ENDROOT
BRANCH   7   8
ATOM      8  CB  LYS A 135      32.060  35.360  10.034  1.00 26.63     0.034 C 
BRANCH   8   9
ATOM      9  CG  LYS A 135      30.787  34.555  10.084  1.00 29.45     0.005 C 
BRANCH   9  10
ATOM     10  CD  LYS A 135      30.159  34.459   8.702  1.00 32.00     0.041 C 
BRANCH  10  11
ATOM     11  CE  LYS A 135      29.749  35.833   8.207  1.00 34.25     0.338 C 
ATOM     12  NZ  LYS A 135      29.012  35.739   6.916  1.00 35.99     0.618 N 
ENDBRANCH  10  11
ENDBRANCH   9  10
ENDBRANCH   8   9
ENDBRANCH   7   8
END_RES LYS A 135
