REMARK VINA RESULT:    -5.202      5.027      9.290
REMARK INTER + INTRA:         -14.016
REMARK INTER:                  -9.839
REMARK INTRA:                  -4.178
REMARK UNBOUND:                -5.012
REMARK SMILES CC(=O)N[C@@H]1[C@@H](O)C[C@](O)(C(=O)O)O[C@H]1C(O)[C@H](O)CNC(=O)OCc1cn(-c2ccc(C)cc2)nn1
REMARK SMILES IDX 20 1 18 2 16 3 15 4 9 5 8 6 14 7 6 8 5 9 10 10 11 12 12 13
REMARK SMILES IDX 13 14 7 16 4 18 2 19 1 21 3 22 17 23 19 25 21 27 22 28 23 30
REMARK SMILES IDX 24 31 25 32 26 33 27 34 37 35 28 36 36 37 29 38 30 39 35 40
REMARK SMILES IDX 31 41 34 42 32 43 33 44
REMARK H PARENT 10 11 13 15 7 17 4 20 17 24 19 26 21 29
REMARK Flexibility Score: inf
ROOT
ATOM      1  C   UNL     1      26.638  35.086   8.351  1.00  0.00     0.154 C 
ENDROOT
BRANCH   1   2
ATOM      2  C   UNL     1      27.548  35.958   7.590  1.00  0.00     0.165 C 
BRANCH   2   3
ATOM      3  C   UNL     1      26.986  37.074   6.769  1.00  0.00     0.176 C 
BRANCH   3   4
ATOM      4  C   UNL     1      27.362  38.464   7.172  1.00  0.00     0.178 C 
ATOM      5  C   UNL     1      27.502  39.535   5.093  1.00  0.00     0.269 C 
ATOM      6  C   UNL     1      28.947  39.952   5.304  1.00  0.00     0.112 C 
ATOM      7  O   UNL     1      26.803  39.355   6.244  1.00  0.00    -0.332 OA
ATOM      8  C   UNL     1      29.596  38.997   6.294  1.00  0.00     0.145 C 
ATOM      9  C   UNL     1      28.757  38.794   7.513  1.00  0.00     0.142 C 
BRANCH   5  10
ATOM     10  O   UNL     1      27.519  38.458   4.240  1.00  0.00    -0.357 OA
ATOM     11  H   UNL     1      27.868  38.655   3.333  1.00  0.00     0.214 HD
ENDBRANCH   5  10
BRANCH   5  12
ATOM     12  C   UNL     1      26.866  40.684   4.375  1.00  0.00     0.364 C 
ATOM     13  O   UNL     1      27.519  41.422   3.579  1.00  0.00    -0.246 OA
BRANCH  12  14
ATOM     14  O   UNL     1      25.529  40.966   4.572  1.00  0.00    -0.477 OA
ATOM     15  H   UNL     1      25.134  41.815   4.161  1.00  0.00     0.296 HD
ENDBRANCH  12  14
ENDBRANCH   5  12
BRANCH   8  16
ATOM     16  O   UNL     1      29.653  37.781   5.611  1.00  0.00    -0.391 OA
ATOM     17  H   UNL     1      30.209  37.846   4.792  1.00  0.00     0.211 HD
ENDBRANCH   8  16
BRANCH   9  18
ATOM     18  N   UNL     1      28.710  39.949   8.390  1.00  0.00    -0.348 N 
ATOM     19  C   UNL     1      29.266  39.966   9.680  1.00  0.00     0.217 C 
ATOM     20  H   UNL     1      28.231  40.786   7.999  1.00  0.00     0.163 HD
ATOM     21  C   UNL     1      29.234  41.124  10.593  1.00  0.00     0.114 C 
ATOM     22  O   UNL     1      29.817  38.913  10.052  1.00  0.00    -0.275 OA
ENDBRANCH   9  18
ENDBRANCH   3   4
BRANCH   3  23
ATOM     23  O   UNL     1      25.561  37.082   7.136  1.00  0.00    -0.388 OA
ATOM     24  H   UNL     1      25.135  36.357   6.607  1.00  0.00     0.211 HD
ENDBRANCH   3  23
ENDBRANCH   2   3
BRANCH   2  25
ATOM     25  O   UNL     1      28.553  35.244   6.954  1.00  0.00    -0.388 OA
ATOM     26  H   UNL     1      29.349  35.109   7.554  1.00  0.00     0.211 HD
ENDBRANCH   2  25
ENDBRANCH   1   2
BRANCH   1  27
ATOM     27  N   UNL     1      26.541  35.392   9.781  1.00  0.00    -0.319 N 
ATOM     28  C   UNL     1      25.358  35.912  10.353  1.00  0.00     0.407 C 
ATOM     29  H   UNL     1      27.349  35.247  10.441  1.00  0.00     0.167 HD
ATOM     30  O   UNL     1      24.371  36.121   9.640  1.00  0.00    -0.225 OA
BRANCH  28  31
ATOM     31  O   UNL     1      25.244  36.210  11.712  1.00  0.00    -0.443 OA
BRANCH  31  32
ATOM     32  C   UNL     1      26.081  35.555  12.635  1.00  0.00     0.294 C 
BRANCH  32  33
ATOM     33  C   UNL     1      25.529  34.284  13.114  1.00  0.00     0.121 A 
ATOM     34  C   UNL     1      24.490  33.620  12.497  1.00  0.00     0.144 A 
ATOM     35  N   UNL     1      25.855  33.511  14.170  1.00  0.00    -0.131 NA
ATOM     36  N   UNL     1      24.208  32.485  13.170  1.00  0.00    -0.220 N 
ATOM     37  N   UNL     1      25.054  32.452  14.177  1.00  0.00    -0.062 NA
BRANCH  36  38
ATOM     38  C   UNL     1      23.216  31.497  12.895  1.00  0.00     0.066 A 
ATOM     39  C   UNL     1      21.895  31.848  12.705  1.00  0.00     0.029 A 
ATOM     40  C   UNL     1      23.524  30.154  12.808  1.00  0.00     0.029 A 
ATOM     41  C   UNL     1      20.924  30.902  12.438  1.00  0.00     0.005 A 
ATOM     42  C   UNL     1      22.559  29.205  12.542  1.00  0.00     0.005 A 
ATOM     43  C   UNL     1      21.242  29.563  12.352  1.00  0.00    -0.051 A 
ATOM     44  C   UNL     1      20.233  28.509  12.069  1.00  0.00     0.044 C 
ENDBRANCH  36  38
ENDBRANCH  32  33
ENDBRANCH  31  32
ENDBRANCH  28  31
ENDBRANCH   1  27
TORSDOF 15
BEGIN_RES LYS A 131
REMARK  4 active torsions:
REMARK  status: ('A' for Active; 'I' for Inactive)
REMARK    1  A    between atoms: CA   and  CB  
REMARK    2  A    between atoms: CB   and  CG  
REMARK    3  A    between atoms: CG   and  CD  
REMARK    4  A    between atoms: CD   and  CE  
ROOT
ATOM      1  CA  LYS A 131      29.867  25.555  16.977  1.00 20.52     0.186 C 
ENDROOT
BRANCH   1   2
ATOM      2  CB  LYS A 131      28.345  25.722  17.026  1.00 20.94     0.034 C 
BRANCH   2   3
ATOM      3  CG  LYS A 131      27.602  24.400  16.909  1.00 22.96     0.005 C 
BRANCH   3   4
ATOM      4  CD  LYS A 131      26.171  24.514  17.358  1.00 24.33     0.041 C 
BRANCH   4   5
ATOM      5  CE  LYS A 131      25.778  23.257  18.128  1.00 26.91     0.338 C 
ATOM      6  NZ  LYS A 131      25.489  23.585  19.544  1.00 27.40     0.618 N 
ENDBRANCH   4   5
ENDBRANCH   3   4
ENDBRANCH   2   3
ENDBRANCH   1   2
END_RES LYS A 131
BEGIN_RES LYS A 135
REMARK  4 active torsions:
REMARK  status: ('A' for Active; 'I' for Inactive)
REMARK    5  A    between atoms: CA   and  CB  
REMARK    6  A    between atoms: CB   and  CG  
REMARK    7  A    between atoms: CG   and  CD  
REMARK    8  A    between atoms: CD   and  CE  
ROOT
ATOM      7  CA  LYS A 135      33.193  34.663   9.290  1.00 25.02     0.186 C 
ENDROOT
BRANCH   7   8
ATOM      8  CB  LYS A 135      32.060  35.360  10.034  1.00 26.63     0.034 C 
BRANCH   8   9
ATOM      9  CG  LYS A 135      30.691  34.852   9.660  1.00 29.45     0.005 C 
BRANCH   9  10
ATOM     10  CD  LYS A 135      29.760  34.884  10.862  1.00 32.00     0.041 C 
BRANCH  10  11
ATOM     11  CE  LYS A 135      30.557  34.912  12.152  1.00 34.25     0.338 C 
ATOM     12  NZ  LYS A 135      29.770  34.340  13.281  1.00 35.99     0.618 N 
ENDBRANCH  10  11
ENDBRANCH   9  10
ENDBRANCH   8   9
ENDBRANCH   7   8
END_RES LYS A 135
