REMARK VINA RESULT:    -4.741      2.183      6.168
REMARK INTER + INTRA:         -14.513
REMARK INTER:                  -8.473
REMARK INTRA:                  -6.040
REMARK UNBOUND:                -5.477
REMARK SMILES CC(=O)N[C@@H]1[C@@H](O)C[C@](O)(C(=O)O)O[C@H]1C(O)[C@H](O)CNC(=O)OCc1cn(CC(O)CO)nn1
REMARK SMILES IDX 21 1 22 2 23 3 20 5 18 6 16 7 15 8 9 9 8 10 14 11 6 12 5 13
REMARK SMILES IDX 10 14 11 16 12 17 13 18 7 20 4 22 2 23 1 25 3 26 17 27 19 29
REMARK SMILES IDX 24 31 25 32 26 33 27 34 35 35 28 36 34 37 29 38 30 39 31 40
REMARK SMILES IDX 32 42 33 43
REMARK H PARENT 21 4 10 15 13 19 7 21 4 24 17 28 19 30 31 41 33 44
REMARK Flexibility Score: inf
ROOT
ATOM      1  N   UNL     1      28.813  29.738  16.040  1.00  0.00    -0.319 N 
ATOM      2  C   UNL     1      27.612  29.666  16.790  1.00  0.00     0.407 C 
ATOM      3  O   UNL     1      26.910  30.674  16.984  1.00  0.00    -0.225 OA
ATOM      4  H   UNL     1      29.343  28.821  15.933  1.00  0.00     0.167 HD
ENDROOT
BRANCH   1   5
ATOM      5  C   UNL     1      29.270  30.961  15.475  1.00  0.00     0.154 C 
BRANCH   5   6
ATOM      6  C   UNL     1      30.580  31.447  16.055  1.00  0.00     0.165 C 
BRANCH   6   7
ATOM      7  C   UNL     1      30.224  32.509  17.088  1.00  0.00     0.176 C 
BRANCH   7   8
ATOM      8  C   UNL     1      31.215  33.676  17.008  1.00  0.00     0.178 C 
ATOM      9  C   UNL     1      31.313  35.015  18.904  1.00  0.00     0.269 C 
ATOM     10  C   UNL     1      31.874  36.173  18.102  1.00  0.00     0.112 C 
ATOM     11  O   UNL     1      31.711  33.865  18.267  1.00  0.00    -0.332 OA
ATOM     12  C   UNL     1      31.183  36.181  16.783  1.00  0.00     0.145 C 
ATOM     13  C   UNL     1      30.555  34.868  16.392  1.00  0.00     0.142 C 
BRANCH   9  14
ATOM     14  O   UNL     1      29.931  35.186  18.940  1.00  0.00    -0.357 OA
ATOM     15  H   UNL     1      29.647  36.060  18.588  1.00  0.00     0.214 HD
ENDBRANCH   9  14
BRANCH   9  16
ATOM     16  C   UNL     1      31.852  35.003  20.288  1.00  0.00     0.364 C 
ATOM     17  O   UNL     1      32.546  35.979  20.671  1.00  0.00    -0.246 OA
BRANCH  16  18
ATOM     18  O   UNL     1      31.590  33.941  21.120  1.00  0.00    -0.477 OA
ATOM     19  H   UNL     1      31.226  34.093  22.055  1.00  0.00     0.296 HD
ENDBRANCH  16  18
ENDBRANCH   9  16
BRANCH  12  20
ATOM     20  O   UNL     1      30.155  37.129  16.843  1.00  0.00    -0.391 OA
ATOM     21  H   UNL     1      29.596  36.955  17.623  1.00  0.00     0.211 HD
ENDBRANCH  12  20
BRANCH  13  22
ATOM     22  N   UNL     1      30.623  34.797  14.948  1.00  0.00    -0.348 N 
ATOM     23  C   UNL     1      29.421  34.793  14.195  1.00  0.00     0.217 C 
ATOM     24  H   UNL     1      31.529  34.748  14.426  1.00  0.00     0.163 HD
ATOM     25  C   UNL     1      29.432  34.720  12.692  1.00  0.00     0.114 C 
ATOM     26  O   UNL     1      28.281  34.849  14.723  1.00  0.00    -0.275 OA
ENDBRANCH  13  22
ENDBRANCH   7   8
BRANCH   7  27
ATOM     27  O   UNL     1      28.922  32.906  16.903  1.00  0.00    -0.388 OA
ATOM     28  H   UNL     1      28.418  32.928  17.764  1.00  0.00     0.211 HD
ENDBRANCH   7  27
ENDBRANCH   6   7
BRANCH   6  29
ATOM     29  O   UNL     1      31.390  31.979  15.052  1.00  0.00    -0.388 OA
ATOM     30  H   UNL     1      31.574  31.261  14.415  1.00  0.00     0.211 HD
ENDBRANCH   6  29
ENDBRANCH   5   6
ENDBRANCH   1   5
BRANCH   2  31
ATOM     31  O   UNL     1      27.175  28.451  17.339  1.00  0.00    -0.443 OA
BRANCH  31  32
ATOM     32  C   UNL     1      26.802  28.430  18.687  1.00  0.00     0.294 C 
BRANCH  32  33
ATOM     33  C   UNL     1      27.980  28.393  19.590  1.00  0.00     0.120 A 
ATOM     34  C   UNL     1      28.440  27.320  20.296  1.00  0.00     0.138 A 
ATOM     35  N   UNL     1      28.796  29.412  19.870  1.00  0.00    -0.132 NA
ATOM     36  N   UNL     1      29.534  27.742  20.983  1.00  0.00    -0.249 N 
ATOM     37  N   UNL     1      29.739  29.024  20.713  1.00  0.00    -0.067 NA
BRANCH  36  38
ATOM     38  C   UNL     1      30.335  26.900  21.869  1.00  0.00     0.180 C 
BRANCH  38  39
ATOM     39  C   UNL     1      31.761  26.990  21.361  1.00  0.00     0.161 C 
BRANCH  39  40
ATOM     40  O   UNL     1      31.748  27.202  19.988  1.00  0.00    -0.389 OA
ATOM     41  H   UNL     1      31.264  28.053  19.815  1.00  0.00     0.211 HD
ENDBRANCH  39  40
BRANCH  39  42
ATOM     42  C   UNL     1      32.494  28.144  22.053  1.00  0.00     0.189 C 
BRANCH  42  43
ATOM     43  O   UNL     1      32.896  29.075  21.093  1.00  0.00    -0.394 OA
ATOM     44  H   UNL     1      32.749  30.001  21.451  1.00  0.00     0.210 HD
ENDBRANCH  42  43
ENDBRANCH  39  42
ENDBRANCH  38  39
ENDBRANCH  36  38
ENDBRANCH  32  33
ENDBRANCH  31  32
ENDBRANCH   2  31
TORSDOF 19
BEGIN_RES LYS A 131
REMARK  4 active torsions:
REMARK  status: ('A' for Active; 'I' for Inactive)
REMARK    1  A    between atoms: CA   and  CB  
REMARK    2  A    between atoms: CB   and  CG  
REMARK    3  A    between atoms: CG   and  CD  
REMARK    4  A    between atoms: CD   and  CE  
ROOT
ATOM      1  CA  LYS A 131      29.867  25.555  16.977  1.00 20.52     0.186 C 
ENDROOT
BRANCH   1   2
ATOM      2  CB  LYS A 131      28.345  25.722  17.026  1.00 20.94     0.034 C 
BRANCH   2   3
ATOM      3  CG  LYS A 131      27.602  24.400  16.915  1.00 22.96     0.005 C 
BRANCH   3   4
ATOM      4  CD  LYS A 131      26.150  24.533  17.284  1.00 24.33     0.041 C 
BRANCH   4   5
ATOM      5  CE  LYS A 131      26.026  24.767  18.786  1.00 26.91     0.338 C 
ATOM      6  NZ  LYS A 131      24.724  24.264  19.283  1.00 27.40     0.618 N 
ENDBRANCH   4   5
ENDBRANCH   3   4
ENDBRANCH   2   3
ENDBRANCH   1   2
END_RES LYS A 131
BEGIN_RES LYS A 135
REMARK  4 active torsions:
REMARK  status: ('A' for Active; 'I' for Inactive)
REMARK    5  A    between atoms: CA   and  CB  
REMARK    6  A    between atoms: CB   and  CG  
REMARK    7  A    between atoms: CG   and  CD  
REMARK    8  A    between atoms: CD   and  CE  
ROOT
ATOM      7  CA  LYS A 135      33.193  34.663   9.290  1.00 25.02     0.186 C 
ENDROOT
BRANCH   7   8
ATOM      8  CB  LYS A 135      32.060  35.360  10.034  1.00 26.63     0.034 C 
BRANCH   8   9
ATOM      9  CG  LYS A 135      30.810  35.527   9.209  1.00 29.45     0.005 C 
BRANCH   9  10
ATOM     10  CD  LYS A 135      30.155  34.180   8.947  1.00 32.00     0.041 C 
BRANCH  10  11
ATOM     11  CE  LYS A 135      28.682  34.356   8.635  1.00 34.25     0.338 C 
ATOM     12  NZ  LYS A 135      27.834  33.628   9.620  1.00 35.99     0.618 N 
ENDBRANCH  10  11
ENDBRANCH   9  10
ENDBRANCH   8   9
ENDBRANCH   7   8
END_RES LYS A 135
