REMARK VINA RESULT:    -3.625      3.969      7.853
REMARK INTER + INTRA:         -14.279
REMARK INTER:                  -9.201
REMARK INTRA:                  -5.078
REMARK UNBOUND:                -7.158
REMARK SMILES CCN(CC)CCn1cc(COC(=O)NC[C@@H](O)C(O)[C@@H]2O[C@@](O)(C(=O)O)C[C@H](O)[C@H]2NC(C)=O)nn1
REMARK SMILES IDX 15 1 13 2 14 3 16 5 17 6 19 7 21 8 23 9 28 10 22 11 29 12
REMARK SMILES IDX 31 13 24 14 25 16 26 17 27 18 30 20 32 22 33 23 34 25 35 26
REMARK SMILES IDX 20 27 18 29 12 31 11 32 10 33 9 34 36 35 8 36 37 37 7 38
REMARK SMILES IDX 6 39 3 40 2 41 1 42 4 43 5 44
REMARK H PARENT 15 4 24 15 27 19 30 21 32 24 20 28 18 30
REMARK Flexibility Score: inf
ROOT
ATOM      1  N   UNL     1      28.745  30.874  16.979  1.00  0.00    -0.319 N 
ATOM      2  C   UNL     1      27.873  29.747  17.073  1.00  0.00     0.407 C 
ATOM      3  O   UNL     1      27.738  28.980  16.104  1.00  0.00    -0.225 OA
ATOM      4  H   UNL     1      28.806  31.470  17.823  1.00  0.00     0.167 HD
ENDROOT
BRANCH   1   5
ATOM      5  C   UNL     1      29.504  31.198  15.811  1.00  0.00     0.154 C 
BRANCH   5   6
ATOM      6  C   UNL     1      29.188  32.549  15.234  1.00  0.00     0.165 C 
BRANCH   6   7
ATOM      7  C   UNL     1      30.437  33.184  14.664  1.00  0.00     0.176 C 
BRANCH   7   8
ATOM      8  C   UNL     1      30.662  34.560  15.221  1.00  0.00     0.178 C 
ATOM      9  C   UNL     1      31.814  35.426  13.361  1.00  0.00     0.269 C 
ATOM     10  C   UNL     1      33.123  35.199  14.106  1.00  0.00     0.112 C 
ATOM     11  O   UNL     1      30.728  35.457  14.185  1.00  0.00    -0.332 OA
ATOM     12  C   UNL     1      32.861  35.592  15.564  1.00  0.00     0.145 C 
ATOM     13  C   UNL     1      31.859  34.635  16.103  1.00  0.00     0.142 C 
BRANCH   9  14
ATOM     14  O   UNL     1      31.757  34.489  12.333  1.00  0.00    -0.357 OA
ATOM     15  H   UNL     1      30.812  34.244  12.124  1.00  0.00     0.214 HD
ENDBRANCH   9  14
BRANCH   9  16
ATOM     16  C   UNL     1      31.901  36.778  12.722  1.00  0.00     0.364 C 
ATOM     17  O   UNL     1      31.332  37.782  13.201  1.00  0.00    -0.246 OA
BRANCH  16  18
ATOM     18  O   UNL     1      32.637  36.918  11.565  1.00  0.00    -0.477 OA
ATOM     19  H   UNL     1      33.006  36.135  11.035  1.00  0.00     0.296 HD
ENDBRANCH  16  18
ENDBRANCH   9  16
BRANCH  12  20
ATOM     20  O   UNL     1      34.083  35.551  16.236  1.00  0.00    -0.391 OA
ATOM     21  H   UNL     1      34.040  34.739  16.834  1.00  0.00     0.211 HD
ENDBRANCH  12  20
BRANCH  13  22
ATOM     22  N   UNL     1      31.523  34.884  17.492  1.00  0.00    -0.348 N 
ATOM     23  C   UNL     1      31.143  33.854  18.399  1.00  0.00     0.217 C 
ATOM     24  H   UNL     1      31.548  35.863  17.899  1.00  0.00     0.163 HD
ATOM     25  C   UNL     1      30.806  34.169  19.823  1.00  0.00     0.114 C 
ATOM     26  O   UNL     1      31.084  32.671  18.014  1.00  0.00    -0.275 OA
ENDBRANCH  13  22
ENDBRANCH   7   8
BRANCH   7  27
ATOM     27  O   UNL     1      31.474  32.300  15.015  1.00  0.00    -0.388 OA
ATOM     28  H   UNL     1      32.316  32.786  14.808  1.00  0.00     0.211 HD
ENDBRANCH   7  27
ENDBRANCH   6   7
BRANCH   6  29
ATOM     29  O   UNL     1      28.515  33.317  16.140  1.00  0.00    -0.388 OA
ATOM     30  H   UNL     1      28.733  34.272  16.002  1.00  0.00     0.211 HD
ENDBRANCH   6  29
ENDBRANCH   5   6
ENDBRANCH   1   5
BRANCH   2  31
ATOM     31  O   UNL     1      27.152  29.459  18.220  1.00  0.00    -0.443 OA
BRANCH  31  32
ATOM     32  C   UNL     1      26.195  28.409  18.269  1.00  0.00     0.294 C 
BRANCH  32  33
ATOM     33  C   UNL     1      24.881  28.970  17.862  1.00  0.00     0.120 A 
ATOM     34  C   UNL     1      24.342  28.824  16.584  1.00  0.00     0.138 A 
ATOM     35  N   UNL     1      23.979  29.683  18.549  1.00  0.00    -0.132 NA
ATOM     36  N   UNL     1      23.164  29.442  16.564  1.00  0.00    -0.251 N 
ATOM     37  N   UNL     1      22.956  29.956  17.757  1.00  0.00    -0.067 NA
BRANCH  36  38
ATOM     38  C   UNL     1      22.272  29.536  15.440  1.00  0.00     0.161 C 
BRANCH  38  39
ATOM     39  C   UNL     1      22.835  28.708  14.300  1.00  0.00     0.108 C 
BRANCH  39  40
ATOM     40  N   UNL     1      23.075  29.460  13.111  1.00  0.00    -0.302 NA
BRANCH  40  41
ATOM     41  C   UNL     1      24.253  30.261  13.130  1.00  0.00     0.081 C 
ATOM     42  C   UNL     1      23.798  31.727  13.074  1.00  0.00     0.021 C 
ENDBRANCH  40  41
BRANCH  40  43
ATOM     43  C   UNL     1      21.905  30.057  12.563  1.00  0.00     0.081 C 
ATOM     44  C   UNL     1      20.892  29.076  12.060  1.00  0.00     0.021 C 
ENDBRANCH  40  43
ENDBRANCH  39  40
ENDBRANCH  38  39
ENDBRANCH  36  38
ENDBRANCH  32  33
ENDBRANCH  31  32
ENDBRANCH   2  31
TORSDOF 19
BEGIN_RES LYS A 131
REMARK  4 active torsions:
REMARK  status: ('A' for Active; 'I' for Inactive)
REMARK    1  A    between atoms: CA   and  CB  
REMARK    2  A    between atoms: CB   and  CG  
REMARK    3  A    between atoms: CG   and  CD  
REMARK    4  A    between atoms: CD   and  CE  
ROOT
ATOM      1  CA  LYS A 131      29.867  25.555  16.977  1.00 20.52     0.186 C 
ENDROOT
BRANCH   1   2
ATOM      2  CB  LYS A 131      28.345  25.722  17.026  1.00 20.94     0.034 C 
BRANCH   2   3
ATOM      3  CG  LYS A 131      27.604  24.394  17.007  1.00 22.96     0.005 C 
BRANCH   3   4
ATOM      4  CD  LYS A 131      26.116  24.573  17.131  1.00 24.33     0.041 C 
BRANCH   4   5
ATOM      5  CE  LYS A 131      25.626  23.896  18.407  1.00 26.91     0.338 C 
ATOM      6  NZ  LYS A 131      25.748  24.815  19.563  1.00 27.40     0.618 N 
ENDBRANCH   4   5
ENDBRANCH   3   4
ENDBRANCH   2   3
ENDBRANCH   1   2
END_RES LYS A 131
BEGIN_RES LYS A 135
REMARK  4 active torsions:
REMARK  status: ('A' for Active; 'I' for Inactive)
REMARK    5  A    between atoms: CA   and  CB  
REMARK    6  A    between atoms: CB   and  CG  
REMARK    7  A    between atoms: CG   and  CD  
REMARK    8  A    between atoms: CD   and  CE  
ROOT
ATOM      7  CA  LYS A 135      33.193  34.663   9.290  1.00 25.02     0.186 C 
ENDROOT
BRANCH   7   8
ATOM      8  CB  LYS A 135      32.060  35.360  10.034  1.00 26.63     0.034 C 
BRANCH   8   9
ATOM      9  CG  LYS A 135      30.802  35.505   9.217  1.00 29.45     0.005 C 
BRANCH   9  10
ATOM     10  CD  LYS A 135      30.141  34.151   9.006  1.00 32.00     0.041 C 
BRANCH  10  11
ATOM     11  CE  LYS A 135      28.679  34.324   8.639  1.00 34.25     0.338 C 
ATOM     12  NZ  LYS A 135      27.792  33.732   9.678  1.00 35.99     0.618 N 
ENDBRANCH  10  11
ENDBRANCH   9  10
ENDBRANCH   8   9
ENDBRANCH   7   8
END_RES LYS A 135
