REMARK VINA RESULT:    -5.900      4.027      8.331
REMARK INTER + INTRA:         -16.290
REMARK INTER:                 -10.236
REMARK INTRA:                  -6.054
REMARK UNBOUND:                -5.216
REMARK SMILES CC(=O)N[C@@H]1[C@@H](O)C[C@](O)(C(=O)O)O[C@H]1C(O)[C@H](O)CNC(=O)OCc1cn(-c2cc(C(=O)O)nc(-c3ccccc3)c2)nn1
REMARK SMILES IDX 21 1 22 2 23 3 20 5 18 6 16 7 15 8 9 9 8 10 14 11 6 12 5 13
REMARK SMILES IDX 10 14 11 16 12 17 13 18 7 20 4 22 2 23 1 25 3 26 17 27 19 29
REMARK SMILES IDX 24 31 25 32 26 33 27 34 45 35 28 36 44 37 29 38 30 39 43 40
REMARK SMILES IDX 31 41 36 42 35 43 32 44 33 45 34 46 37 48 38 49 42 50 39 51
REMARK SMILES IDX 41 52 40 53
REMARK H PARENT 21 4 10 15 13 19 7 21 4 24 17 28 19 30 34 47
REMARK Flexibility Score: inf
ROOT
ATOM      1  N   UNL     1      26.618  38.616   6.182  1.00  0.00    -0.319 N 
ATOM      2  C   UNL     1      25.918  38.615   7.430  1.00  0.00     0.407 C 
ATOM      3  O   UNL     1      25.719  39.718   8.001  1.00  0.00    -0.225 OA
ATOM      4  H   UNL     1      26.753  37.654   5.754  1.00  0.00     0.167 HD
ENDROOT
BRANCH   1   5
ATOM      5  C   UNL     1      27.105  39.809   5.546  1.00  0.00     0.154 C 
BRANCH   5   6
ATOM      6  C   UNL     1      28.566  39.695   5.228  1.00  0.00     0.165 C 
BRANCH   6   7
ATOM      7  C   UNL     1      29.261  39.056   6.423  1.00  0.00     0.176 C 
BRANCH   7   8
ATOM      8  C   UNL     1      30.386  39.918   6.881  1.00  0.00     0.178 C 
ATOM      9  C   UNL     1      32.699  39.879   7.121  1.00  0.00     0.269 C 
ATOM     10  C   UNL     1      32.450  41.361   7.372  1.00  0.00     0.112 C 
ATOM     11  O   UNL     1      31.591  39.217   6.658  1.00  0.00    -0.332 OA
ATOM     12  C   UNL     1      31.409  41.472   8.430  1.00  0.00     0.145 C 
ATOM     13  C   UNL     1      30.402  40.305   8.319  1.00  0.00     0.142 C 
BRANCH   9  14
ATOM     14  O   UNL     1      33.123  39.374   8.374  1.00  0.00    -0.357 OA
ATOM     15  H   UNL     1      34.057  39.073   8.227  1.00  0.00     0.214 HD
ENDBRANCH   9  14
BRANCH   9  16
ATOM     16  C   UNL     1      33.791  39.677   6.151  1.00  0.00     0.364 C 
ATOM     17  O   UNL     1      34.035  40.545   5.294  1.00  0.00    -0.246 OA
BRANCH  16  18
ATOM     18  O   UNL     1      34.553  38.528   6.184  1.00  0.00    -0.477 OA
ATOM     19  H   UNL     1      35.300  38.380   6.857  1.00  0.00     0.296 HD
ENDBRANCH  16  18
ENDBRANCH   9  16
BRANCH  12  20
ATOM     20  O   UNL     1      31.912  41.567   9.709  1.00  0.00    -0.391 OA
ATOM     21  H   UNL     1      32.550  40.842   9.889  1.00  0.00     0.211 HD
ENDBRANCH  12  20
BRANCH  13  22
ATOM     22  N   UNL     1      29.149  40.738   8.874  1.00  0.00    -0.348 N 
ATOM     23  C   UNL     1      28.801  40.461  10.247  1.00  0.00     0.217 C 
ATOM     24  H   UNL     1      28.485  41.260   8.298  1.00  0.00     0.163 HD
ATOM     25  C   UNL     1      27.530  40.885  10.854  1.00  0.00     0.114 C 
ATOM     26  O   UNL     1      29.672  39.819  10.907  1.00  0.00    -0.275 OA
ENDBRANCH  13  22
ENDBRANCH   7   8
BRANCH   7  27
ATOM     27  O   UNL     1      29.604  37.746   6.228  1.00  0.00    -0.388 OA
ATOM     28  H   UNL     1      30.548  37.530   6.330  1.00  0.00     0.211 HD
ENDBRANCH   7  27
ENDBRANCH   6   7
BRANCH   6  29
ATOM     29  O   UNL     1      29.026  41.020   5.086  1.00  0.00    -0.388 OA
ATOM     30  H   UNL     1      28.469  41.417   4.385  1.00  0.00     0.211 HD
ENDBRANCH   6  29
ENDBRANCH   5   6
ENDBRANCH   1   5
BRANCH   2  31
ATOM     31  O   UNL     1      25.474  37.426   7.989  1.00  0.00    -0.443 OA
BRANCH  31  32
ATOM     32  C   UNL     1      24.678  37.500   9.154  1.00  0.00     0.294 C 
BRANCH  32  33
ATOM     33  C   UNL     1      25.337  36.659  10.187  1.00  0.00     0.121 A 
ATOM     34  C   UNL     1      26.645  36.789  10.670  1.00  0.00     0.144 A 
ATOM     35  N   UNL     1      24.849  35.605  10.883  1.00  0.00    -0.131 NA
ATOM     36  N   UNL     1      26.883  35.848  11.600  1.00  0.00    -0.220 N 
ATOM     37  N   UNL     1      25.780  35.145  11.708  1.00  0.00    -0.062 NA
BRANCH  36  38
ATOM     38  C   UNL     1      28.139  35.708  12.296  1.00  0.00     0.071 A 
ATOM     39  C   UNL     1      29.160  36.606  12.127  1.00  0.00     0.064 A 
ATOM     40  C   UNL     1      28.345  34.642  13.164  1.00  0.00     0.057 A 
ATOM     41  C   UNL     1      30.373  36.502  12.776  1.00  0.00     0.151 A 
ATOM     42  C   UNL     1      29.545  34.526  13.816  1.00  0.00     0.073 A 
ATOM     43  N   UNL     1      30.508  35.451  13.600  1.00  0.00    -0.241 NA
BRANCH  41  44
ATOM     44  C   UNL     1      31.442  37.467  12.582  1.00  0.00     0.354 C 
ATOM     45  O   UNL     1      32.365  37.196  11.789  1.00  0.00    -0.245 OA
BRANCH  44  46
ATOM     46  O   UNL     1      31.457  38.672  13.252  1.00  0.00    -0.477 OA
ATOM     47  H   UNL     1      30.685  39.345  13.203  1.00  0.00     0.297 HD
ENDBRANCH  44  46
ENDBRANCH  41  44
BRANCH  42  48
ATOM     48  C   UNL     1      29.792  33.406  14.743  1.00  0.00     0.000 A 
ATOM     49  C   UNL     1      28.705  32.808  15.342  1.00  0.00     0.010 A 
ATOM     50  C   UNL     1      31.066  32.981  14.992  1.00  0.00     0.010 A 
ATOM     51  C   UNL     1      28.931  31.763  16.207  1.00  0.00     0.001 A 
ATOM     52  C   UNL     1      31.249  31.928  15.867  1.00  0.00     0.001 A 
ATOM     53  C   UNL     1      30.197  31.296  16.491  1.00  0.00     0.000 A 
ENDBRANCH  42  48
ENDBRANCH  36  38
ENDBRANCH  32  33
ENDBRANCH  31  32
ENDBRANCH   2  31
TORSDOF 18
BEGIN_RES LYS A 131
REMARK  4 active torsions:
REMARK  status: ('A' for Active; 'I' for Inactive)
REMARK    1  A    between atoms: CA   and  CB  
REMARK    2  A    between atoms: CB   and  CG  
REMARK    3  A    between atoms: CG   and  CD  
REMARK    4  A    between atoms: CD   and  CE  
ROOT
ATOM      1  CA  LYS A 131      29.867  25.555  16.977  1.00 20.52     0.186 C 
ENDROOT
BRANCH   1   2
ATOM      2  CB  LYS A 131      28.345  25.722  17.026  1.00 20.94     0.034 C 
BRANCH   2   3
ATOM      3  CG  LYS A 131      27.601  24.404  16.879  1.00 22.96     0.005 C 
BRANCH   3   4
ATOM      4  CD  LYS A 131      26.601  24.192  17.982  1.00 24.33     0.041 C 
BRANCH   4   5
ATOM      5  CE  LYS A 131      25.191  24.379  17.434  1.00 26.91     0.338 C 
ATOM      6  NZ  LYS A 131      24.747  25.782  17.611  1.00 27.40     0.618 N 
ENDBRANCH   4   5
ENDBRANCH   3   4
ENDBRANCH   2   3
ENDBRANCH   1   2
END_RES LYS A 131
BEGIN_RES LYS A 135
REMARK  4 active torsions:
REMARK  status: ('A' for Active; 'I' for Inactive)
REMARK    5  A    between atoms: CA   and  CB  
REMARK    6  A    between atoms: CB   and  CG  
REMARK    7  A    between atoms: CG   and  CD  
REMARK    8  A    between atoms: CD   and  CE  
ROOT
ATOM      7  CA  LYS A 135      33.193  34.663   9.290  1.00 25.02     0.186 C 
ENDROOT
BRANCH   7   8
ATOM      8  CB  LYS A 135      32.060  35.360  10.034  1.00 26.63     0.034 C 
BRANCH   8   9
ATOM      9  CG  LYS A 135      30.768  35.405   9.259  1.00 29.45     0.005 C 
BRANCH   9  10
ATOM     10  CD  LYS A 135      30.151  34.018   9.164  1.00 32.00     0.041 C 
BRANCH  10  11
ATOM     11  CE  LYS A 135      28.650  34.115   8.968  1.00 34.25     0.338 C 
ATOM     12  NZ  LYS A 135      28.313  35.066   7.872  1.00 35.99     0.618 N 
ENDBRANCH  10  11
ENDBRANCH   9  10
ENDBRANCH   8   9
ENDBRANCH   7   8
END_RES LYS A 135
