REMARK VINA RESULT:    -5.115      3.372      8.078
REMARK INTER + INTRA:         -14.867
REMARK INTER:                  -9.501
REMARK INTRA:                  -5.366
REMARK UNBOUND:                -5.118
REMARK SMILES COc1ccc(Cn2cc(COC(=O)NC[C@@H](O)C(O)[C@@H]3O[C@@](O)(C(=O)O)C[C@H](O)[C@H]3NC(C)=O)nn2)cc1OC
REMARK SMILES IDX 15 1 13 2 14 3 16 5 17 6 19 7 21 8 23 9 28 10 22 11 29 12
REMARK SMILES IDX 31 13 24 14 25 16 26 17 27 18 30 20 32 22 33 23 34 25 35 26
REMARK SMILES IDX 20 27 18 29 12 31 11 32 10 33 9 34 36 35 8 36 37 37 7 38
REMARK SMILES IDX 6 39 38 40 5 41 39 42 4 43 3 44 40 45 41 46 2 47 1 48
REMARK H PARENT 15 4 24 15 27 19 30 21 32 24 20 28 18 30
REMARK Flexibility Score: inf
ROOT
ATOM      1  N   UNL     1      25.425  36.253  13.106  1.00  0.00    -0.319 N 
ATOM      2  C   UNL     1      25.693  37.424  13.826  1.00  0.00     0.407 C 
ATOM      3  O   UNL     1      24.975  38.440  13.709  1.00  0.00    -0.225 OA
ATOM      4  H   UNL     1      26.091  35.435  13.257  1.00  0.00     0.167 HD
ENDROOT
BRANCH   1   5
ATOM      5  C   UNL     1      24.324  36.054  12.180  1.00  0.00     0.154 C 
BRANCH   5   6
ATOM      6  C   UNL     1      24.751  35.233  11.017  1.00  0.00     0.165 C 
BRANCH   6   7
ATOM      7  C   UNL     1      26.179  35.459  10.585  1.00  0.00     0.176 C 
BRANCH   7   8
ATOM      8  C   UNL     1      26.401  35.412   9.110  1.00  0.00     0.178 C 
ATOM      9  C   UNL     1      28.711  35.515   8.804  1.00  0.00     0.269 C 
ATOM     10  C   UNL     1      28.643  36.230   7.461  1.00  0.00     0.112 C 
ATOM     11  O   UNL     1      27.605  34.714   8.888  1.00  0.00    -0.332 OA
ATOM     12  C   UNL     1      27.205  36.378   7.057  1.00  0.00     0.145 C 
ATOM     13  C   UNL     1      26.305  36.645   8.319  1.00  0.00     0.142 C 
BRANCH   9  14
ATOM     14  O   UNL     1      28.867  36.419   9.849  1.00  0.00    -0.357 OA
ATOM     15  H   UNL     1      29.264  37.279   9.553  1.00  0.00     0.214 HD
ENDBRANCH   9  14
BRANCH   9  16
ATOM     16  C   UNL     1      29.916  34.635   8.822  1.00  0.00     0.364 C 
ATOM     17  O   UNL     1      30.564  34.474   7.762  1.00  0.00    -0.246 OA
BRANCH  16  18
ATOM     18  O   UNL     1      30.349  33.985   9.968  1.00  0.00    -0.477 OA
ATOM     19  H   UNL     1      30.821  34.482  10.734  1.00  0.00     0.296 HD
ENDBRANCH  16  18
ENDBRANCH   9  16
BRANCH  12  20
ATOM     20  O   UNL     1      27.013  37.422   6.158  1.00  0.00    -0.391 OA
ATOM     21  H   UNL     1      27.643  38.156   6.319  1.00  0.00     0.211 HD
ENDBRANCH  12  20
BRANCH  13  22
ATOM     22  N   UNL     1      24.974  36.807   7.718  1.00  0.00    -0.348 N 
ATOM     23  C   UNL     1      23.956  37.628   8.258  1.00  0.00     0.217 C 
ATOM     24  H   UNL     1      24.727  36.291   6.822  1.00  0.00     0.163 HD
ATOM     25  C   UNL     1      22.618  37.769   7.629  1.00  0.00     0.114 C 
ATOM     26  O   UNL     1      24.176  38.272   9.313  1.00  0.00    -0.275 OA
ENDBRANCH  13  22
ENDBRANCH   7   8
BRANCH   7  27
ATOM     27  O   UNL     1      26.948  34.341  11.106  1.00  0.00    -0.388 OA
ATOM     28  H   UNL     1      27.899  34.552  10.944  1.00  0.00     0.211 HD
ENDBRANCH   7  27
ENDBRANCH   6   7
BRANCH   6  29
ATOM     29  O   UNL     1      23.849  35.115   9.992  1.00  0.00    -0.388 OA
ATOM     30  H   UNL     1      22.956  35.447  10.201  1.00  0.00     0.211 HD
ENDBRANCH   6  29
ENDBRANCH   5   6
ENDBRANCH   1   5
BRANCH   2  31
ATOM     31  O   UNL     1      26.790  37.495  14.712  1.00  0.00    -0.443 OA
BRANCH  31  32
ATOM     32  C   UNL     1      28.063  37.874  14.165  1.00  0.00     0.294 C 
BRANCH  32  33
ATOM     33  C   UNL     1      28.854  36.704  13.792  1.00  0.00     0.120 A 
ATOM     34  C   UNL     1      29.917  36.180  14.482  1.00  0.00     0.138 A 
ATOM     35  N   UNL     1      28.662  35.938  12.706  1.00  0.00    -0.132 NA
ATOM     36  N   UNL     1      30.349  35.117  13.812  1.00  0.00    -0.248 N 
ATOM     37  N   UNL     1      29.585  34.986  12.748  1.00  0.00    -0.067 NA
BRANCH  36  38
ATOM     38  C   UNL     1      31.465  34.246  14.161  1.00  0.00     0.181 C 
BRANCH  38  39
ATOM     39  C   UNL     1      31.036  33.370  15.296  1.00  0.00    -0.023 A 
ATOM     40  C   UNL     1      30.181  32.298  15.044  1.00  0.00     0.056 A 
ATOM     41  C   UNL     1      31.459  33.572  16.592  1.00  0.00     0.010 A 
ATOM     42  C   UNL     1      29.770  31.465  16.055  1.00  0.00     0.161 A 
ATOM     43  C   UNL     1      31.063  32.752  17.630  1.00  0.00     0.051 A 
ATOM     44  C   UNL     1      30.220  31.705  17.340  1.00  0.00     0.160 A 
BRANCH  42  45
ATOM     45  O   UNL     1      28.916  30.391  15.818  1.00  0.00    -0.493 OA
ATOM     46  C   UNL     1      27.526  30.646  15.719  1.00  0.00     0.278 C 
ENDBRANCH  42  45
BRANCH  44  47
ATOM     47  O   UNL     1      29.800  30.859  18.354  1.00  0.00    -0.493 OA
ATOM     48  C   UNL     1      29.033  31.323  19.450  1.00  0.00     0.278 C 
ENDBRANCH  44  47
ENDBRANCH  38  39
ENDBRANCH  36  38
ENDBRANCH  32  33
ENDBRANCH  31  32
ENDBRANCH   2  31
TORSDOF 18
BEGIN_RES LYS A 131
REMARK  4 active torsions:
REMARK  status: ('A' for Active; 'I' for Inactive)
REMARK    1  A    between atoms: CA   and  CB  
REMARK    2  A    between atoms: CB   and  CG  
REMARK    3  A    between atoms: CG   and  CD  
REMARK    4  A    between atoms: CD   and  CE  
ROOT
ATOM      1  CA  LYS A 131      29.867  25.555  16.977  1.00 20.52     0.186 C 
ENDROOT
BRANCH   1   2
ATOM      2  CB  LYS A 131      28.345  25.722  17.026  1.00 20.94     0.034 C 
BRANCH   2   3
ATOM      3  CG  LYS A 131      27.602  24.397  16.951  1.00 22.96     0.005 C 
BRANCH   3   4
ATOM      4  CD  LYS A 131      26.543  24.280  18.012  1.00 24.33     0.041 C 
BRANCH   4   5
ATOM      5  CE  LYS A 131      25.205  23.948  17.361  1.00 26.91     0.338 C 
ATOM      6  NZ  LYS A 131      24.902  22.504  17.505  1.00 27.40     0.618 N 
ENDBRANCH   4   5
ENDBRANCH   3   4
ENDBRANCH   2   3
ENDBRANCH   1   2
END_RES LYS A 131
BEGIN_RES LYS A 135
REMARK  4 active torsions:
REMARK  status: ('A' for Active; 'I' for Inactive)
REMARK    5  A    between atoms: CA   and  CB  
REMARK    6  A    between atoms: CB   and  CG  
REMARK    7  A    between atoms: CG   and  CD  
REMARK    8  A    between atoms: CD   and  CE  
ROOT
ATOM      7  CA  LYS A 135      33.193  34.663   9.290  1.00 25.02     0.186 C 
ENDROOT
BRANCH   7   8
ATOM      8  CB  LYS A 135      32.060  35.360  10.034  1.00 26.63     0.034 C 
BRANCH   8   9
ATOM      9  CG  LYS A 135      32.531  36.233  11.168  1.00 29.45     0.005 C 
BRANCH   9  10
ATOM     10  CD  LYS A 135      31.675  37.486  11.272  1.00 32.00     0.041 C 
BRANCH  10  11
ATOM     11  CE  LYS A 135      31.836  38.345  10.032  1.00 34.25     0.338 C 
ATOM     12  NZ  LYS A 135      31.785  39.794  10.373  1.00 35.99     0.618 N 
ENDBRANCH  10  11
ENDBRANCH   9  10
ENDBRANCH   8   9
ENDBRANCH   7   8
END_RES LYS A 135
