REMARK VINA RESULT:    -4.298      0.000      0.000
REMARK INTER + INTRA:         -16.132
REMARK INTER:                 -10.596
REMARK INTRA:                  -5.537
REMARK UNBOUND:                -7.438
REMARK SMILES CC(=O)N[C@@H]1[C@@H](O)C[C@](O)(C(=O)O)O[C@H]1C(O)[C@H](O)CNC(=O)OCc1cn([C@@H](CCC(=O)O)C(=O)O)nn1
REMARK SMILES IDX 24 1 22 2 21 3 23 5 20 6 18 7 16 8 15 9 9 10 8 11 14 12 6 13
REMARK SMILES IDX 5 14 10 15 11 17 12 18 13 19 7 21 4 23 2 24 1 26 3 27 17 28
REMARK SMILES IDX 19 30 25 32 26 33 27 34 39 35 28 36 38 37 29 38 30 39 31 40
REMARK SMILES IDX 32 41 33 42 34 43 35 45 36 46 37 47
REMARK H PARENT 21 4 10 16 13 20 7 22 4 25 17 29 19 31 34 44 37 48
REMARK Flexibility Score: inf
ROOT
ATOM      1  O   UNL     1      27.154  34.354  13.822  1.00  0.00    -0.443 OA
ENDROOT
BRANCH   1   2
ATOM      2  C   UNL     1      25.792  34.346  13.493  1.00  0.00     0.407 C 
ATOM      3  N   UNL     1      25.146  35.452  12.923  1.00  0.00    -0.319 N 
ATOM      4  H   UNL     1      25.765  36.315  12.763  1.00  0.00     0.167 HD
ATOM      5  O   UNL     1      25.169  33.299  13.732  1.00  0.00    -0.225 OA
BRANCH   3   6
ATOM      6  C   UNL     1      23.767  35.547  12.538  1.00  0.00     0.154 C 
BRANCH   6   7
ATOM      7  C   UNL     1      23.496  34.822  11.279  1.00  0.00     0.165 C 
BRANCH   7   8
ATOM      8  C   UNL     1      23.800  35.639  10.037  1.00  0.00     0.176 C 
BRANCH   8   9
ATOM      9  C   UNL     1      22.859  36.845   9.952  1.00  0.00     0.178 C 
ATOM     10  C   UNL     1      21.298  36.399   8.266  1.00  0.00     0.269 C 
ATOM     11  C   UNL     1      22.405  36.782   7.326  1.00  0.00     0.112 C 
ATOM     12  O   UNL     1      21.594  36.520   9.589  1.00  0.00    -0.332 OA
ATOM     13  C   UNL     1      23.223  37.952   7.740  1.00  0.00     0.145 C 
ATOM     14  C   UNL     1      23.498  37.984   9.215  1.00  0.00     0.142 C 
BRANCH  10  15
ATOM     15  O   UNL     1      21.025  35.054   8.011  1.00  0.00    -0.357 OA
ATOM     16  H   UNL     1      20.103  34.817   8.242  1.00  0.00     0.214 HD
ENDBRANCH  10  15
BRANCH  10  17
ATOM     17  C   UNL     1      20.073  37.171   7.941  1.00  0.00     0.364 C 
ATOM     18  O   UNL     1      19.786  38.199   8.598  1.00  0.00    -0.246 OA
BRANCH  17  19
ATOM     19  O   UNL     1      19.212  36.793   6.915  1.00  0.00    -0.477 OA
ATOM     20  H   UNL     1      18.215  36.830   7.130  1.00  0.00     0.296 HD
ENDBRANCH  17  19
ENDBRANCH  10  17
BRANCH  13  21
ATOM     21  O   UNL     1      24.436  37.891   7.056  1.00  0.00    -0.391 OA
ATOM     22  H   UNL     1      25.186  37.677   7.672  1.00  0.00     0.211 HD
ENDBRANCH  13  21
BRANCH  14  23
ATOM     23  N   UNL     1      23.079  39.208   9.834  1.00  0.00    -0.348 N 
ATOM     24  C   UNL     1      23.784  39.702  10.960  1.00  0.00     0.217 C 
ATOM     25  H   UNL     1      22.246  39.743   9.451  1.00  0.00     0.163 HD
ATOM     26  C   UNL     1      23.354  40.962  11.601  1.00  0.00     0.114 C 
ATOM     27  O   UNL     1      24.779  39.102  11.451  1.00  0.00    -0.275 OA
ENDBRANCH  14  23
ENDBRANCH   8   9
BRANCH   8  28
ATOM     28  O   UNL     1      25.107  36.084  10.095  1.00  0.00    -0.388 OA
ATOM     29  H   UNL     1      25.660  35.382  10.521  1.00  0.00     0.211 HD
ENDBRANCH   8  28
ENDBRANCH   7   8
BRANCH   7  30
ATOM     30  O   UNL     1      22.274  34.233  11.251  1.00  0.00    -0.388 OA
ATOM     31  H   UNL     1      21.524  34.791  11.557  1.00  0.00     0.211 HD
ENDBRANCH   7  30
ENDBRANCH   6   7
ENDBRANCH   3   6
ENDBRANCH   1   2
BRANCH   1  32
ATOM     32  C   UNL     1      27.949  35.491  13.498  1.00  0.00     0.294 C 
BRANCH  32  33
ATOM     33  C   UNL     1      28.120  35.652  12.060  1.00  0.00     0.120 A 
ATOM     34  C   UNL     1      28.618  34.755  11.154  1.00  0.00     0.139 A 
ATOM     35  N   UNL     1      27.808  36.741  11.342  1.00  0.00    -0.132 NA
ATOM     36  N   UNL     1      28.604  35.292   9.926  1.00  0.00    -0.238 N 
ATOM     37  N   UNL     1      28.104  36.504  10.076  1.00  0.00    -0.066 NA
BRANCH  36  38
ATOM     38  C   UNL     1      29.024  34.757   8.643  1.00  0.00     0.219 C 
BRANCH  38  39
ATOM     39  C   UNL     1      27.986  35.010   7.612  1.00  0.00     0.051 C 
BRANCH  39  40
ATOM     40  C   UNL     1      28.454  35.618   6.344  1.00  0.00     0.125 C 
BRANCH  40  41
ATOM     41  C   UNL     1      28.061  37.016   6.177  1.00  0.00     0.303 C 
ATOM     42  O   UNL     1      28.681  37.960   6.779  1.00  0.00    -0.252 OA
BRANCH  41  43
ATOM     43  O   UNL     1      26.985  37.343   5.348  1.00  0.00    -0.481 OA
ATOM     44  H   UNL     1      26.086  37.481   5.788  1.00  0.00     0.296 HD
ENDBRANCH  41  43
ENDBRANCH  40  41
ENDBRANCH  39  40
ENDBRANCH  38  39
BRANCH  38  45
ATOM     45  C   UNL     1      30.401  35.068   8.301  1.00  0.00     0.328 C 
ATOM     46  O   UNL     1      31.259  34.264   7.941  1.00  0.00    -0.250 OA
BRANCH  45  47
ATOM     47  O   UNL     1      30.789  36.418   8.398  1.00  0.00    -0.480 OA
ATOM     48  H   UNL     1      31.402  36.690   9.147  1.00  0.00     0.296 HD
ENDBRANCH  45  47
ENDBRANCH  38  45
ENDBRANCH  36  38
ENDBRANCH  32  33
ENDBRANCH   1  32
TORSDOF 21
BEGIN_RES LYS A 131
REMARK  4 active torsions:
REMARK  status: ('A' for Active; 'I' for Inactive)
REMARK    1  A    between atoms: CA   and  CB  
REMARK    2  A    between atoms: CB   and  CG  
REMARK    3  A    between atoms: CG   and  CD  
REMARK    4  A    between atoms: CD   and  CE  
ROOT
ATOM      1  CA  LYS A 131      29.867  25.555  16.977  1.00 20.52     0.186 C 
ENDROOT
BRANCH   1   2
ATOM      2  CB  LYS A 131      28.345  25.722  17.026  1.00 20.94     0.034 C 
BRANCH   2   3
ATOM      3  CG  LYS A 131      27.601  24.401  16.903  1.00 22.96     0.005 C 
BRANCH   3   4
ATOM      4  CD  LYS A 131      26.153  24.529  17.284  1.00 24.33     0.041 C 
BRANCH   4   5
ATOM      5  CE  LYS A 131      25.672  23.222  17.906  1.00 26.91     0.338 C 
ATOM      6  NZ  LYS A 131      24.420  22.767  17.255  1.00 27.40     0.618 N 
ENDBRANCH   4   5
ENDBRANCH   3   4
ENDBRANCH   2   3
ENDBRANCH   1   2
END_RES LYS A 131
BEGIN_RES LYS A 135
REMARK  4 active torsions:
REMARK  status: ('A' for Active; 'I' for Inactive)
REMARK    5  A    between atoms: CA   and  CB  
REMARK    6  A    between atoms: CB   and  CG  
REMARK    7  A    between atoms: CG   and  CD  
REMARK    8  A    between atoms: CD   and  CE  
ROOT
ATOM      7  CA  LYS A 135      33.193  34.663   9.290  1.00 25.02     0.186 C 
ENDROOT
BRANCH   7   8
ATOM      8  CB  LYS A 135      32.060  35.360  10.034  1.00 26.63     0.034 C 
BRANCH   8   9
ATOM      9  CG  LYS A 135      32.410  35.732  11.452  1.00 29.45     0.005 C 
BRANCH   9  10
ATOM     10  CD  LYS A 135      31.637  36.968  11.888  1.00 32.00     0.041 C 
BRANCH  10  11
ATOM     11  CE  LYS A 135      31.694  37.127  13.395  1.00 34.25     0.338 C 
ATOM     12  NZ  LYS A 135      30.651  38.075  13.875  1.00 35.99     0.618 N 
ENDBRANCH  10  11
ENDBRANCH   9  10
ENDBRANCH   8   9
ENDBRANCH   7   8
END_RES LYS A 135
