REMARK VINA RESULT:    -4.046      3.539      6.136
REMARK INTER + INTRA:         -13.719
REMARK INTER:                  -8.505
REMARK INTRA:                  -5.214
REMARK UNBOUND:                -6.362
REMARK SMILES CC(=O)N[C@@H]1[C@@H](O)C[C@](O)(C(=O)O)O[C@H]1C(O)[C@H](O)CNC(=O)OCc1cn(CC(=O)O)nn1
REMARK SMILES IDX 21 1 22 2 23 3 20 5 18 6 16 7 15 8 9 9 8 10 14 11 6 12 5 13
REMARK SMILES IDX 10 14 11 16 12 17 13 18 7 20 4 22 2 23 1 25 3 26 17 27 19 29
REMARK SMILES IDX 24 31 25 32 26 33 27 34 34 35 28 36 33 37 29 38 30 39 31 40
REMARK SMILES IDX 32 41
REMARK H PARENT 21 4 10 15 13 19 7 21 4 24 17 28 19 30 32 42
REMARK Flexibility Score: inf
ROOT
ATOM      1  N   UNL     1      27.669  28.663  17.081  1.00  0.00    -0.319 N 
ATOM      2  C   UNL     1      27.781  29.767  16.215  1.00  0.00     0.407 C 
ATOM      3  O   UNL     1      26.797  30.364  15.781  1.00  0.00    -0.225 OA
ATOM      4  H   UNL     1      28.597  28.241  17.391  1.00  0.00     0.167 HD
ENDROOT
BRANCH   1   5
ATOM      5  C   UNL     1      26.451  28.069  17.567  1.00  0.00     0.154 C 
BRANCH   5   6
ATOM      6  C   UNL     1      26.229  28.157  19.044  1.00  0.00     0.165 C 
BRANCH   6   7
ATOM      7  C   UNL     1      27.386  27.711  19.855  1.00  0.00     0.176 C 
BRANCH   7   8
ATOM      8  C   UNL     1      27.069  27.322  21.274  1.00  0.00     0.178 C 
ATOM      9  C   UNL     1      25.647  27.927  23.049  1.00  0.00     0.269 C 
ATOM     10  C   UNL     1      26.689  27.607  24.069  1.00  0.00     0.112 C 
ATOM     11  O   UNL     1      26.048  28.142  21.776  1.00  0.00    -0.332 OA
ATOM     12  C   UNL     1      27.738  26.705  23.499  1.00  0.00     0.145 C 
ATOM     13  C   UNL     1      28.233  27.412  22.224  1.00  0.00     0.142 C 
BRANCH   9  14
ATOM     14  O   UNL     1      24.940  29.060  23.549  1.00  0.00    -0.357 OA
ATOM     15  H   UNL     1      24.329  29.329  22.810  1.00  0.00     0.214 HD
ENDBRANCH   9  14
BRANCH   9  16
ATOM     16  C   UNL     1      24.629  26.834  23.069  1.00  0.00     0.364 C 
ATOM     17  O   UNL     1      23.949  26.481  22.084  1.00  0.00    -0.246 OA
BRANCH  16  18
ATOM     18  O   UNL     1      24.416  26.160  24.253  1.00  0.00    -0.477 OA
ATOM     19  H   UNL     1      24.523  25.152  24.343  1.00  0.00     0.296 HD
ENDBRANCH  16  18
ENDBRANCH   9  16
BRANCH  12  20
ATOM     20  O   UNL     1      28.799  26.494  24.375  1.00  0.00    -0.391 OA
ATOM     21  H   UNL     1      29.308  25.715  24.030  1.00  0.00     0.211 HD
ENDBRANCH  12  20
BRANCH  13  22
ATOM     22  N   UNL     1      29.457  26.808  21.809  1.00  0.00    -0.348 N 
ATOM     23  C   UNL     1      30.621  27.573  21.494  1.00  0.00     0.217 C 
ATOM     24  H   UNL     1      29.530  25.777  21.738  1.00  0.00     0.163 HD
ATOM     25  C   UNL     1      31.907  26.982  21.060  1.00  0.00     0.114 C 
ATOM     26  O   UNL     1      30.545  28.819  21.594  1.00  0.00    -0.275 OA
ENDBRANCH  13  22
ENDBRANCH   7   8
BRANCH   7  27
ATOM     27  O   UNL     1      28.155  26.775  19.183  1.00  0.00    -0.388 OA
ATOM     28  H   UNL     1      27.808  25.854  19.299  1.00  0.00     0.211 HD
ENDBRANCH   7  27
ENDBRANCH   6   7
BRANCH   6  29
ATOM     29  O   UNL     1      25.069  27.431  19.358  1.00  0.00    -0.388 OA
ATOM     30  H   UNL     1      24.253  27.959  19.206  1.00  0.00     0.211 HD
ENDBRANCH   6  29
ENDBRANCH   5   6
ENDBRANCH   1   5
BRANCH   2  31
ATOM     31  O   UNL     1      29.030  30.235  15.813  1.00  0.00    -0.443 OA
BRANCH  31  32
ATOM     32  C   UNL     1      29.856  31.064  16.567  1.00  0.00     0.294 C 
BRANCH  32  33
ATOM     33  C   UNL     1      30.430  32.209  15.820  1.00  0.00     0.120 A 
ATOM     34  C   UNL     1      31.555  32.935  16.062  1.00  0.00     0.139 A 
ATOM     35  N   UNL     1      29.889  32.758  14.693  1.00  0.00    -0.132 NA
ATOM     36  N   UNL     1      31.672  33.878  15.111  1.00  0.00    -0.241 N 
ATOM     37  N   UNL     1      30.661  33.760  14.292  1.00  0.00    -0.066 NA
BRANCH  36  38
ATOM     38  C   UNL     1      32.742  34.851  15.023  1.00  0.00     0.268 C 
BRANCH  38  39
ATOM     39  C   UNL     1      32.699  35.524  13.710  1.00  0.00     0.325 C 
ATOM     40  O   UNL     1      32.276  36.713  13.641  1.00  0.00    -0.250 OA
BRANCH  39  41
ATOM     41  O   UNL     1      33.114  34.869  12.570  1.00  0.00    -0.480 OA
ATOM     42  H   UNL     1      33.135  33.845  12.610  1.00  0.00     0.296 HD
ENDBRANCH  39  41
ENDBRANCH  38  39
ENDBRANCH  36  38
ENDBRANCH  32  33
ENDBRANCH  31  32
ENDBRANCH   2  31
TORSDOF 17
BEGIN_RES LYS A 131
REMARK  4 active torsions:
REMARK  status: ('A' for Active; 'I' for Inactive)
REMARK    1  A    between atoms: CA   and  CB  
REMARK    2  A    between atoms: CB   and  CG  
REMARK    3  A    between atoms: CG   and  CD  
REMARK    4  A    between atoms: CD   and  CE  
ROOT
ATOM      1  CA  LYS A 131      29.867  25.555  16.977  1.00 20.52     0.186 C 
ENDROOT
BRANCH   1   2
ATOM      2  CB  LYS A 131      28.345  25.722  17.026  1.00 20.94     0.034 C 
BRANCH   2   3
ATOM      3  CG  LYS A 131      27.599  24.477  16.572  1.00 22.96     0.005 C 
BRANCH   3   4
ATOM      4  CD  LYS A 131      27.217  23.593  17.726  1.00 24.33     0.041 C 
BRANCH   4   5
ATOM      5  CE  LYS A 131      26.004  24.182  18.439  1.00 26.91     0.338 C 
ATOM      6  NZ  LYS A 131      25.455  23.214  19.417  1.00 27.40     0.618 N 
ENDBRANCH   4   5
ENDBRANCH   3   4
ENDBRANCH   2   3
ENDBRANCH   1   2
END_RES LYS A 131
BEGIN_RES LYS A 135
REMARK  4 active torsions:
REMARK  status: ('A' for Active; 'I' for Inactive)
REMARK    5  A    between atoms: CA   and  CB  
REMARK    6  A    between atoms: CB   and  CG  
REMARK    7  A    between atoms: CG   and  CD  
REMARK    8  A    between atoms: CD   and  CE  
ROOT
ATOM      7  CA  LYS A 135      33.193  34.663   9.290  1.00 25.02     0.186 C 
ENDROOT
BRANCH   7   8
ATOM      8  CB  LYS A 135      32.060  35.360  10.034  1.00 26.63     0.034 C 
BRANCH   8   9
ATOM      9  CG  LYS A 135      30.738  34.645   9.925  1.00 29.45     0.005 C 
BRANCH   9  10
ATOM     10  CD  LYS A 135      30.325  34.499   8.468  1.00 32.00     0.041 C 
BRANCH  10  11
ATOM     11  CE  LYS A 135      28.815  34.545   8.335  1.00 34.25     0.338 C 
ATOM     12  NZ  LYS A 135      28.156  33.811   9.450  1.00 35.99     0.618 N 
ENDBRANCH  10  11
ENDBRANCH   9  10
ENDBRANCH   8   9
ENDBRANCH   7   8
END_RES LYS A 135
