REMARK VINA RESULT:    -4.992      6.877     11.817
REMARK INTER + INTRA:         -13.666
REMARK INTER:                  -9.522
REMARK INTRA:                  -4.144
REMARK UNBOUND:                -5.026
REMARK SMILES CC(=O)N[C@@H]1[C@@H](O)C[C@](O)(C(=O)O)O[C@H]1C(O)[C@H](O)CNC(=O)OCc1cn(C2CCCC2)nn1
REMARK SMILES IDX 20 1 18 2 16 3 15 4 9 5 8 6 14 7 6 8 5 9 10 10 11 12 12 13
REMARK SMILES IDX 13 14 7 16 4 18 2 19 1 21 3 22 17 23 19 25 21 27 22 28 23 30
REMARK SMILES IDX 24 31 25 32 26 33 27 34 35 35 28 36 34 37 29 38 30 39 33 40
REMARK SMILES IDX 31 41 32 42
REMARK H PARENT 10 11 13 15 7 17 4 20 17 24 19 26 21 29
REMARK Flexibility Score: inf
ROOT
ATOM      1  C   UNL     1      21.268  35.696   8.013  1.00  0.00     0.154 C 
ENDROOT
BRANCH   1   2
ATOM      2  C   UNL     1      19.823  35.844   7.624  1.00  0.00     0.165 C 
BRANCH   2   3
ATOM      3  C   UNL     1      19.038  35.924   8.918  1.00  0.00     0.176 C 
BRANCH   3   4
ATOM      4  C   UNL     1      18.571  34.584   9.390  1.00  0.00     0.178 C 
ATOM      5  C   UNL     1      16.830  33.082   9.102  1.00  0.00     0.269 C 
ATOM      6  C   UNL     1      17.654  32.328  10.134  1.00  0.00     0.112 C 
ATOM      7  O   UNL     1      17.235  34.418   9.112  1.00  0.00    -0.332 OA
ATOM      8  C   UNL     1      17.859  33.267  11.306  1.00  0.00     0.145 C 
ATOM      9  C   UNL     1      18.856  34.322  10.843  1.00  0.00     0.142 C 
BRANCH   5  10
ATOM     10  O   UNL     1      15.501  32.963   9.492  1.00  0.00    -0.357 OA
ATOM     11  H   UNL     1      15.085  33.874   9.391  1.00  0.00     0.214 HD
ENDBRANCH   5  10
BRANCH   5  12
ATOM     12  C   UNL     1      16.983  32.518   7.755  1.00  0.00     0.364 C 
ATOM     13  O   UNL     1      17.192  31.293   7.575  1.00  0.00    -0.246 OA
BRANCH  12  14
ATOM     14  O   UNL     1      16.902  33.329   6.635  1.00  0.00    -0.477 OA
ATOM     15  H   UNL     1      16.235  33.149   5.873  1.00  0.00     0.296 HD
ENDBRANCH  12  14
ENDBRANCH   5  12
BRANCH   8  16
ATOM     16  O   UNL     1      16.618  33.876  11.559  1.00  0.00    -0.391 OA
ATOM     17  H   UNL     1      15.918  33.216  11.314  1.00  0.00     0.211 HD
ENDBRANCH   8  16
BRANCH   9  18
ATOM     18  N   UNL     1      20.197  33.817  11.056  1.00  0.00    -0.348 N 
ATOM     19  C   UNL     1      20.933  34.176  12.207  1.00  0.00     0.217 C 
ATOM     20  H   UNL     1      20.630  33.184  10.360  1.00  0.00     0.163 HD
ATOM     21  C   UNL     1      22.309  33.696  12.488  1.00  0.00     0.114 C 
ATOM     22  O   UNL     1      20.395  34.942  13.038  1.00  0.00    -0.275 OA
ENDBRANCH   9  18
ENDBRANCH   3   4
BRANCH   3  23
ATOM     23  O   UNL     1      19.910  36.438   9.879  1.00  0.00    -0.388 OA
ATOM     24  H   UNL     1      19.725  37.366  10.123  1.00  0.00     0.211 HD
ENDBRANCH   3  23
ENDBRANCH   2   3
BRANCH   2  25
ATOM     25  O   UNL     1      19.378  34.781   6.872  1.00  0.00    -0.388 OA
ATOM     26  H   UNL     1      19.859  33.957   7.151  1.00  0.00     0.211 HD
ENDBRANCH   2  25
ENDBRANCH   1   2
BRANCH   1  27
ATOM     27  N   UNL     1      22.175  36.617   7.405  1.00  0.00    -0.319 N 
ATOM     28  C   UNL     1      22.534  37.875   7.902  1.00  0.00     0.407 C 
ATOM     29  H   UNL     1      22.615  36.303   6.481  1.00  0.00     0.167 HD
ATOM     30  O   UNL     1      22.041  38.292   8.974  1.00  0.00    -0.225 OA
BRANCH  28  31
ATOM     31  O   UNL     1      23.451  38.681   7.202  1.00  0.00    -0.443 OA
BRANCH  31  32
ATOM     32  C   UNL     1      24.594  39.126   7.909  1.00  0.00     0.294 C 
BRANCH  32  33
ATOM     33  C   UNL     1      25.327  37.939   8.401  1.00  0.00     0.120 A 
ATOM     34  C   UNL     1      25.953  37.021   7.567  1.00  0.00     0.138 A 
ATOM     35  N   UNL     1      25.540  37.510   9.639  1.00  0.00    -0.132 NA
ATOM     36  N   UNL     1      26.511  36.089   8.339  1.00  0.00    -0.249 N 
ATOM     37  N   UNL     1      26.252  36.396   9.595  1.00  0.00    -0.067 NA
BRANCH  36  38
ATOM     38  C   UNL     1      27.261  34.951   7.818  1.00  0.00     0.109 C 
ATOM     39  C   UNL     1      28.506  35.486   7.169  1.00  0.00     0.027 C 
ATOM     40  C   UNL     1      27.701  34.085   8.977  1.00  0.00     0.027 C 
ATOM     41  C   UNL     1      29.663  34.812   7.834  1.00  0.00     0.002 C 
ATOM     42  C   UNL     1      29.149  34.479   9.208  1.00  0.00     0.002 C 
ENDBRANCH  36  38
ENDBRANCH  32  33
ENDBRANCH  31  32
ENDBRANCH  28  31
ENDBRANCH   1  27
TORSDOF 15
BEGIN_RES LYS A 131
REMARK  4 active torsions:
REMARK  status: ('A' for Active; 'I' for Inactive)
REMARK    1  A    between atoms: CA   and  CB  
REMARK    2  A    between atoms: CB   and  CG  
REMARK    3  A    between atoms: CG   and  CD  
REMARK    4  A    between atoms: CD   and  CE  
ROOT
ATOM      1  CA  LYS A 131      29.867  25.555  16.977  1.00 20.52     0.186 C 
ENDROOT
BRANCH   1   2
ATOM      2  CB  LYS A 131      28.345  25.722  17.026  1.00 20.94     0.034 C 
BRANCH   2   3
ATOM      3  CG  LYS A 131      27.602  24.400  16.914  1.00 22.96     0.005 C 
BRANCH   3   4
ATOM      4  CD  LYS A 131      26.535  24.259  17.964  1.00 24.33     0.041 C 
BRANCH   4   5
ATOM      5  CE  LYS A 131      25.183  24.047  17.291  1.00 26.91     0.338 C 
ATOM      6  NZ  LYS A 131      24.745  22.639  17.439  1.00 27.40     0.618 N 
ENDBRANCH   4   5
ENDBRANCH   3   4
ENDBRANCH   2   3
ENDBRANCH   1   2
END_RES LYS A 131
BEGIN_RES LYS A 135
REMARK  4 active torsions:
REMARK  status: ('A' for Active; 'I' for Inactive)
REMARK    5  A    between atoms: CA   and  CB  
REMARK    6  A    between atoms: CB   and  CG  
REMARK    7  A    between atoms: CG   and  CD  
REMARK    8  A    between atoms: CD   and  CE  
ROOT
ATOM      7  CA  LYS A 135      33.193  34.663   9.290  1.00 25.02     0.186 C 
ENDROOT
BRANCH   7   8
ATOM      8  CB  LYS A 135      32.060  35.360  10.034  1.00 26.63     0.034 C 
BRANCH   8   9
ATOM      9  CG  LYS A 135      32.494  36.003  11.326  1.00 29.45     0.005 C 
BRANCH   9  10
ATOM     10  CD  LYS A 135      31.516  35.674  12.444  1.00 32.00     0.041 C 
BRANCH  10  11
ATOM     11  CE  LYS A 135      32.247  35.531  13.765  1.00 34.25     0.338 C 
ATOM     12  NZ  LYS A 135      33.590  34.917  13.572  1.00 35.99     0.618 N 
ENDBRANCH  10  11
ENDBRANCH   9  10
ENDBRANCH   8   9
ENDBRANCH   7   8
END_RES LYS A 135
