REMARK VINA RESULT:    -5.449      2.419      5.325
REMARK INTER + INTRA:         -15.558
REMARK INTER:                  -9.348
REMARK INTRA:                  -6.209
REMARK UNBOUND:                -5.490
REMARK SMILES CC(=O)N[C@@H]1[C@@H](O)C[C@](O)(C(=O)O)O[C@H]1C(O)[C@H](O)CNC(=O)OCc1cn(C(c2ccccc2)c2ccccc2)nn1
REMARK SMILES IDX 21 1 22 2 23 3 20 5 18 6 16 7 15 8 9 9 8 10 14 11 6 12 5 13
REMARK SMILES IDX 10 14 11 16 12 17 13 18 7 20 4 22 2 23 1 25 3 26 17 27 19 29
REMARK SMILES IDX 24 31 25 32 26 33 27 34 43 35 28 36 42 37 29 38 30 39 31 40
REMARK SMILES IDX 35 41 32 42 34 43 33 44 36 45 37 46 41 47 38 48 40 49 39 50
REMARK H PARENT 21 4 10 15 13 19 7 21 4 24 17 28 19 30
REMARK Flexibility Score: inf
ROOT
ATOM      1  N   UNL     1      27.467  31.581  17.248  1.00  0.00    -0.319 N 
ATOM      2  C   UNL     1      26.573  31.304  16.191  1.00  0.00     0.407 C 
ATOM      3  O   UNL     1      26.924  30.553  15.250  1.00  0.00    -0.225 OA
ATOM      4  H   UNL     1      27.147  32.210  18.012  1.00  0.00     0.167 HD
ENDROOT
BRANCH   1   5
ATOM      5  C   UNL     1      28.781  31.022  17.285  1.00  0.00     0.154 C 
BRANCH   5   6
ATOM      6  C   UNL     1      29.773  32.121  17.668  1.00  0.00     0.165 C 
BRANCH   6   7
ATOM      7  C   UNL     1      30.359  32.616  16.356  1.00  0.00     0.176 C 
BRANCH   7   8
ATOM      8  C   UNL     1      29.785  33.912  15.858  1.00  0.00     0.178 C 
ATOM      9  C   UNL     1      31.564  34.677  14.519  1.00  0.00     0.269 C 
ATOM     10  C   UNL     1      31.887  35.766  15.517  1.00  0.00     0.112 C 
ATOM     11  O   UNL     1      30.326  34.137  14.607  1.00  0.00    -0.332 OA
ATOM     12  C   UNL     1      31.413  35.447  16.904  1.00  0.00     0.145 C 
ATOM     13  C   UNL     1      29.976  35.031  16.802  1.00  0.00     0.142 C 
BRANCH   9  14
ATOM     14  O   UNL     1      32.504  33.670  14.749  1.00  0.00    -0.357 OA
ATOM     15  H   UNL     1      32.959  33.501  13.876  1.00  0.00     0.214 HD
ENDBRANCH   9  14
BRANCH   9  16
ATOM     16  C   UNL     1      31.842  35.209  13.135  1.00  0.00     0.364 C 
ATOM     17  O   UNL     1      32.338  36.326  12.960  1.00  0.00    -0.246 OA
BRANCH  16  18
ATOM     18  O   UNL     1      31.529  34.414  12.058  1.00  0.00    -0.477 OA
ATOM     19  H   UNL     1      31.125  33.485  12.225  1.00  0.00     0.296 HD
ENDBRANCH  16  18
ENDBRANCH   9  16
BRANCH  12  20
ATOM     20  O   UNL     1      32.244  34.506  17.441  1.00  0.00    -0.391 OA
ATOM     21  H   UNL     1      33.195  34.674  17.198  1.00  0.00     0.211 HD
ENDBRANCH  12  20
BRANCH  13  22
ATOM     22  N   UNL     1      29.217  36.223  16.373  1.00  0.00    -0.348 N 
ATOM     23  C   UNL     1      28.488  37.013  17.279  1.00  0.00     0.217 C 
ATOM     24  H   UNL     1      29.231  36.471  15.361  1.00  0.00     0.163 HD
ATOM     25  C   UNL     1      27.737  38.205  16.804  1.00  0.00     0.114 C 
ATOM     26  O   UNL     1      28.462  36.722  18.506  1.00  0.00    -0.275 OA
ENDBRANCH  13  22
ENDBRANCH   7   8
BRANCH   7  27
ATOM     27  O   UNL     1      30.000  31.593  15.403  1.00  0.00    -0.388 OA
ATOM     28  H   UNL     1      30.548  31.656  14.606  1.00  0.00     0.211 HD
ENDBRANCH   7  27
ENDBRANCH   6   7
BRANCH   6  29
ATOM     29  O   UNL     1      30.719  31.497  18.468  1.00  0.00    -0.388 OA
ATOM     30  H   UNL     1      31.635  31.613  18.147  1.00  0.00     0.211 HD
ENDBRANCH   6  29
ENDBRANCH   5   6
ENDBRANCH   1   5
BRANCH   2  31
ATOM     31  O   UNL     1      25.293  31.842  16.153  1.00  0.00    -0.443 OA
BRANCH  31  32
ATOM     32  C   UNL     1      25.142  33.235  16.182  1.00  0.00     0.294 C 
BRANCH  32  33
ATOM     33  C   UNL     1      25.416  33.778  14.826  1.00  0.00     0.120 A 
ATOM     34  C   UNL     1      26.592  34.428  14.441  1.00  0.00     0.139 A 
ATOM     35  N   UNL     1      24.656  33.784  13.718  1.00  0.00    -0.132 NA
ATOM     36  N   UNL     1      26.490  34.784  13.158  1.00  0.00    -0.240 N 
ATOM     37  N   UNL     1      25.317  34.389  12.738  1.00  0.00    -0.066 NA
BRANCH  36  38
ATOM     38  C   UNL     1      27.472  35.482  12.342  1.00  0.00     0.169 C 
BRANCH  38  39
ATOM     39  C   UNL     1      27.266  35.228  10.916  1.00  0.00    -0.019 A 
ATOM     40  C   UNL     1      26.627  36.152  10.081  1.00  0.00     0.006 A 
ATOM     41  C   UNL     1      27.726  34.056  10.350  1.00  0.00     0.006 A 
ATOM     42  C   UNL     1      26.462  35.894   8.738  1.00  0.00     0.000 A 
ATOM     43  C   UNL     1      27.548  33.822   9.001  1.00  0.00     0.000 A 
ATOM     44  C   UNL     1      26.919  34.723   8.168  1.00  0.00     0.000 A 
ENDBRANCH  38  39
BRANCH  38  45
ATOM     45  C   UNL     1      27.668  36.881  12.732  1.00  0.00    -0.019 A 
ATOM     46  C   UNL     1      28.965  37.409  12.862  1.00  0.00     0.006 A 
ATOM     47  C   UNL     1      26.591  37.700  12.970  1.00  0.00     0.006 A 
ATOM     48  C   UNL     1      29.153  38.719  13.218  1.00  0.00     0.000 A 
ATOM     49  C   UNL     1      26.796  39.035  13.334  1.00  0.00     0.000 A 
ATOM     50  C   UNL     1      28.071  39.537  13.456  1.00  0.00     0.000 A 
ENDBRANCH  38  45
ENDBRANCH  36  38
ENDBRANCH  32  33
ENDBRANCH  31  32
ENDBRANCH   2  31
TORSDOF 17
BEGIN_RES LYS A 131
REMARK  4 active torsions:
REMARK  status: ('A' for Active; 'I' for Inactive)
REMARK    1  A    between atoms: CA   and  CB  
REMARK    2  A    between atoms: CB   and  CG  
REMARK    3  A    between atoms: CG   and  CD  
REMARK    4  A    between atoms: CD   and  CE  
ROOT
ATOM      1  CA  LYS A 131      29.867  25.555  16.977  1.00 20.52     0.186 C 
ENDROOT
BRANCH   1   2
ATOM      2  CB  LYS A 131      28.345  25.722  17.026  1.00 20.94     0.034 C 
BRANCH   2   3
ATOM      3  CG  LYS A 131      27.601  24.401  16.907  1.00 22.96     0.005 C 
BRANCH   3   4
ATOM      4  CD  LYS A 131      26.156  24.526  17.301  1.00 24.33     0.041 C 
BRANCH   4   5
ATOM      5  CE  LYS A 131      25.954  23.935  18.692  1.00 26.91     0.338 C 
ATOM      6  NZ  LYS A 131      24.643  23.250  18.780  1.00 27.40     0.618 N 
ENDBRANCH   4   5
ENDBRANCH   3   4
ENDBRANCH   2   3
ENDBRANCH   1   2
END_RES LYS A 131
BEGIN_RES LYS A 135
REMARK  4 active torsions:
REMARK  status: ('A' for Active; 'I' for Inactive)
REMARK    5  A    between atoms: CA   and  CB  
REMARK    6  A    between atoms: CB   and  CG  
REMARK    7  A    between atoms: CG   and  CD  
REMARK    8  A    between atoms: CD   and  CE  
ROOT
ATOM      7  CA  LYS A 135      33.193  34.663   9.290  1.00 25.02     0.186 C 
ENDROOT
BRANCH   7   8
ATOM      8  CB  LYS A 135      32.060  35.360  10.034  1.00 26.63     0.034 C 
BRANCH   8   9
ATOM      9  CG  LYS A 135      30.808  35.522   9.211  1.00 29.45     0.005 C 
BRANCH   9  10
ATOM     10  CD  LYS A 135      30.268  36.939   9.328  1.00 32.00     0.041 C 
BRANCH  10  11
ATOM     11  CE  LYS A 135      31.311  37.858   9.936  1.00 34.25     0.338 C 
ATOM     12  NZ  LYS A 135      31.667  38.959   8.999  1.00 35.99     0.618 N 
ENDBRANCH  10  11
ENDBRANCH   9  10
ENDBRANCH   8   9
ENDBRANCH   7   8
END_RES LYS A 135
