REMARK VINA RESULT:    -5.039      5.325      9.305
REMARK INTER + INTRA:         -14.685
REMARK INTER:                  -7.561
REMARK INTRA:                  -7.124
REMARK UNBOUND:                -4.785
REMARK SMILES C=CCCCCn1cc(COC(=O)NC[C@@H](O)C(O)[C@@H]2O[C@@](O)(C(=O)O)C[C@H](O)[C@H]2NC(C)=O)nn1
REMARK SMILES IDX 11 1 12 2 14 3 13 5 15 6 16 7 18 8 20 9 22 10 27 11 21 12
REMARK SMILES IDX 28 13 30 14 23 15 24 17 25 18 26 19 29 21 31 23 32 24 33 26
REMARK SMILES IDX 34 27 19 28 17 30 10 32 9 33 8 34 35 35 7 36 36 37 6 38 5 39
REMARK SMILES IDX 4 40 3 41 2 42 1 43
REMARK H PARENT 14 4 23 16 26 20 29 22 31 25 19 29 17 31
REMARK Flexibility Score: inf
ROOT
ATOM      1  O   UNL     1      29.062  31.703  18.043  1.00  0.00    -0.443 OA
ENDROOT
BRANCH   1   2
ATOM      2  C   UNL     1      29.158  30.991  19.223  1.00  0.00     0.407 C 
ATOM      3  N   UNL     1      30.238  30.054  19.336  1.00  0.00    -0.319 N 
ATOM      4  H   UNL     1      30.892  29.955  18.537  1.00  0.00     0.167 HD
ATOM      5  O   UNL     1      28.328  31.152  20.174  1.00  0.00    -0.225 OA
BRANCH   3   6
ATOM      6  C   UNL     1      30.430  29.268  20.508  1.00  0.00     0.154 C 
BRANCH   6   7
ATOM      7  C   UNL     1      30.167  27.775  20.298  1.00  0.00     0.165 C 
BRANCH   7   8
ATOM      8  C   UNL     1      28.810  27.510  20.899  1.00  0.00     0.176 C 
BRANCH   8   9
ATOM      9  C   UNL     1      27.746  27.212  19.894  1.00  0.00     0.178 C 
ATOM     10  C   UNL     1      26.499  28.493  18.413  1.00  0.00     0.269 C 
ATOM     11  C   UNL     1      25.621  27.261  18.339  1.00  0.00     0.112 C 
ATOM     12  O   UNL     1      27.749  28.158  18.905  1.00  0.00    -0.332 OA
ATOM     13  C   UNL     1      25.258  26.880  19.756  1.00  0.00     0.145 C 
ATOM     14  C   UNL     1      26.420  27.202  20.667  1.00  0.00     0.142 C 
BRANCH  10  15
ATOM     15  O   UNL     1      25.890  29.501  19.154  1.00  0.00    -0.357 OA
ATOM     16  H   UNL     1      26.312  29.575  20.039  1.00  0.00     0.214 HD
ENDBRANCH  10  15
BRANCH  10  17
ATOM     17  C   UNL     1      26.646  29.001  17.026  1.00  0.00     0.364 C 
ATOM     18  O   UNL     1      27.764  29.089  16.456  1.00  0.00    -0.246 OA
BRANCH  17  19
ATOM     19  O   UNL     1      25.541  29.414  16.263  1.00  0.00    -0.477 OA
ATOM     20  H   UNL     1      25.710  30.097  15.528  1.00  0.00     0.296 HD
ENDBRANCH  17  19
ENDBRANCH  10  17
BRANCH  13  21
ATOM     21  O   UNL     1      24.180  27.642  20.164  1.00  0.00    -0.391 OA
ATOM     22  H   UNL     1      24.175  28.502  19.677  1.00  0.00     0.211 HD
ENDBRANCH  13  21
BRANCH  14  23
ATOM     23  N   UNL     1      26.545  26.234  21.742  1.00  0.00    -0.348 N 
ATOM     24  C   UNL     1      26.288  26.545  23.107  1.00  0.00     0.217 C 
ATOM     25  H   UNL     1      26.839  25.233  21.558  1.00  0.00     0.163 HD
ATOM     26  C   UNL     1      26.421  25.540  24.203  1.00  0.00     0.114 C 
ATOM     27  O   UNL     1      25.936  27.731  23.360  1.00  0.00    -0.275 OA
ENDBRANCH  14  23
ENDBRANCH   8   9
BRANCH   8  28
ATOM     28  O   UNL     1      28.508  28.634  21.686  1.00  0.00    -0.388 OA
ATOM     29  H   UNL     1      27.726  28.473  22.272  1.00  0.00     0.211 HD
ENDBRANCH   8  28
ENDBRANCH   7   8
BRANCH   7  30
ATOM     30  O   UNL     1      31.176  27.000  20.828  1.00  0.00    -0.388 OA
ATOM     31  H   UNL     1      31.881  26.747  20.210  1.00  0.00     0.211 HD
ENDBRANCH   7  30
ENDBRANCH   6   7
ENDBRANCH   3   6
ENDBRANCH   1   2
BRANCH   1  32
ATOM     32  C   UNL     1      28.412  32.946  18.015  1.00  0.00     0.294 C 
BRANCH  32  33
ATOM     33  C   UNL     1      27.089  32.725  17.343  1.00  0.00     0.120 A 
ATOM     34  C   UNL     1      26.847  32.999  16.007  1.00  0.00     0.138 A 
ATOM     35  N   UNL     1      25.941  32.257  17.832  1.00  0.00    -0.132 NA
ATOM     36  N   UNL     1      25.573  32.690  15.735  1.00  0.00    -0.252 N 
ATOM     37  N   UNL     1      25.047  32.243  16.859  1.00  0.00    -0.067 NA
BRANCH  36  38
ATOM     38  C   UNL     1      24.841  32.797  14.481  1.00  0.00     0.146 C 
BRANCH  38  39
ATOM     39  C   UNL     1      24.960  31.512  13.707  1.00  0.00     0.024 C 
BRANCH  39  40
ATOM     40  C   UNL     1      23.621  31.057  13.183  1.00  0.00     0.006 C 
BRANCH  40  41
ATOM     41  C   UNL     1      23.613  29.594  12.823  1.00  0.00     0.027 C 
BRANCH  41  42
ATOM     42  C   UNL     1      22.255  29.181  12.405  1.00  0.00    -0.035 C 
ATOM     43  C   UNL     1      21.241  30.016  12.346  1.00  0.00     0.004 C 
ENDBRANCH  41  42
ENDBRANCH  40  41
ENDBRANCH  39  40
ENDBRANCH  38  39
ENDBRANCH  36  38
ENDBRANCH  32  33
ENDBRANCH   1  32
TORSDOF 19
BEGIN_RES LYS A 131
REMARK  4 active torsions:
REMARK  status: ('A' for Active; 'I' for Inactive)
REMARK    1  A    between atoms: CA   and  CB  
REMARK    2  A    between atoms: CB   and  CG  
REMARK    3  A    between atoms: CG   and  CD  
REMARK    4  A    between atoms: CD   and  CE  
ROOT
ATOM      1  CA  LYS A 131      29.867  25.555  16.977  1.00 20.52     0.186 C 
ENDROOT
BRANCH   1   2
ATOM      2  CB  LYS A 131      28.345  25.722  17.026  1.00 20.94     0.034 C 
BRANCH   2   3
ATOM      3  CG  LYS A 131      27.599  24.443  16.680  1.00 22.96     0.005 C 
BRANCH   3   4
ATOM      4  CD  LYS A 131      26.867  23.876  17.865  1.00 24.33     0.041 C 
BRANCH   4   5
ATOM      5  CE  LYS A 131      25.404  23.647  17.498  1.00 26.91     0.338 C 
ATOM      6  NZ  LYS A 131      25.057  22.211  17.621  1.00 27.40     0.618 N 
ENDBRANCH   4   5
ENDBRANCH   3   4
ENDBRANCH   2   3
ENDBRANCH   1   2
END_RES LYS A 131
BEGIN_RES LYS A 135
REMARK  4 active torsions:
REMARK  status: ('A' for Active; 'I' for Inactive)
REMARK    5  A    between atoms: CA   and  CB  
REMARK    6  A    between atoms: CB   and  CG  
REMARK    7  A    between atoms: CG   and  CD  
REMARK    8  A    between atoms: CD   and  CE  
ROOT
ATOM      7  CA  LYS A 135      33.193  34.663   9.290  1.00 25.02     0.186 C 
ENDROOT
BRANCH   7   8
ATOM      8  CB  LYS A 135      32.060  35.360  10.034  1.00 26.63     0.034 C 
BRANCH   8   9
ATOM      9  CG  LYS A 135      30.713  34.719   9.819  1.00 29.45     0.005 C 
BRANCH   9  10
ATOM     10  CD  LYS A 135      30.426  34.559   8.334  1.00 32.00     0.041 C 
BRANCH  10  11
ATOM     11  CE  LYS A 135      28.995  34.955   8.023  1.00 34.25     0.338 C 
ATOM     12  NZ  LYS A 135      28.872  35.473   6.632  1.00 35.99     0.618 N 
ENDBRANCH  10  11
ENDBRANCH   9  10
ENDBRANCH   8   9
ENDBRANCH   7   8
END_RES LYS A 135
