REMARK VINA RESULT:    -4.699      4.742      8.459
REMARK INTER + INTRA:         -13.406
REMARK INTER:                  -8.017
REMARK INTRA:                  -5.389
REMARK UNBOUND:                -5.272
REMARK SMILES CC(=O)N[C@@H]1[C@@H](O)C[C@](O)(C(=O)O)O[C@H]1C(O)[C@H](O)CNC(=O)OCc1cn(-c2ccncc2)nn1
REMARK SMILES IDX 20 1 18 2 16 3 15 4 9 5 8 6 14 7 6 8 5 9 10 10 11 12 12 13
REMARK SMILES IDX 13 14 7 16 4 18 2 19 1 21 3 22 17 23 19 25 21 27 22 28 23 30
REMARK SMILES IDX 24 31 25 32 26 33 27 34 36 35 28 36 35 37 29 38 30 39 34 40
REMARK SMILES IDX 31 41 33 42 32 43
REMARK H PARENT 10 11 13 15 7 17 4 20 17 24 19 26 21 29
REMARK Flexibility Score: inf
ROOT
ATOM      1  C   UNL     1      27.066  35.568  16.959  1.00  0.00     0.154 C 
ENDROOT
BRANCH   1   2
ATOM      2  C   UNL     1      26.459  34.457  16.178  1.00  0.00     0.165 C 
BRANCH   2   3
ATOM      3  C   UNL     1      27.466  33.751  15.285  1.00  0.00     0.176 C 
BRANCH   3   4
ATOM      4  C   UNL     1      28.763  33.472  15.956  1.00  0.00     0.178 C 
ATOM      5  C   UNL     1      31.044  33.299  15.651  1.00  0.00     0.269 C 
ATOM      6  C   UNL     1      31.042  32.870  17.097  1.00  0.00     0.112 C 
ATOM      7  O   UNL     1      29.863  33.857  15.242  1.00  0.00    -0.332 OA
ATOM      8  C   UNL     1      29.924  31.917  17.419  1.00  0.00     0.145 C 
ATOM      9  C   UNL     1      28.917  31.997  16.288  1.00  0.00     0.142 C 
BRANCH   5  10
ATOM     10  O   UNL     1      31.445  32.267  14.803  1.00  0.00    -0.357 OA
ATOM     11  H   UNL     1      31.736  32.609  13.916  1.00  0.00     0.214 HD
ENDBRANCH   5  10
BRANCH   5  12
ATOM     12  C   UNL     1      32.098  34.367  15.532  1.00  0.00     0.364 C 
ATOM     13  O   UNL     1      33.045  34.304  14.733  1.00  0.00    -0.246 OA
BRANCH  12  14
ATOM     14  O   UNL     1      31.953  35.457  16.386  1.00  0.00    -0.477 OA
ATOM     15  H   UNL     1      31.745  36.378  16.011  1.00  0.00     0.296 HD
ENDBRANCH  12  14
ENDBRANCH   5  12
BRANCH   8  16
ATOM     16  O   UNL     1      30.379  30.608  17.571  1.00  0.00    -0.391 OA
ATOM     17  H   UNL     1      31.354  30.578  17.416  1.00  0.00     0.211 HD
ENDBRANCH   8  16
BRANCH   9  18
ATOM     18  N   UNL     1      27.659  31.386  16.647  1.00  0.00    -0.348 N 
ATOM     19  C   UNL     1      27.384  30.032  16.312  1.00  0.00     0.217 C 
ATOM     20  H   UNL     1      26.924  31.912  17.154  1.00  0.00     0.163 HD
ATOM     21  C   UNL     1      26.091  29.368  16.669  1.00  0.00     0.114 C 
ATOM     22  O   UNL     1      28.259  29.371  15.696  1.00  0.00    -0.275 OA
ENDBRANCH   9  18
ENDBRANCH   3   4
BRANCH   3  23
ATOM     23  O   UNL     1      27.536  34.342  14.051  1.00  0.00    -0.388 OA
ATOM     24  H   UNL     1      28.434  34.169  13.657  1.00  0.00     0.211 HD
ENDBRANCH   3  23
ENDBRANCH   2   3
BRANCH   2  25
ATOM     25  O   UNL     1      25.441  34.873  15.340  1.00  0.00    -0.388 OA
ATOM     26  H   UNL     1      24.814  35.506  15.757  1.00  0.00     0.211 HD
ENDBRANCH   2  25
ENDBRANCH   1   2
BRANCH   1  27
ATOM     27  N   UNL     1      27.155  36.768  16.177  1.00  0.00    -0.319 N 
ATOM     28  C   UNL     1      28.308  37.415  15.716  1.00  0.00     0.407 C 
ATOM     29  H   UNL     1      26.229  37.246  15.900  1.00  0.00     0.167 HD
ATOM     30  O   UNL     1      29.428  36.974  15.974  1.00  0.00    -0.225 OA
BRANCH  28  31
ATOM     31  O   UNL     1      28.259  38.590  14.942  1.00  0.00    -0.443 OA
BRANCH  31  32
ATOM     32  C   UNL     1      27.050  38.921  14.250  1.00  0.00     0.294 C 
BRANCH  32  33
ATOM     33  C   UNL     1      26.743  37.927  13.218  1.00  0.00     0.121 A 
ATOM     34  C   UNL     1      27.234  37.814  11.937  1.00  0.00     0.144 A 
ATOM     35  N   UNL     1      25.877  36.904  13.370  1.00  0.00    -0.131 NA
ATOM     36  N   UNL     1      26.645  36.732  11.379  1.00  0.00    -0.220 N 
ATOM     37  N   UNL     1      25.830  36.191  12.249  1.00  0.00    -0.062 NA
BRANCH  36  38
ATOM     38  C   UNL     1      26.856  36.233  10.057  1.00  0.00     0.069 A 
ATOM     39  C   UNL     1      27.494  37.036   9.143  1.00  0.00     0.048 A 
ATOM     40  C   UNL     1      26.420  34.961   9.708  1.00  0.00     0.048 A 
ATOM     41  C   UNL     1      27.689  36.540   7.872  1.00  0.00     0.113 A 
ATOM     42  C   UNL     1      26.638  34.514   8.437  1.00  0.00     0.113 A 
ATOM     43  N   UNL     1      27.266  35.311   7.548  1.00  0.00    -0.265 NA
ENDBRANCH  36  38
ENDBRANCH  32  33
ENDBRANCH  31  32
ENDBRANCH  28  31
ENDBRANCH   1  27
TORSDOF 15
BEGIN_RES LYS A 131
REMARK  4 active torsions:
REMARK  status: ('A' for Active; 'I' for Inactive)
REMARK    1  A    between atoms: CA   and  CB  
REMARK    2  A    between atoms: CB   and  CG  
REMARK    3  A    between atoms: CG   and  CD  
REMARK    4  A    between atoms: CD   and  CE  
ROOT
ATOM      1  CA  LYS A 131      29.867  25.555  16.977  1.00 20.52     0.186 C 
ENDROOT
BRANCH   1   2
ATOM      2  CB  LYS A 131      28.345  25.722  17.026  1.00 20.94     0.034 C 
BRANCH   2   3
ATOM      3  CG  LYS A 131      27.601  24.401  16.900  1.00 22.96     0.005 C 
BRANCH   3   4
ATOM      4  CD  LYS A 131      26.500  24.272  17.915  1.00 24.33     0.041 C 
BRANCH   4   5
ATOM      5  CE  LYS A 131      25.163  24.601  17.261  1.00 26.91     0.338 C 
ATOM      6  NZ  LYS A 131      24.691  25.940  17.689  1.00 27.40     0.618 N 
ENDBRANCH   4   5
ENDBRANCH   3   4
ENDBRANCH   2   3
ENDBRANCH   1   2
END_RES LYS A 131
BEGIN_RES LYS A 135
REMARK  4 active torsions:
REMARK  status: ('A' for Active; 'I' for Inactive)
REMARK    5  A    between atoms: CA   and  CB  
REMARK    6  A    between atoms: CB   and  CG  
REMARK    7  A    between atoms: CG   and  CD  
REMARK    8  A    between atoms: CD   and  CE  
ROOT
ATOM      7  CA  LYS A 135      33.193  34.663   9.290  1.00 25.02     0.186 C 
ENDROOT
BRANCH   7   8
ATOM      8  CB  LYS A 135      32.060  35.360  10.034  1.00 26.63     0.034 C 
BRANCH   8   9
ATOM      9  CG  LYS A 135      30.691  34.864   9.648  1.00 29.45     0.005 C 
BRANCH   9  10
ATOM     10  CD  LYS A 135      29.818  34.682  10.880  1.00 32.00     0.041 C 
BRANCH  10  11
ATOM     11  CE  LYS A 135      30.633  34.883  12.144  1.00 34.25     0.338 C 
ATOM     12  NZ  LYS A 135      30.222  36.126  12.855  1.00 35.99     0.618 N 
ENDBRANCH  10  11
ENDBRANCH   9  10
ENDBRANCH   8   9
ENDBRANCH   7   8
END_RES LYS A 135
