REMARK VINA RESULT:    -5.255      2.384      5.821
REMARK INTER + INTRA:         -16.851
REMARK INTER:                  -7.426
REMARK INTRA:                  -9.425
REMARK UNBOUND:                -5.759
REMARK SMILES CC(=O)N[C@@H]1[C@@H](O)C[C@](O)(C(=O)O)O[C@H]1C(O)[C@H](O)CNC(=O)OCc1cn(CC(=O)NCC(O)Cn2ccnc2[N+](=O)[O-])nn1
REMARK SMILES IDX 25 1 24 2 22 3 21 4 23 6 20 7 18 8 16 9 15 10 9 11 8 12
REMARK SMILES IDX 14 13 6 14 5 15 10 16 11 18 12 19 13 20 7 22 4 24 2 25 1 27
REMARK SMILES IDX 3 28 17 29 19 31 26 33 27 34 46 35 28 36 45 37 29 38 30 39
REMARK SMILES IDX 31 40 32 41 33 43 34 44 35 45 36 47 37 48 38 49 41 50 39 51
REMARK SMILES IDX 40 52 42 53 43 54 44 55
REMARK H PARENT 21 5 10 17 13 21 7 23 4 26 17 30 19 32 32 42 35 46
REMARK Flexibility Score: inf
ROOT
ATOM      1  C   UNL     1      26.539  36.516  14.824  1.00  0.00     0.294 C 
ENDROOT
BRANCH   1   2
ATOM      2  O   UNL     1      25.667  36.931  13.791  1.00  0.00    -0.443 OA
BRANCH   2   3
ATOM      3  C   UNL     1      25.249  36.061  12.799  1.00  0.00     0.407 C 
ATOM      4  N   UNL     1      25.644  36.248  11.430  1.00  0.00    -0.319 N 
ATOM      5  H   UNL     1      26.249  37.072  11.237  1.00  0.00     0.167 HD
ATOM      6  O   UNL     1      24.518  35.107  13.116  1.00  0.00    -0.225 OA
BRANCH   4   7
ATOM      7  C   UNL     1      25.250  35.378  10.376  1.00  0.00     0.154 C 
BRANCH   7   8
ATOM      8  C   UNL     1      24.556  36.049   9.243  1.00  0.00     0.165 C 
BRANCH   8   9
ATOM      9  C   UNL     1      24.562  37.550   9.480  1.00  0.00     0.176 C 
BRANCH   9  10
ATOM     10  C   UNL     1      24.376  38.337   8.223  1.00  0.00     0.178 C 
ATOM     11  C   UNL     1      25.378  40.430   8.428  1.00  0.00     0.269 C 
ATOM     12  C   UNL     1      24.267  41.200   7.729  1.00  0.00     0.112 C 
ATOM     13  O   UNL     1      25.462  39.139   7.986  1.00  0.00    -0.332 OA
ATOM     14  C   UNL     1      23.257  40.221   7.145  1.00  0.00     0.145 C 
ATOM     15  C   UNL     1      23.099  39.111   8.192  1.00  0.00     0.142 C 
BRANCH  11  16
ATOM     16  O   UNL     1      25.063  40.443   9.775  1.00  0.00    -0.357 OA
ATOM     17  H   UNL     1      25.884  40.495  10.327  1.00  0.00     0.214 HD
ENDBRANCH  11  16
BRANCH  11  18
ATOM     18  C   UNL     1      26.692  41.102   8.257  1.00  0.00     0.364 C 
ATOM     19  O   UNL     1      27.186  41.318   7.114  1.00  0.00    -0.246 OA
BRANCH  18  20
ATOM     20  O   UNL     1      27.429  41.520   9.352  1.00  0.00    -0.477 OA
ATOM     21  H   UNL     1      28.426  41.640   9.375  1.00  0.00     0.296 HD
ENDBRANCH  18  20
ENDBRANCH  11  18
BRANCH  14  22
ATOM     22  O   UNL     1      22.070  40.905   6.959  1.00  0.00    -0.391 OA
ATOM     23  H   UNL     1      21.900  41.587   7.647  1.00  0.00     0.211 HD
ENDBRANCH  14  22
BRANCH  15  24
ATOM     24  N   UNL     1      21.965  38.268   7.836  1.00  0.00    -0.348 N 
ATOM     25  C   UNL     1      20.857  38.196   8.703  1.00  0.00     0.217 C 
ATOM     26  H   UNL     1      21.986  37.734   6.965  1.00  0.00     0.163 HD
ATOM     27  C   UNL     1      19.661  37.336   8.373  1.00  0.00     0.114 C 
ATOM     28  O   UNL     1      20.783  38.824   9.786  1.00  0.00    -0.275 OA
ENDBRANCH  15  24
ENDBRANCH   9  10
BRANCH   9  29
ATOM     29  O   UNL     1      23.595  37.917  10.403  1.00  0.00    -0.388 OA
ATOM     30  H   UNL     1      23.946  38.435  11.149  1.00  0.00     0.211 HD
ENDBRANCH   9  29
ENDBRANCH   8   9
BRANCH   8  31
ATOM     31  O   UNL     1      23.253  35.630   9.031  1.00  0.00    -0.388 OA
ATOM     32  H   UNL     1      22.583  36.247   9.433  1.00  0.00     0.211 HD
ENDBRANCH   8  31
ENDBRANCH   7   8
ENDBRANCH   4   7
ENDBRANCH   2   3
ENDBRANCH   1   2
BRANCH   1  33
ATOM     33  C   UNL     1      27.828  37.200  14.558  1.00  0.00     0.120 A 
ATOM     34  C   UNL     1      29.062  36.603  14.695  1.00  0.00     0.138 A 
ATOM     35  N   UNL     1      28.103  38.451  14.162  1.00  0.00    -0.132 NA
ATOM     36  N   UNL     1      30.051  37.496  14.382  1.00  0.00    -0.243 N 
ATOM     37  N   UNL     1      29.436  38.608  14.063  1.00  0.00    -0.067 NA
BRANCH  36  38
ATOM     38  C   UNL     1      31.452  37.142  14.447  1.00  0.00     0.245 C 
BRANCH  38  39
ATOM     39  C   UNL     1      31.908  36.962  13.011  1.00  0.00     0.241 C 
ATOM     40  O   UNL     1      32.601  35.971  12.694  1.00  0.00    -0.273 OA
ATOM     41  N   UNL     1      31.581  37.875  12.006  1.00  0.00    -0.352 N 
ATOM     42  H   UNL     1      30.959  38.694  12.368  1.00  0.00     0.163 HD
BRANCH  41  43
ATOM     43  C   UNL     1      31.933  37.893  10.634  1.00  0.00     0.151 C 
BRANCH  43  44
ATOM     44  C   UNL     1      31.906  39.141   9.875  1.00  0.00     0.168 C 
BRANCH  44  45
ATOM     45  O   UNL     1      32.907  39.201   8.869  1.00  0.00    -0.388 OA
ATOM     46  H   UNL     1      33.072  38.292   8.520  1.00  0.00     0.211 HD
ENDBRANCH  44  45
BRANCH  44  47
ATOM     47  C   UNL     1      30.644  39.806   9.511  1.00  0.00     0.239 C 
BRANCH  47  48
ATOM     48  N   UNL     1      29.802  39.015   8.634  1.00  0.00    -0.227 N 
ATOM     49  C   UNL     1      29.912  38.949   7.282  1.00  0.00     0.204 A 
ATOM     50  C   UNL     1      28.771  38.240   9.015  1.00  0.00     0.434 A 
ATOM     51  C   UNL     1      28.908  38.104   6.847  1.00  0.00     0.245 A 
ATOM     52  N   UNL     1      28.214  37.674   7.902  1.00  0.00    -0.074 NA
BRANCH  50  53
ATOM     53  N   UNL     1      28.275  37.989  10.318  1.00  0.00    -0.047 N 
ATOM     54  O   UNL     1      27.442  38.813  10.798  1.00  0.00    -0.390 OA
ATOM     55  O   UNL     1      28.606  36.946  11.116  1.00  0.00    -0.390 OA
ENDBRANCH  50  53
ENDBRANCH  47  48
ENDBRANCH  44  47
ENDBRANCH  43  44
ENDBRANCH  41  43
ENDBRANCH  38  39
ENDBRANCH  36  38
ENDBRANCH   1  33
TORSDOF 22
BEGIN_RES LYS A 131
REMARK  4 active torsions:
REMARK  status: ('A' for Active; 'I' for Inactive)
REMARK    1  A    between atoms: CA   and  CB  
REMARK    2  A    between atoms: CB   and  CG  
REMARK    3  A    between atoms: CG   and  CD  
REMARK    4  A    between atoms: CD   and  CE  
ROOT
ATOM      1  CA  LYS A 131      29.867  25.555  16.977  1.00 20.52     0.186 C 
ENDROOT
BRANCH   1   2
ATOM      2  CB  LYS A 131      28.345  25.722  17.026  1.00 20.94     0.034 C 
BRANCH   2   3
ATOM      3  CG  LYS A 131      27.601  24.401  16.902  1.00 22.96     0.005 C 
BRANCH   3   4
ATOM      4  CD  LYS A 131      26.163  24.519  17.323  1.00 24.33     0.041 C 
BRANCH   4   5
ATOM      5  CE  LYS A 131      26.088  25.134  18.717  1.00 26.91     0.338 C 
ATOM      6  NZ  LYS A 131      25.457  24.189  19.667  1.00 27.40     0.618 N 
ENDBRANCH   4   5
ENDBRANCH   3   4
ENDBRANCH   2   3
ENDBRANCH   1   2
END_RES LYS A 131
BEGIN_RES LYS A 135
REMARK  4 active torsions:
REMARK  status: ('A' for Active; 'I' for Inactive)
REMARK    5  A    between atoms: CA   and  CB  
REMARK    6  A    between atoms: CB   and  CG  
REMARK    7  A    between atoms: CG   and  CD  
REMARK    8  A    between atoms: CD   and  CE  
ROOT
ATOM      7  CA  LYS A 135      33.193  34.663   9.290  1.00 25.02     0.186 C 
ENDROOT
BRANCH   7   8
ATOM      8  CB  LYS A 135      32.060  35.360  10.034  1.00 26.63     0.034 C 
BRANCH   8   9
ATOM      9  CG  LYS A 135      30.744  34.631   9.947  1.00 29.45     0.005 C 
BRANCH   9  10
ATOM     10  CD  LYS A 135      30.313  34.472   8.497  1.00 32.00     0.041 C 
BRANCH  10  11
ATOM     11  CE  LYS A 135      28.802  34.386   8.397  1.00 34.25     0.338 C 
ATOM     12  NZ  LYS A 135      28.228  33.657   9.563  1.00 35.99     0.618 N 
ENDBRANCH  10  11
ENDBRANCH   9  10
ENDBRANCH   8   9
ENDBRANCH   7   8
END_RES LYS A 135
