REMARK VINA RESULT:    -5.225      2.320      6.574
REMARK INTER + INTRA:         -16.788
REMARK INTER:                  -9.088
REMARK INTRA:                  -7.700
REMARK UNBOUND:                -5.759
REMARK SMILES CC(=O)N[C@@H]1[C@@H](O)C[C@](O)(C(=O)O)O[C@H]1C(O)[C@H](O)CNC(=O)OCc1cn(CC(=O)NCC(O)Cn2ccnc2[N+](=O)[O-])nn1
REMARK SMILES IDX 25 1 24 2 22 3 21 4 23 6 20 7 18 8 16 9 15 10 9 11 8 12
REMARK SMILES IDX 14 13 6 14 5 15 10 16 11 18 12 19 13 20 7 22 4 24 2 25 1 27
REMARK SMILES IDX 3 28 17 29 19 31 26 33 27 34 46 35 28 36 45 37 29 38 30 39
REMARK SMILES IDX 31 40 32 41 33 43 34 44 35 45 36 47 37 48 38 49 41 50 39 51
REMARK SMILES IDX 40 52 42 53 43 54 44 55
REMARK H PARENT 21 5 10 17 13 21 7 23 4 26 17 30 19 32 32 42 35 46
REMARK Flexibility Score: inf
ROOT
ATOM      1  C   UNL     1      23.726  34.480  12.148  1.00  0.00     0.294 C 
ENDROOT
BRANCH   1   2
ATOM      2  O   UNL     1      23.108  35.751  12.166  1.00  0.00    -0.443 OA
BRANCH   2   3
ATOM      3  C   UNL     1      22.597  36.327  11.017  1.00  0.00     0.407 C 
ATOM      4  N   UNL     1      23.440  36.616   9.889  1.00  0.00    -0.319 N 
ATOM      5  H   UNL     1      24.445  36.374   9.996  1.00  0.00     0.167 HD
ATOM      6  O   UNL     1      21.384  36.595  10.977  1.00  0.00    -0.225 OA
BRANCH   4   7
ATOM      7  C   UNL     1      22.961  37.199   8.683  1.00  0.00     0.154 C 
BRANCH   7   8
ATOM      8  C   UNL     1      24.001  37.406   7.637  1.00  0.00     0.165 C 
BRANCH   8   9
ATOM      9  C   UNL     1      25.369  37.138   8.242  1.00  0.00     0.176 C 
BRANCH   9  10
ATOM     10  C   UNL     1      26.331  36.548   7.262  1.00  0.00     0.178 C 
ATOM     11  C   UNL     1      28.125  35.572   8.384  1.00  0.00     0.269 C 
ATOM     12  C   UNL     1      29.193  36.056   7.414  1.00  0.00     0.112 C 
ATOM     13  O   UNL     1      26.912  35.416   7.773  1.00  0.00    -0.332 OA
ATOM     14  C   UNL     1      28.529  36.714   6.212  1.00  0.00     0.145 C 
ATOM     15  C   UNL     1      27.353  37.522   6.775  1.00  0.00     0.142 C 
BRANCH  11  16
ATOM     16  O   UNL     1      28.031  36.541   9.366  1.00  0.00    -0.357 OA
ATOM     17  H   UNL     1      27.089  36.816   9.500  1.00  0.00     0.214 HD
ENDBRANCH  11  16
BRANCH  11  18
ATOM     18  C   UNL     1      28.523  34.296   9.034  1.00  0.00     0.364 C 
ATOM     19  O   UNL     1      29.708  33.861   8.976  1.00  0.00    -0.246 OA
BRANCH  18  20
ATOM     20  O   UNL     1      27.604  33.533   9.734  1.00  0.00    -0.477 OA
ATOM     21  H   UNL     1      26.605  33.620   9.675  1.00  0.00     0.296 HD
ENDBRANCH  18  20
ENDBRANCH  11  18
BRANCH  14  22
ATOM     22  O   UNL     1      29.465  37.542   5.618  1.00  0.00    -0.391 OA
ATOM     23  H   UNL     1      30.317  37.091   5.424  1.00  0.00     0.211 HD
ENDBRANCH  14  22
BRANCH  15  24
ATOM     24  N   UNL     1      26.818  38.388   5.733  1.00  0.00    -0.348 N 
ATOM     25  C   UNL     1      27.170  39.753   5.718  1.00  0.00     0.217 C 
ATOM     26  H   UNL     1      26.190  38.000   5.025  1.00  0.00     0.163 HD
ATOM     27  C   UNL     1      26.639  40.685   4.656  1.00  0.00     0.114 C 
ATOM     28  O   UNL     1      27.929  40.280   6.565  1.00  0.00    -0.275 OA
ENDBRANCH  15  24
ENDBRANCH   9  10
BRANCH   9  29
ATOM     29  O   UNL     1      25.912  38.291   8.786  1.00  0.00    -0.388 OA
ATOM     30  H   UNL     1      25.692  38.419   9.726  1.00  0.00     0.211 HD
ENDBRANCH   9  29
ENDBRANCH   8   9
BRANCH   8  31
ATOM     31  O   UNL     1      24.000  38.665   7.060  1.00  0.00    -0.388 OA
ATOM     32  H   UNL     1      23.180  38.839   6.524  1.00  0.00     0.211 HD
ENDBRANCH   8  31
ENDBRANCH   7   8
ENDBRANCH   4   7
ENDBRANCH   2   3
ENDBRANCH   1   2
BRANCH   1  33
ATOM     33  C   UNL     1      25.179  34.737  12.302  1.00  0.00     0.120 A 
ATOM     34  C   UNL     1      25.926  34.324  13.383  1.00  0.00     0.138 A 
ATOM     35  N   UNL     1      26.054  35.379  11.514  1.00  0.00    -0.132 NA
ATOM     36  N   UNL     1      27.228  34.720  13.230  1.00  0.00    -0.243 N 
ATOM     37  N   UNL     1      27.272  35.357  12.086  1.00  0.00    -0.067 NA
BRANCH  36  38
ATOM     38  C   UNL     1      28.239  34.429  14.222  1.00  0.00     0.245 C 
BRANCH  38  39
ATOM     39  C   UNL     1      28.655  35.766  14.806  1.00  0.00     0.241 C 
ATOM     40  O   UNL     1      28.650  35.937  16.044  1.00  0.00    -0.273 OA
ATOM     41  N   UNL     1      29.053  36.837  14.002  1.00  0.00    -0.352 N 
ATOM     42  H   UNL     1      29.048  36.591  12.940  1.00  0.00     0.163 HD
BRANCH  41  43
ATOM     43  C   UNL     1      29.444  38.152  14.356  1.00  0.00     0.151 C 
BRANCH  43  44
ATOM     44  C   UNL     1      30.049  39.039  13.366  1.00  0.00     0.168 C 
BRANCH  44  45
ATOM     45  O   UNL     1      31.264  39.624  13.813  1.00  0.00    -0.388 OA
ATOM     46  H   UNL     1      31.092  40.553  14.100  1.00  0.00     0.211 HD
ENDBRANCH  44  45
BRANCH  44  47
ATOM     47  C   UNL     1      30.019  38.737  11.926  1.00  0.00     0.239 C 
BRANCH  47  48
ATOM     48  N   UNL     1      29.491  39.819  11.115  1.00  0.00    -0.227 N 
ATOM     49  C   UNL     1      28.188  39.989  10.776  1.00  0.00     0.204 A 
ATOM     50  C   UNL     1      30.209  40.810  10.557  1.00  0.00     0.434 A 
ATOM     51  C   UNL     1      28.132  41.123   9.987  1.00  0.00     0.245 A 
ATOM     52  N   UNL     1      29.363  41.621   9.853  1.00  0.00    -0.074 NA
BRANCH  50  53
ATOM     53  N   UNL     1      31.603  41.056  10.630  1.00  0.00    -0.047 N 
ATOM     54  O   UNL     1      32.300  40.787   9.607  1.00  0.00    -0.390 OA
ATOM     55  O   UNL     1      32.275  41.553  11.694  1.00  0.00    -0.390 OA
ENDBRANCH  50  53
ENDBRANCH  47  48
ENDBRANCH  44  47
ENDBRANCH  43  44
ENDBRANCH  41  43
ENDBRANCH  38  39
ENDBRANCH  36  38
ENDBRANCH   1  33
TORSDOF 22
BEGIN_RES LYS A 131
REMARK  4 active torsions:
REMARK  status: ('A' for Active; 'I' for Inactive)
REMARK    1  A    between atoms: CA   and  CB  
REMARK    2  A    between atoms: CB   and  CG  
REMARK    3  A    between atoms: CG   and  CD  
REMARK    4  A    between atoms: CD   and  CE  
ROOT
ATOM      1  CA  LYS A 131      29.867  25.555  16.977  1.00 20.52     0.186 C 
ENDROOT
BRANCH   1   2
ATOM      2  CB  LYS A 131      28.345  25.722  17.026  1.00 20.94     0.034 C 
BRANCH   2   3
ATOM      3  CG  LYS A 131      27.600  24.415  16.801  1.00 22.96     0.005 C 
BRANCH   3   4
ATOM      4  CD  LYS A 131      26.851  23.972  18.028  1.00 24.33     0.041 C 
BRANCH   4   5
ATOM      5  CE  LYS A 131      25.589  23.223  17.611  1.00 26.91     0.338 C 
ATOM      6  NZ  LYS A 131      24.651  24.135  16.915  1.00 27.40     0.618 N 
ENDBRANCH   4   5
ENDBRANCH   3   4
ENDBRANCH   2   3
ENDBRANCH   1   2
END_RES LYS A 131
BEGIN_RES LYS A 135
REMARK  4 active torsions:
REMARK  status: ('A' for Active; 'I' for Inactive)
REMARK    5  A    between atoms: CA   and  CB  
REMARK    6  A    between atoms: CB   and  CG  
REMARK    7  A    between atoms: CG   and  CD  
REMARK    8  A    between atoms: CD   and  CE  
ROOT
ATOM      7  CA  LYS A 135      33.193  34.663   9.290  1.00 25.02     0.186 C 
ENDROOT
BRANCH   7   8
ATOM      8  CB  LYS A 135      32.060  35.360  10.034  1.00 26.63     0.034 C 
BRANCH   8   9
ATOM      9  CG  LYS A 135      32.466  35.901  11.380  1.00 29.45     0.005 C 
BRANCH   9  10
ATOM     10  CD  LYS A 135      31.621  35.284  12.484  1.00 32.00     0.041 C 
BRANCH  10  11
ATOM     11  CE  LYS A 135      32.326  35.399  13.822  1.00 34.25     0.338 C 
ATOM     12  NZ  LYS A 135      33.706  34.844  13.751  1.00 35.99     0.618 N 
ENDBRANCH  10  11
ENDBRANCH   9  10
ENDBRANCH   8   9
ENDBRANCH   7   8
END_RES LYS A 135
