REMARK VINA RESULT:    -4.745      3.349      7.457
REMARK INTER + INTRA:         -14.715
REMARK INTER:                  -9.044
REMARK INTRA:                  -5.671
REMARK UNBOUND:                -5.671
REMARK SMILES CCOC(=O)c1cccc(-n2cc(COC(=O)NC[C@@H](O)C(O)[C@@H]3O[C@@](O)(C(=O)O)C[C@H](O)[C@H]3NC(C)=O)nn2)c1
REMARK SMILES IDX 18 1 16 2 17 3 19 5 20 6 22 7 24 8 26 9 31 10 25 11 32 12
REMARK SMILES IDX 34 13 27 14 28 16 29 17 30 18 33 20 35 22 36 23 37 25 38 26
REMARK SMILES IDX 23 27 21 29 15 31 14 32 13 33 12 34 39 35 11 36 40 37 10 38
REMARK SMILES IDX 41 39 9 40 6 41 8 42 7 43 4 44 5 45 3 46 2 47 1 48
REMARK H PARENT 18 4 27 15 30 19 33 21 35 24 23 28 21 30
REMARK Flexibility Score: inf
ROOT
ATOM      1  N   UNL     1      30.572  35.549  13.345  1.00  0.00    -0.319 N 
ATOM      2  C   UNL     1      30.309  36.864  13.815  1.00  0.00     0.407 C 
ATOM      3  O   UNL     1      30.536  37.124  15.022  1.00  0.00    -0.225 OA
ATOM      4  H   UNL     1      30.377  35.355  12.342  1.00  0.00     0.167 HD
ENDROOT
BRANCH   1   5
ATOM      5  C   UNL     1      31.088  34.520  14.224  1.00  0.00     0.154 C 
BRANCH   5   6
ATOM      6  C   UNL     1      30.173  33.347  14.346  1.00  0.00     0.165 C 
BRANCH   6   7
ATOM      7  C   UNL     1      28.912  33.641  15.092  1.00  0.00     0.176 C 
BRANCH   7   8
ATOM      8  C   UNL     1      28.478  32.409  15.928  1.00  0.00     0.178 C 
ATOM      9  C   UNL     1      26.858  30.837  16.086  1.00  0.00     0.269 C 
ATOM     10  C   UNL     1      26.393  31.304  17.447  1.00  0.00     0.112 C 
ATOM     11  O   UNL     1      27.328  31.903  15.384  1.00  0.00    -0.332 OA
ATOM     12  C   UNL     1      27.473  31.997  18.220  1.00  0.00     0.145 C 
ATOM     13  C   UNL     1      28.423  32.783  17.363  1.00  0.00     0.142 C 
BRANCH   9  14
ATOM     14  O   UNL     1      25.673  30.408  15.425  1.00  0.00    -0.357 OA
ATOM     15  H   UNL     1      25.757  29.504  15.073  1.00  0.00     0.214 HD
ENDBRANCH   9  14
BRANCH   9  16
ATOM     16  C   UNL     1      27.750  29.675  16.203  1.00  0.00     0.364 C 
ATOM     17  O   UNL     1      27.477  28.653  16.920  1.00  0.00    -0.246 OA
BRANCH  16  18
ATOM     18  O   UNL     1      28.963  29.693  15.488  1.00  0.00    -0.477 OA
ATOM     19  H   UNL     1      29.093  28.971  14.770  1.00  0.00     0.296 HD
ENDBRANCH  16  18
ENDBRANCH   9  16
BRANCH  12  20
ATOM     20  O   UNL     1      26.881  32.796  19.196  1.00  0.00    -0.391 OA
ATOM     21  H   UNL     1      27.018  32.444  20.112  1.00  0.00     0.211 HD
ENDBRANCH  12  20
BRANCH  13  22
ATOM     22  N   UNL     1      29.765  32.787  17.916  1.00  0.00    -0.348 N 
ATOM     23  C   UNL     1      30.164  33.714  18.914  1.00  0.00     0.217 C 
ATOM     24  H   UNL     1      30.455  32.065  17.551  1.00  0.00     0.163 HD
ATOM     25  C   UNL     1      31.556  33.657  19.432  1.00  0.00     0.114 C 
ATOM     26  O   UNL     1      29.348  34.587  19.368  1.00  0.00    -0.275 OA
ENDBRANCH  13  22
ENDBRANCH   7   8
BRANCH   7  27
ATOM     27  O   UNL     1      28.972  34.719  15.939  1.00  0.00    -0.388 OA
ATOM     28  H   UNL     1      28.843  35.590  15.522  1.00  0.00     0.211 HD
ENDBRANCH   7  27
ENDBRANCH   6   7
BRANCH   6  29
ATOM     29  O   UNL     1      30.853  32.232  14.830  1.00  0.00    -0.388 OA
ATOM     30  H   UNL     1      30.609  31.463  14.247  1.00  0.00     0.211 HD
ENDBRANCH   6  29
ENDBRANCH   5   6
ENDBRANCH   1   5
BRANCH   2  31
ATOM     31  O   UNL     1      29.815  37.881  13.017  1.00  0.00    -0.443 OA
BRANCH  31  32
ATOM     32  C   UNL     1      30.046  37.919  11.621  1.00  0.00     0.294 C 
BRANCH  32  33
ATOM     33  C   UNL     1      28.797  37.654  10.881  1.00  0.00     0.121 A 
ATOM     34  C   UNL     1      27.680  36.947  11.292  1.00  0.00     0.144 A 
ATOM     35  N   UNL     1      28.499  38.060   9.628  1.00  0.00    -0.131 NA
ATOM     36  N   UNL     1      26.764  36.948  10.301  1.00  0.00    -0.220 N 
ATOM     37  N   UNL     1      27.307  37.642   9.297  1.00  0.00    -0.062 NA
BRANCH  36  38
ATOM     38  C   UNL     1      25.483  36.354  10.273  1.00  0.00     0.067 A 
ATOM     39  C   UNL     1      25.008  35.610  11.337  1.00  0.00     0.044 A 
ATOM     40  C   UNL     1      24.655  36.495   9.181  1.00  0.00     0.028 A 
ATOM     41  C   UNL     1      23.763  35.014  11.350  1.00  0.00     0.062 A 
ATOM     42  C   UNL     1      23.393  35.907   9.165  1.00  0.00     0.003 A 
ATOM     43  C   UNL     1      22.962  35.176  10.243  1.00  0.00     0.016 A 
BRANCH  41  44
ATOM     44  C   UNL     1      23.287  34.235  12.487  1.00  0.00     0.338 C 
ATOM     45  O   UNL     1      23.611  34.582  13.649  1.00  0.00    -0.246 OA
BRANCH  44  46
ATOM     46  O   UNL     1      22.483  33.117  12.342  1.00  0.00    -0.462 OA
BRANCH  46  47
ATOM     47  C   UNL     1      22.420  32.090  13.312  1.00  0.00     0.230 C 
ATOM     48  C   UNL     1      23.275  30.944  12.854  1.00  0.00     0.049 C 
ENDBRANCH  46  47
ENDBRANCH  44  46
ENDBRANCH  41  44
ENDBRANCH  36  38
ENDBRANCH  32  33
ENDBRANCH  31  32
ENDBRANCH   2  31
TORSDOF 18
BEGIN_RES LYS A 131
REMARK  4 active torsions:
REMARK  status: ('A' for Active; 'I' for Inactive)
REMARK    1  A    between atoms: CA   and  CB  
REMARK    2  A    between atoms: CB   and  CG  
REMARK    3  A    between atoms: CG   and  CD  
REMARK    4  A    between atoms: CD   and  CE  
ROOT
ATOM      1  CA  LYS A 131      29.867  25.555  16.977  1.00 20.52     0.186 C 
ENDROOT
BRANCH   1   2
ATOM      2  CB  LYS A 131      28.345  25.722  17.026  1.00 20.94     0.034 C 
BRANCH   2   3
ATOM      3  CG  LYS A 131      27.601  24.404  16.879  1.00 22.96     0.005 C 
BRANCH   3   4
ATOM      4  CD  LYS A 131      26.159  24.518  17.290  1.00 24.33     0.041 C 
BRANCH   4   5
ATOM      5  CE  LYS A 131      25.812  23.384  18.249  1.00 26.91     0.338 C 
ATOM      6  NZ  LYS A 131      24.984  22.362  17.566  1.00 27.40     0.618 N 
ENDBRANCH   4   5
ENDBRANCH   3   4
ENDBRANCH   2   3
ENDBRANCH   1   2
END_RES LYS A 131
BEGIN_RES LYS A 135
REMARK  4 active torsions:
REMARK  status: ('A' for Active; 'I' for Inactive)
REMARK    5  A    between atoms: CA   and  CB  
REMARK    6  A    between atoms: CB   and  CG  
REMARK    7  A    between atoms: CG   and  CD  
REMARK    8  A    between atoms: CD   and  CE  
ROOT
ATOM      7  CA  LYS A 135      33.193  34.663   9.290  1.00 25.02     0.186 C 
ENDROOT
BRANCH   7   8
ATOM      8  CB  LYS A 135      32.060  35.360  10.034  1.00 26.63     0.034 C 
BRANCH   8   9
ATOM      9  CG  LYS A 135      30.717  34.707   9.834  1.00 29.45     0.005 C 
BRANCH   9  10
ATOM     10  CD  LYS A 135      30.225  34.916   8.410  1.00 32.00     0.041 C 
BRANCH  10  11
ATOM     11  CE  LYS A 135      28.767  34.516   8.286  1.00 34.25     0.338 C 
ATOM     12  NZ  LYS A 135      28.295  33.819   9.515  1.00 35.99     0.618 N 
ENDBRANCH  10  11
ENDBRANCH   9  10
ENDBRANCH   8   9
ENDBRANCH   7   8
END_RES LYS A 135
