REMARK VINA RESULT:    -4.319      4.957      8.399
REMARK INTER + INTRA:         -14.532
REMARK INTER:                  -9.429
REMARK INTRA:                  -5.103
REMARK UNBOUND:                -6.804
REMARK SMILES CC(=O)N[C@@H]1[C@@H](O)C[C@](O)(C(=O)O)O[C@H]1C(O)[C@H](O)CNC(=O)OCc1cn(-c2ccccc2C(C)=O)nn1
REMARK SMILES IDX 21 1 22 2 23 3 20 5 18 6 16 7 15 8 9 9 8 10 14 11 6 12 5 13
REMARK SMILES IDX 10 14 11 16 12 17 13 18 7 20 4 22 2 23 1 25 3 26 17 27 19 29
REMARK SMILES IDX 24 31 25 32 26 33 27 34 39 35 28 36 38 37 29 38 34 39 30 40
REMARK SMILES IDX 33 41 31 42 32 43 35 44 37 45 36 46
REMARK H PARENT 21 4 10 15 13 19 7 21 4 24 17 28 19 30
REMARK Flexibility Score: inf
ROOT
ATOM      1  N   UNL     1      29.346  29.470  19.623  1.00  0.00    -0.319 N 
ATOM      2  C   UNL     1      30.219  30.591  19.406  1.00  0.00     0.407 C 
ATOM      3  O   UNL     1      30.826  31.082  20.388  1.00  0.00    -0.225 OA
ATOM      4  H   UNL     1      28.867  29.086  18.784  1.00  0.00     0.167 HD
ENDROOT
BRANCH   1   5
ATOM      5  C   UNL     1      29.170  28.945  20.945  1.00  0.00     0.154 C 
BRANCH   5   6
ATOM      6  C   UNL     1      29.609  27.535  21.167  1.00  0.00     0.165 C 
BRANCH   6   7
ATOM      7  C   UNL     1      31.097  27.353  21.229  1.00  0.00     0.176 C 
BRANCH   7   8
ATOM      8  C   UNL     1      31.776  28.124  22.330  1.00  0.00     0.178 C 
ATOM      9  C   UNL     1      33.530  29.552  22.796  1.00  0.00     0.269 C 
ATOM     10  C   UNL     1      34.094  28.667  23.892  1.00  0.00     0.112 C 
ATOM     11  O   UNL     1      32.858  28.809  21.895  1.00  0.00    -0.332 OA
ATOM     12  C   UNL     1      33.572  27.272  23.812  1.00  0.00     0.145 C 
ATOM     13  C   UNL     1      32.131  27.192  23.468  1.00  0.00     0.142 C 
BRANCH   9  14
ATOM     14  O   UNL     1      34.702  30.104  22.174  1.00  0.00    -0.357 OA
ATOM     15  H   UNL     1      34.443  30.444  21.263  1.00  0.00     0.214 HD
ENDBRANCH   9  14
BRANCH   9  16
ATOM     16  C   UNL     1      32.846  30.700  23.400  1.00  0.00     0.364 C 
ATOM     17  O   UNL     1      32.458  30.727  24.590  1.00  0.00    -0.246 OA
BRANCH  16  18
ATOM     18  O   UNL     1      32.586  31.856  22.659  1.00  0.00    -0.477 OA
ATOM     19  H   UNL     1      31.827  31.876  21.988  1.00  0.00     0.296 HD
ENDBRANCH  16  18
ENDBRANCH   9  16
BRANCH  12  20
ATOM     20  O   UNL     1      34.306  26.587  22.829  1.00  0.00    -0.391 OA
ATOM     21  H   UNL     1      34.621  27.183  22.107  1.00  0.00     0.211 HD
ENDBRANCH  12  20
BRANCH  13  22
ATOM     22  N   UNL     1      31.299  27.333  24.620  1.00  0.00    -0.348 N 
ATOM     23  C   UNL     1      30.223  26.449  24.912  1.00  0.00     0.217 C 
ATOM     24  H   UNL     1      31.478  28.108  25.285  1.00  0.00     0.163 HD
ATOM     25  C   UNL     1      29.387  26.640  26.126  1.00  0.00     0.114 C 
ATOM     26  O   UNL     1      29.947  25.482  24.157  1.00  0.00    -0.275 OA
ENDBRANCH  13  22
ENDBRANCH   7   8
BRANCH   7  27
ATOM     27  O   UNL     1      31.725  27.389  20.010  1.00  0.00    -0.388 OA
ATOM     28  H   UNL     1      31.575  26.496  19.577  1.00  0.00     0.211 HD
ENDBRANCH   7  27
ENDBRANCH   6   7
BRANCH   6  29
ATOM     29  O   UNL     1      29.195  26.818  19.970  1.00  0.00    -0.388 OA
ATOM     30  H   UNL     1      29.645  27.325  19.242  1.00  0.00     0.211 HD
ENDBRANCH   6  29
ENDBRANCH   5   6
ENDBRANCH   1   5
BRANCH   2  31
ATOM     31  O   UNL     1      30.421  31.154  18.169  1.00  0.00    -0.443 OA
BRANCH  31  32
ATOM     32  C   UNL     1      30.729  32.538  18.015  1.00  0.00     0.294 C 
BRANCH  32  33
ATOM     33  C   UNL     1      30.583  32.972  16.603  1.00  0.00     0.121 A 
ATOM     34  C   UNL     1      29.924  34.071  16.118  1.00  0.00     0.144 A 
ATOM     35  N   UNL     1      31.090  32.341  15.509  1.00  0.00    -0.131 NA
ATOM     36  N   UNL     1      30.050  34.071  14.750  1.00  0.00    -0.220 N 
ATOM     37  N   UNL     1      30.762  33.007  14.433  1.00  0.00    -0.062 NA
BRANCH  36  38
ATOM     38  C   UNL     1      29.498  34.983  13.817  1.00  0.00     0.077 A 
ATOM     39  C   UNL     1      30.180  35.979  13.206  1.00  0.00     0.043 A 
ATOM     40  C   UNL     1      28.129  34.770  13.542  1.00  0.00     0.029 A 
ATOM     41  C   UNL     1      29.506  36.798  12.295  1.00  0.00     0.014 A 
ATOM     42  C   UNL     1      27.480  35.581  12.645  1.00  0.00     0.002 A 
ATOM     43  C   UNL     1      28.185  36.585  12.035  1.00  0.00     0.001 A 
BRANCH  39  44
ATOM     44  C   UNL     1      31.577  36.269  13.438  1.00  0.00     0.161 C 
ATOM     45  O   UNL     1      31.839  37.123  14.379  1.00  0.00    -0.294 OA
ATOM     46  C   UNL     1      32.739  35.717  12.740  1.00  0.00     0.093 C 
ENDBRANCH  39  44
ENDBRANCH  36  38
ENDBRANCH  32  33
ENDBRANCH  31  32
ENDBRANCH   2  31
TORSDOF 16
BEGIN_RES LYS A 131
REMARK  4 active torsions:
REMARK  status: ('A' for Active; 'I' for Inactive)
REMARK    1  A    between atoms: CA   and  CB  
REMARK    2  A    between atoms: CB   and  CG  
REMARK    3  A    between atoms: CG   and  CD  
REMARK    4  A    between atoms: CD   and  CE  
ROOT
ATOM      1  CA  LYS A 131      29.867  25.555  16.977  1.00 20.52     0.186 C 
ENDROOT
BRANCH   1   2
ATOM      2  CB  LYS A 131      28.345  25.722  17.026  1.00 20.94     0.034 C 
BRANCH   2   3
ATOM      3  CG  LYS A 131      27.601  24.402  16.891  1.00 22.96     0.005 C 
BRANCH   3   4
ATOM      4  CD  LYS A 131      26.579  24.215  17.978  1.00 24.33     0.041 C 
BRANCH   4   5
ATOM      5  CE  LYS A 131      26.236  25.568  18.593  1.00 26.91     0.338 C 
ATOM      6  NZ  LYS A 131      24.851  25.962  18.240  1.00 27.40     0.618 N 
ENDBRANCH   4   5
ENDBRANCH   3   4
ENDBRANCH   2   3
ENDBRANCH   1   2
END_RES LYS A 131
BEGIN_RES LYS A 135
REMARK  4 active torsions:
REMARK  status: ('A' for Active; 'I' for Inactive)
REMARK    5  A    between atoms: CA   and  CB  
REMARK    6  A    between atoms: CB   and  CG  
REMARK    7  A    between atoms: CG   and  CD  
REMARK    8  A    between atoms: CD   and  CE  
ROOT
ATOM      7  CA  LYS A 135      33.193  34.663   9.290  1.00 25.02     0.186 C 
ENDROOT
BRANCH   7   8
ATOM      8  CB  LYS A 135      32.060  35.360  10.034  1.00 26.63     0.034 C 
BRANCH   8   9
ATOM      9  CG  LYS A 135      30.785  35.456   9.237  1.00 29.45     0.005 C 
BRANCH   9  10
ATOM     10  CD  LYS A 135      29.892  34.255   9.505  1.00 32.00     0.041 C 
BRANCH  10  11
ATOM     11  CE  LYS A 135      28.557  34.416   8.804  1.00 34.25     0.338 C 
ATOM     12  NZ  LYS A 135      27.474  33.710   9.544  1.00 35.99     0.618 N 
ENDBRANCH  10  11
ENDBRANCH   9  10
ENDBRANCH   8   9
ENDBRANCH   7   8
END_RES LYS A 135
