REMARK VINA RESULT:    -4.869      5.677     11.209
REMARK INTER + INTRA:         -14.899
REMARK INTER:                  -8.177
REMARK INTRA:                  -6.722
REMARK UNBOUND:                -6.187
REMARK SMILES CC(=O)N[C@@H]1[C@@H](O)C[C@](O)(C(=O)O)O[C@H]1C(O)[C@H](O)CNC(=O)OCc1cn(-c2cc(Cl)ccc2C(=O)N(C)C)nn1
REMARK SMILES IDX 21 1 22 2 23 3 20 5 18 6 16 7 15 8 9 9 8 10 14 11 6 12 5 13
REMARK SMILES IDX 10 14 11 16 12 17 13 18 7 20 4 22 2 23 1 25 3 26 17 27 19 29
REMARK SMILES IDX 24 31 25 32 26 33 27 34 42 35 28 36 41 37 29 38 30 39 35 40
REMARK SMILES IDX 31 41 34 42 32 43 33 44 36 45 37 46 38 47 39 48 40 49
REMARK H PARENT 21 4 10 15 13 19 7 21 4 24 17 28 19 30
REMARK Flexibility Score: inf
ROOT
ATOM      1  N   UNL     1      26.318  29.154  18.269  1.00  0.00    -0.319 N 
ATOM      2  C   UNL     1      26.999  29.010  17.050  1.00  0.00     0.407 C 
ATOM      3  O   UNL     1      27.428  27.894  16.697  1.00  0.00    -0.225 OA
ATOM      4  H   UNL     1      25.959  30.093  18.554  1.00  0.00     0.167 HD
ENDROOT
BRANCH   1   5
ATOM      5  C   UNL     1      26.086  28.048  19.161  1.00  0.00     0.154 C 
BRANCH   5   6
ATOM      6  C   UNL     1      26.674  28.352  20.515  1.00  0.00     0.165 C 
BRANCH   6   7
ATOM      7  C   UNL     1      28.160  28.107  20.571  1.00  0.00     0.176 C 
BRANCH   7   8
ATOM      8  C   UNL     1      28.905  29.384  20.665  1.00  0.00     0.178 C 
ATOM      9  C   UNL     1      29.519  31.355  19.666  1.00  0.00     0.269 C 
ATOM     10  C   UNL     1      29.914  31.670  21.086  1.00  0.00     0.112 C 
ATOM     11  O   UNL     1      29.078  30.069  19.474  1.00  0.00    -0.332 OA
ATOM     12  C   UNL     1      30.725  30.593  21.728  1.00  0.00     0.145 C 
ATOM     13  C   UNL     1      30.299  29.203  21.265  1.00  0.00     0.142 C 
BRANCH   9  14
ATOM     14  O   UNL     1      30.665  31.506  18.865  1.00  0.00    -0.357 OA
ATOM     15  H   UNL     1      30.404  32.164  18.151  1.00  0.00     0.214 HD
ENDBRANCH   9  14
BRANCH   9  16
ATOM     16  C   UNL     1      28.485  32.274  19.178  1.00  0.00     0.364 C 
ATOM     17  O   UNL     1      27.291  31.891  19.117  1.00  0.00    -0.246 OA
BRANCH  16  18
ATOM     18  O   UNL     1      28.734  33.574  18.767  1.00  0.00    -0.477 OA
ATOM     19  H   UNL     1      29.717  33.888  18.799  1.00  0.00     0.296 HD
ENDBRANCH  16  18
ENDBRANCH   9  16
BRANCH  12  20
ATOM     20  O   UNL     1      32.082  30.820  21.423  1.00  0.00    -0.391 OA
ATOM     21  H   UNL     1      32.161  30.675  20.442  1.00  0.00     0.211 HD
ENDBRANCH  12  20
BRANCH  13  22
ATOM     22  N   UNL     1      30.314  28.249  22.320  1.00  0.00    -0.348 N 
ATOM     23  C   UNL     1      31.536  27.676  22.752  1.00  0.00     0.217 C 
ATOM     24  H   UNL     1      29.440  27.953  22.796  1.00  0.00     0.163 HD
ATOM     25  C   UNL     1      31.500  26.674  23.870  1.00  0.00     0.114 C 
ATOM     26  O   UNL     1      32.645  27.951  22.260  1.00  0.00    -0.275 OA
ENDBRANCH  13  22
ENDBRANCH   7   8
BRANCH   7  27
ATOM     27  O   UNL     1      28.533  27.269  19.550  1.00  0.00    -0.388 OA
ATOM     28  H   UNL     1      29.514  27.429  19.376  1.00  0.00     0.211 HD
ENDBRANCH   7  27
ENDBRANCH   6   7
BRANCH   6  29
ATOM     29  O   UNL     1      26.099  27.472  21.485  1.00  0.00    -0.388 OA
ATOM     30  H   UNL     1      26.290  27.781  22.393  1.00  0.00     0.211 HD
ENDBRANCH   6  29
ENDBRANCH   5   6
ENDBRANCH   1   5
BRANCH   2  31
ATOM     31  O   UNL     1      27.237  30.067  16.178  1.00  0.00    -0.443 OA
BRANCH  31  32
ATOM     32  C   UNL     1      28.532  30.247  15.639  1.00  0.00     0.294 C 
BRANCH  32  33
ATOM     33  C   UNL     1      28.921  31.664  15.658  1.00  0.00     0.121 A 
ATOM     34  C   UNL     1      30.171  32.238  15.550  1.00  0.00     0.144 A 
ATOM     35  N   UNL     1      28.070  32.696  15.794  1.00  0.00    -0.131 NA
ATOM     36  N   UNL     1      30.050  33.591  15.620  1.00  0.00    -0.219 N 
ATOM     37  N   UNL     1      28.768  33.820  15.767  1.00  0.00    -0.062 NA
BRANCH  36  38
ATOM     38  C   UNL     1      31.081  34.566  15.552  1.00  0.00     0.081 A 
ATOM     39  C   UNL     1      31.968  34.734  16.605  1.00  0.00     0.049 A 
ATOM     40  C   UNL     1      31.195  35.347  14.426  1.00  0.00     0.065 A 
ATOM     41  C   UNL     1      32.972  35.669  16.559  1.00  0.00     0.043 A 
ATOM     42  C   UNL     1      32.196  36.301  14.345  1.00  0.00     0.017 A 
ATOM     43  Cl  UNL     1      34.104  35.892  17.890  1.00  0.00    -0.084 Cl
ATOM     44  C   UNL     1      33.071  36.444  15.422  1.00  0.00     0.021 A 
BRANCH  40  45
ATOM     45  C   UNL     1      30.265  35.160  13.337  1.00  0.00     0.255 C 
ATOM     46  O   UNL     1      30.399  34.259  12.462  1.00  0.00    -0.269 OA
ATOM     47  N   UNL     1      29.142  36.010  13.218  1.00  0.00    -0.345 N 
ATOM     48  C   UNL     1      28.947  37.054  14.195  1.00  0.00     0.146 C 
ATOM     49  C   UNL     1      28.173  35.867  12.142  1.00  0.00     0.146 C 
ENDBRANCH  40  45
ENDBRANCH  36  38
ENDBRANCH  32  33
ENDBRANCH  31  32
ENDBRANCH   2  31
TORSDOF 16
BEGIN_RES LYS A 131
REMARK  4 active torsions:
REMARK  status: ('A' for Active; 'I' for Inactive)
REMARK    1  A    between atoms: CA   and  CB  
REMARK    2  A    between atoms: CB   and  CG  
REMARK    3  A    between atoms: CG   and  CD  
REMARK    4  A    between atoms: CD   and  CE  
ROOT
ATOM      1  CA  LYS A 131      29.867  25.555  16.977  1.00 20.52     0.186 C 
ENDROOT
BRANCH   1   2
ATOM      2  CB  LYS A 131      28.345  25.722  17.026  1.00 20.94     0.034 C 
BRANCH   2   3
ATOM      3  CG  LYS A 131      27.601  24.401  16.900  1.00 22.96     0.005 C 
BRANCH   3   4
ATOM      4  CD  LYS A 131      26.448  24.307  17.859  1.00 24.33     0.041 C 
BRANCH   4   5
ATOM      5  CE  LYS A 131      25.645  23.043  17.567  1.00 26.91     0.338 C 
ATOM      6  NZ  LYS A 131      24.291  23.392  17.075  1.00 27.40     0.618 N 
ENDBRANCH   4   5
ENDBRANCH   3   4
ENDBRANCH   2   3
ENDBRANCH   1   2
END_RES LYS A 131
BEGIN_RES LYS A 135
REMARK  4 active torsions:
REMARK  status: ('A' for Active; 'I' for Inactive)
REMARK    5  A    between atoms: CA   and  CB  
REMARK    6  A    between atoms: CB   and  CG  
REMARK    7  A    between atoms: CG   and  CD  
REMARK    8  A    between atoms: CD   and  CE  
ROOT
ATOM      7  CA  LYS A 135      33.193  34.663   9.290  1.00 25.02     0.186 C 
ENDROOT
BRANCH   7   8
ATOM      8  CB  LYS A 135      32.060  35.360  10.034  1.00 26.63     0.034 C 
BRANCH   8   9
ATOM      9  CG  LYS A 135      30.849  35.625   9.177  1.00 29.45     0.005 C 
BRANCH   9  10
ATOM     10  CD  LYS A 135      30.343  34.335   8.550  1.00 32.00     0.041 C 
BRANCH  10  11
ATOM     11  CE  LYS A 135      28.993  33.956   9.128  1.00 34.25     0.338 C 
ATOM     12  NZ  LYS A 135      27.887  34.634   8.396  1.00 35.99     0.618 N 
ENDBRANCH  10  11
ENDBRANCH   9  10
ENDBRANCH   8   9
ENDBRANCH   7   8
END_RES LYS A 135
