REMARK VINA RESULT:    -5.802      1.313      1.834
REMARK INTER + INTRA:         -15.901
REMARK INTER:                 -10.386
REMARK INTRA:                  -5.515
REMARK UNBOUND:                -5.012
REMARK SMILES CC(=O)N[C@@H]1[C@@H](O)C[C@](O)(C(=O)O)O[C@H]1C(O)[C@H](O)CNC(=O)OCc1cn(CC(O)c2ccccc2)nn1
REMARK SMILES IDX 21 1 22 2 23 3 20 5 18 6 16 7 15 8 9 9 8 10 14 11 6 12 5 13
REMARK SMILES IDX 10 14 11 16 12 17 13 18 7 20 4 22 2 23 1 25 3 26 17 27 19 29
REMARK SMILES IDX 24 31 25 32 26 33 27 34 39 35 28 36 38 37 29 38 30 39 31 40
REMARK SMILES IDX 32 42 33 43 37 44 34 45 36 46 35 47
REMARK H PARENT 21 4 10 15 13 19 7 21 4 24 17 28 19 30 31 41
REMARK Flexibility Score: inf
ROOT
ATOM      1  N   UNL     1      26.605  28.328  18.690  1.00  0.00    -0.319 N 
ATOM      2  C   UNL     1      25.414  28.628  17.983  1.00  0.00     0.407 C 
ATOM      3  O   UNL     1      24.335  28.676  18.614  1.00  0.00    -0.225 OA
ATOM      4  H   UNL     1      27.480  28.310  18.079  1.00  0.00     0.167 HD
ENDROOT
BRANCH   1   5
ATOM      5  C   UNL     1      26.681  28.063  20.108  1.00  0.00     0.154 C 
BRANCH   5   6
ATOM      6  C   UNL     1      28.064  27.616  20.533  1.00  0.00     0.165 C 
BRANCH   6   7
ATOM      7  C   UNL     1      28.961  28.831  20.775  1.00  0.00     0.176 C 
BRANCH   7   8
ATOM      8  C   UNL     1      29.715  28.779  22.077  1.00  0.00     0.178 C 
ATOM      9  C   UNL     1      31.339  30.349  21.460  1.00  0.00     0.269 C 
ATOM     10  C   UNL     1      32.022  29.285  20.699  1.00  0.00     0.112 C 
ATOM     11  O   UNL     1      30.309  30.028  22.278  1.00  0.00    -0.332 OA
ATOM     12  C   UNL     1      31.845  27.876  21.171  1.00  0.00     0.145 C 
ATOM     13  C   UNL     1      30.692  27.683  22.127  1.00  0.00     0.142 C 
BRANCH   9  14
ATOM     14  O   UNL     1      30.794  31.240  20.487  1.00  0.00    -0.357 OA
ATOM     15  H   UNL     1      29.956  31.569  20.881  1.00  0.00     0.214 HD
ENDBRANCH   9  14
BRANCH   9  16
ATOM     16  C   UNL     1      32.385  31.180  22.164  1.00  0.00     0.364 C 
ATOM     17  O   UNL     1      32.965  32.139  21.602  1.00  0.00    -0.246 OA
BRANCH  16  18
ATOM     18  O   UNL     1      32.728  30.887  23.481  1.00  0.00    -0.477 OA
ATOM     19  H   UNL     1      33.222  31.526  24.084  1.00  0.00     0.296 HD
ENDBRANCH  16  18
ENDBRANCH   9  16
BRANCH  12  20
ATOM     20  O   UNL     1      31.700  27.015  20.047  1.00  0.00    -0.391 OA
ATOM     21  H   UNL     1      30.897  26.483  20.208  1.00  0.00     0.211 HD
ENDBRANCH  12  20
BRANCH  13  22
ATOM     22  N   UNL     1      31.292  27.482  23.436  1.00  0.00    -0.348 N 
ATOM     23  C   UNL     1      30.884  26.480  24.349  1.00  0.00     0.217 C 
ATOM     24  H   UNL     1      32.067  28.138  23.677  1.00  0.00     0.163 HD
ATOM     25  C   UNL     1      31.518  26.301  25.678  1.00  0.00     0.114 C 
ATOM     26  O   UNL     1      29.942  25.739  23.966  1.00  0.00    -0.275 OA
ENDBRANCH  13  22
ENDBRANCH   7   8
BRANCH   7  27
ATOM     27  O   UNL     1      27.981  29.885  20.934  1.00  0.00    -0.388 OA
ATOM     28  H   UNL     1      28.410  30.741  21.083  1.00  0.00     0.211 HD
ENDBRANCH   7  27
ENDBRANCH   6   7
BRANCH   6  29
ATOM     29  O   UNL     1      28.564  26.751  19.588  1.00  0.00    -0.388 OA
ATOM     30  H   UNL     1      28.470  25.834  19.939  1.00  0.00     0.211 HD
ENDBRANCH   6  29
ENDBRANCH   5   6
ENDBRANCH   1   5
BRANCH   2  31
ATOM     31  O   UNL     1      25.386  28.873  16.618  1.00  0.00    -0.443 OA
BRANCH  31  32
ATOM     32  C   UNL     1      25.462  30.177  16.077  1.00  0.00     0.294 C 
BRANCH  32  33
ATOM     33  C   UNL     1      26.883  30.570  15.985  1.00  0.00     0.120 A 
ATOM     34  C   UNL     1      27.374  31.863  15.891  1.00  0.00     0.138 A 
ATOM     35  N   UNL     1      27.989  29.790  15.971  1.00  0.00    -0.132 NA
ATOM     36  N   UNL     1      28.717  31.830  15.824  1.00  0.00    -0.249 N 
ATOM     37  N   UNL     1      29.058  30.566  15.875  1.00  0.00    -0.067 NA
BRANCH  36  38
ATOM     38  C   UNL     1      29.591  33.007  15.719  1.00  0.00     0.182 C 
BRANCH  38  39
ATOM     39  C   UNL     1      31.009  32.588  16.020  1.00  0.00     0.166 C 
BRANCH  39  40
ATOM     40  O   UNL     1      31.461  31.843  14.907  1.00  0.00    -0.386 OA
ATOM     41  H   UNL     1      30.836  31.083  14.752  1.00  0.00     0.211 HD
ENDBRANCH  39  40
BRANCH  39  42
ATOM     42  C   UNL     1      31.868  33.783  16.141  1.00  0.00    -0.018 A 
ATOM     43  C   UNL     1      32.017  34.476  17.325  1.00  0.00     0.006 A 
ATOM     44  C   UNL     1      32.563  34.232  15.010  1.00  0.00     0.006 A 
ATOM     45  C   UNL     1      32.822  35.584  17.417  1.00  0.00     0.000 A 
ATOM     46  C   UNL     1      33.364  35.334  15.099  1.00  0.00     0.000 A 
ATOM     47  C   UNL     1      33.493  36.006  16.293  1.00  0.00     0.000 A 
ENDBRANCH  39  42
ENDBRANCH  38  39
ENDBRANCH  36  38
ENDBRANCH  32  33
ENDBRANCH  31  32
ENDBRANCH   2  31
TORSDOF 18
BEGIN_RES LYS A 131
REMARK  4 active torsions:
REMARK  status: ('A' for Active; 'I' for Inactive)
REMARK    1  A    between atoms: CA   and  CB  
REMARK    2  A    between atoms: CB   and  CG  
REMARK    3  A    between atoms: CG   and  CD  
REMARK    4  A    between atoms: CD   and  CE  
ROOT
ATOM      1  CA  LYS A 131      29.867  25.555  16.977  1.00 20.52     0.186 C 
ENDROOT
BRANCH   1   2
ATOM      2  CB  LYS A 131      28.345  25.722  17.026  1.00 20.94     0.034 C 
BRANCH   2   3
ATOM      3  CG  LYS A 131      27.601  24.401  16.907  1.00 22.96     0.005 C 
BRANCH   3   4
ATOM      4  CD  LYS A 131      26.483  24.288  17.905  1.00 24.33     0.041 C 
BRANCH   4   5
ATOM      5  CE  LYS A 131      25.143  24.377  17.180  1.00 26.91     0.338 C 
ATOM      6  NZ  LYS A 131      24.196  25.224  17.943  1.00 27.40     0.618 N 
ENDBRANCH   4   5
ENDBRANCH   3   4
ENDBRANCH   2   3
ENDBRANCH   1   2
END_RES LYS A 131
BEGIN_RES LYS A 135
REMARK  4 active torsions:
REMARK  status: ('A' for Active; 'I' for Inactive)
REMARK    5  A    between atoms: CA   and  CB  
REMARK    6  A    between atoms: CB   and  CG  
REMARK    7  A    between atoms: CG   and  CD  
REMARK    8  A    between atoms: CD   and  CE  
ROOT
ATOM      7  CA  LYS A 135      33.193  34.663   9.290  1.00 25.02     0.186 C 
ENDROOT
BRANCH   7   8
ATOM      8  CB  LYS A 135      32.060  35.360  10.034  1.00 26.63     0.034 C 
BRANCH   8   9
ATOM      9  CG  LYS A 135      30.807  35.518   9.212  1.00 29.45     0.005 C 
BRANCH   9  10
ATOM     10  CD  LYS A 135      29.909  34.300   9.364  1.00 32.00     0.041 C 
BRANCH  10  11
ATOM     11  CE  LYS A 135      28.660  34.449   8.515  1.00 34.25     0.338 C 
ATOM     12  NZ  LYS A 135      27.433  34.182   9.315  1.00 35.99     0.618 N 
ENDBRANCH  10  11
ENDBRANCH   9  10
ENDBRANCH   8   9
ENDBRANCH   7   8
END_RES LYS A 135
