REMARK VINA RESULT:    -5.554      6.426      9.400
REMARK INTER + INTRA:         -14.097
REMARK INTER:                  -8.778
REMARK INTRA:                  -5.319
REMARK UNBOUND:                -4.485
REMARK SMILES CC(=O)N[C@@H]1[C@@H](O)C[C@](O)(C(=O)O)O[C@H]1C(O)[C@H](O)CNC(=O)OCc1cn(-c2ccccc2)nn1
REMARK SMILES IDX 20 1 18 2 16 3 15 4 9 5 8 6 14 7 6 8 5 9 10 10 11 12 12 13
REMARK SMILES IDX 13 14 7 16 4 18 2 19 1 21 3 22 17 23 19 25 21 27 22 28 23 30
REMARK SMILES IDX 24 31 25 32 26 33 27 34 36 35 28 36 35 37 29 38 30 39 34 40
REMARK SMILES IDX 31 41 33 42 32 43
REMARK H PARENT 10 11 13 15 7 17 4 20 17 24 19 26 21 29
REMARK Flexibility Score: inf
ROOT
ATOM      1  C   UNL     1      31.904  33.008  15.445  1.00  0.00     0.154 C 
ENDROOT
BRANCH   1   2
ATOM      2  C   UNL     1      32.206  34.234  14.608  1.00  0.00     0.165 C 
BRANCH   2   3
ATOM      3  C   UNL     1      31.076  34.560  13.657  1.00  0.00     0.176 C 
BRANCH   3   4
ATOM      4  C   UNL     1      30.524  35.931  13.864  1.00  0.00     0.178 C 
ATOM      5  C   UNL     1      28.471  35.732  14.988  1.00  0.00     0.269 C 
ATOM      6  C   UNL     1      27.678  35.858  13.735  1.00  0.00     0.112 C 
ATOM      7  O   UNL     1      29.761  36.103  14.959  1.00  0.00    -0.332 OA
ATOM      8  C   UNL     1      28.490  35.875  12.474  1.00  0.00     0.145 C 
ATOM      9  C   UNL     1      29.841  36.491  12.651  1.00  0.00     0.142 C 
BRANCH   5  10
ATOM     10  O   UNL     1      28.414  34.371  15.360  1.00  0.00    -0.357 OA
ATOM     11  H   UNL     1      27.468  34.078  15.236  1.00  0.00     0.214 HD
ENDBRANCH   5  10
BRANCH   5  12
ATOM     12  C   UNL     1      27.794  36.469  16.090  1.00  0.00     0.364 C 
ATOM     13  O   UNL     1      27.195  37.551  15.909  1.00  0.00    -0.246 OA
BRANCH  12  14
ATOM     14  O   UNL     1      27.815  35.956  17.368  1.00  0.00    -0.477 OA
ATOM     15  H   UNL     1      27.423  36.419  18.177  1.00  0.00     0.296 HD
ENDBRANCH  12  14
ENDBRANCH   5  12
BRANCH   8  16
ATOM     16  O   UNL     1      28.622  34.571  11.964  1.00  0.00    -0.391 OA
ATOM     17  H   UNL     1      27.902  33.980  12.259  1.00  0.00     0.211 HD
ENDBRANCH   8  16
BRANCH   9  18
ATOM     18  N   UNL     1      29.643  37.923  12.889  1.00  0.00    -0.348 N 
ATOM     19  C   UNL     1      30.576  38.893  12.432  1.00  0.00     0.217 C 
ATOM     20  H   UNL     1      28.807  38.274  13.403  1.00  0.00     0.163 HD
ATOM     21  C   UNL     1      30.393  40.350  12.664  1.00  0.00     0.114 C 
ATOM     22  O   UNL     1      31.613  38.545  11.803  1.00  0.00    -0.275 OA
ENDBRANCH   9  18
ENDBRANCH   3   4
BRANCH   3  23
ATOM     23  O   UNL     1      31.626  34.427  12.372  1.00  0.00    -0.388 OA
ATOM     24  H   UNL     1      31.231  35.187  11.849  1.00  0.00     0.211 HD
ENDBRANCH   3  23
ENDBRANCH   2   3
BRANCH   2  25
ATOM     25  O   UNL     1      33.440  34.134  13.989  1.00  0.00    -0.388 OA
ATOM     26  H   UNL     1      33.384  33.823  13.062  1.00  0.00     0.211 HD
ENDBRANCH   2  25
ENDBRANCH   1   2
BRANCH   1  27
ATOM     27  N   UNL     1      30.699  32.337  15.068  1.00  0.00    -0.319 N 
ATOM     28  C   UNL     1      30.023  31.404  15.898  1.00  0.00     0.407 C 
ATOM     29  H   UNL     1      30.264  32.523  14.133  1.00  0.00     0.167 HD
ATOM     30  O   UNL     1      30.450  31.113  17.022  1.00  0.00    -0.225 OA
BRANCH  28  31
ATOM     31  O   UNL     1      28.853  30.779  15.480  1.00  0.00    -0.443 OA
BRANCH  31  32
ATOM     32  C   UNL     1      27.725  30.739  16.340  1.00  0.00     0.294 C 
BRANCH  32  33
ATOM     33  C   UNL     1      26.550  31.166  15.548  1.00  0.00     0.121 A 
ATOM     34  C   UNL     1      25.590  30.360  14.980  1.00  0.00     0.144 A 
ATOM     35  N   UNL     1      26.227  32.441  15.249  1.00  0.00    -0.131 NA
ATOM     36  N   UNL     1      24.728  31.184  14.362  1.00  0.00    -0.220 N 
ATOM     37  N   UNL     1      25.122  32.429  14.532  1.00  0.00    -0.062 NA
BRANCH  36  38
ATOM     38  C   UNL     1      23.575  30.761  13.643  1.00  0.00     0.066 A 
ATOM     39  C   UNL     1      22.554  31.665  13.410  1.00  0.00     0.028 A 
ATOM     40  C   UNL     1      23.470  29.463  13.178  1.00  0.00     0.028 A 
ATOM     41  C   UNL     1      21.448  31.222  12.707  1.00  0.00     0.002 A 
ATOM     42  C   UNL     1      22.365  29.040  12.483  1.00  0.00     0.002 A 
ATOM     43  C   UNL     1      21.345  29.936  12.248  1.00  0.00     0.000 A 
ENDBRANCH  36  38
ENDBRANCH  32  33
ENDBRANCH  31  32
ENDBRANCH  28  31
ENDBRANCH   1  27
TORSDOF 15
BEGIN_RES LYS A 131
REMARK  4 active torsions:
REMARK  status: ('A' for Active; 'I' for Inactive)
REMARK    1  A    between atoms: CA   and  CB  
REMARK    2  A    between atoms: CB   and  CG  
REMARK    3  A    between atoms: CG   and  CD  
REMARK    4  A    between atoms: CD   and  CE  
ROOT
ATOM      1  CA  LYS A 131      29.867  25.555  16.977  1.00 20.52     0.186 C 
ENDROOT
BRANCH   1   2
ATOM      2  CB  LYS A 131      28.345  25.722  17.026  1.00 20.94     0.034 C 
BRANCH   2   3
ATOM      3  CG  LYS A 131      27.601  24.403  16.888  1.00 22.96     0.005 C 
BRANCH   3   4
ATOM      4  CD  LYS A 131      26.595  24.202  17.987  1.00 24.33     0.041 C 
BRANCH   4   5
ATOM      5  CE  LYS A 131      26.211  25.554  18.579  1.00 26.91     0.338 C 
ATOM      6  NZ  LYS A 131      24.853  25.948  18.135  1.00 27.40     0.618 N 
ENDBRANCH   4   5
ENDBRANCH   3   4
ENDBRANCH   2   3
ENDBRANCH   1   2
END_RES LYS A 131
BEGIN_RES LYS A 135
REMARK  4 active torsions:
REMARK  status: ('A' for Active; 'I' for Inactive)
REMARK    5  A    between atoms: CA   and  CB  
REMARK    6  A    between atoms: CB   and  CG  
REMARK    7  A    between atoms: CG   and  CD  
REMARK    8  A    between atoms: CD   and  CE  
ROOT
ATOM      7  CA  LYS A 135      33.193  34.663   9.290  1.00 25.02     0.186 C 
ENDROOT
BRANCH   7   8
ATOM      8  CB  LYS A 135      32.060  35.360  10.034  1.00 26.63     0.034 C 
BRANCH   8   9
ATOM      9  CG  LYS A 135      30.829  35.576   9.192  1.00 29.45     0.005 C 
BRANCH   9  10
ATOM     10  CD  LYS A 135      30.167  34.248   8.858  1.00 32.00     0.041 C 
BRANCH  10  11
ATOM     11  CE  LYS A 135      28.769  34.472   8.315  1.00 34.25     0.338 C 
ATOM     12  NZ  LYS A 135      28.788  35.399   7.150  1.00 35.99     0.618 N 
ENDBRANCH  10  11
ENDBRANCH   9  10
ENDBRANCH   8   9
ENDBRANCH   7   8
END_RES LYS A 135
