REMARK VINA RESULT:    -4.805      5.601     10.925
REMARK INTER + INTRA:         -14.784
REMARK INTER:                  -8.836
REMARK INTRA:                  -5.948
REMARK UNBOUND:                -6.187
REMARK SMILES CC(=O)N[C@@H]1[C@@H](O)C[C@](O)(C(=O)O)O[C@H]1C(O)[C@H](O)CNC(=O)OCc1cn(-c2cc(Cl)ccc2C(=O)N(C)C)nn1
REMARK SMILES IDX 21 1 22 2 23 3 20 5 18 6 16 7 15 8 9 9 8 10 14 11 6 12 5 13
REMARK SMILES IDX 10 14 11 16 12 17 13 18 7 20 4 22 2 23 1 25 3 26 17 27 19 29
REMARK SMILES IDX 24 31 25 32 26 33 27 34 42 35 28 36 41 37 29 38 30 39 35 40
REMARK SMILES IDX 31 41 34 42 32 43 33 44 36 45 37 46 38 47 39 48 40 49
REMARK H PARENT 21 4 10 15 13 19 7 21 4 24 17 28 19 30
REMARK Flexibility Score: inf
ROOT
ATOM      1  N   UNL     1      27.586  33.702  18.256  1.00  0.00    -0.319 N 
ATOM      2  C   UNL     1      27.077  33.151  17.071  1.00  0.00     0.407 C 
ATOM      3  O   UNL     1      26.702  31.962  17.040  1.00  0.00    -0.225 OA
ATOM      4  H   UNL     1      27.894  34.701  18.272  1.00  0.00     0.167 HD
ENDROOT
BRANCH   1   5
ATOM      5  C   UNL     1      27.707  32.944  19.474  1.00  0.00     0.154 C 
BRANCH   5   6
ATOM      6  C   UNL     1      29.075  32.317  19.552  1.00  0.00     0.165 C 
BRANCH   6   7
ATOM      7  C   UNL     1      29.113  30.931  18.959  1.00  0.00     0.176 C 
BRANCH   7   8
ATOM      8  C   UNL     1      29.692  29.960  19.916  1.00  0.00     0.178 C 
ATOM      9  C   UNL     1      31.569  28.973  20.788  1.00  0.00     0.269 C 
ATOM     10  C   UNL     1      30.564  28.542  21.827  1.00  0.00     0.112 C 
ATOM     11  O   UNL     1      31.027  29.646  19.722  1.00  0.00    -0.332 OA
ATOM     12  C   UNL     1      29.322  27.957  21.240  1.00  0.00     0.145 C 
ATOM     13  C   UNL     1      28.935  28.632  19.928  1.00  0.00     0.142 C 
BRANCH   9  14
ATOM     14  O   UNL     1      32.161  27.810  20.264  1.00  0.00    -0.357 OA
ATOM     15  H   UNL     1      31.592  27.051  20.598  1.00  0.00     0.214 HD
ENDBRANCH   9  14
BRANCH   9  16
ATOM     16  C   UNL     1      32.623  29.809  21.374  1.00  0.00     0.364 C 
ATOM     17  O   UNL     1      32.421  31.036  21.543  1.00  0.00    -0.246 OA
BRANCH  16  18
ATOM     18  O   UNL     1      33.864  29.332  21.766  1.00  0.00    -0.477 OA
ATOM     19  H   UNL     1      33.995  29.162  22.776  1.00  0.00     0.296 HD
ENDBRANCH  16  18
ENDBRANCH   9  16
BRANCH  12  20
ATOM     20  O   UNL     1      29.534  26.578  21.041  1.00  0.00    -0.391 OA
ATOM     21  H   UNL     1      28.695  26.135  21.341  1.00  0.00     0.211 HD
ENDBRANCH  12  20
BRANCH  13  22
ATOM     22  N   UNL     1      27.529  28.811  19.801  1.00  0.00    -0.348 N 
ATOM     23  C   UNL     1      26.701  27.726  19.417  1.00  0.00     0.217 C 
ATOM     24  H   UNL     1      27.080  29.728  19.986  1.00  0.00     0.163 HD
ATOM     25  C   UNL     1      25.222  27.964  19.298  1.00  0.00     0.114 C 
ATOM     26  O   UNL     1      27.122  26.582  19.170  1.00  0.00    -0.275 OA
ENDBRANCH  13  22
ENDBRANCH   7   8
BRANCH   7  27
ATOM     27  O   UNL     1      29.697  30.972  17.718  1.00  0.00    -0.388 OA
ATOM     28  H   UNL     1      29.221  31.687  17.188  1.00  0.00     0.211 HD
ENDBRANCH   7  27
ENDBRANCH   6   7
BRANCH   6  29
ATOM     29  O   UNL     1      29.443  32.161  20.924  1.00  0.00    -0.388 OA
ATOM     30  H   UNL     1      29.284  31.244  21.227  1.00  0.00     0.211 HD
ENDBRANCH   6  29
ENDBRANCH   5   6
ENDBRANCH   1   5
BRANCH   2  31
ATOM     31  O   UNL     1      26.957  33.867  15.884  1.00  0.00    -0.443 OA
BRANCH  31  32
ATOM     32  C   UNL     1      27.864  33.619  14.828  1.00  0.00     0.294 C 
BRANCH  32  33
ATOM     33  C   UNL     1      29.252  33.617  15.310  1.00  0.00     0.121 A 
ATOM     34  C   UNL     1      29.967  34.609  15.947  1.00  0.00     0.144 A 
ATOM     35  N   UNL     1      30.103  32.582  15.202  1.00  0.00    -0.131 NA
ATOM     36  N   UNL     1      31.224  34.158  16.208  1.00  0.00    -0.219 N 
ATOM     37  N   UNL     1      31.259  32.934  15.743  1.00  0.00    -0.062 NA
BRANCH  36  38
ATOM     38  C   UNL     1      32.285  34.851  16.849  1.00  0.00     0.081 A 
ATOM     39  C   UNL     1      32.358  34.914  18.233  1.00  0.00     0.049 A 
ATOM     40  C   UNL     1      33.248  35.465  16.082  1.00  0.00     0.065 A 
ATOM     41  C   UNL     1      33.375  35.578  18.872  1.00  0.00     0.043 A 
ATOM     42  C   UNL     1      34.289  36.144  16.693  1.00  0.00     0.017 A 
ATOM     43  Cl  UNL     1      33.477  35.665  20.628  1.00  0.00    -0.084 Cl
ATOM     44  C   UNL     1      34.332  36.188  18.086  1.00  0.00     0.021 A 
BRANCH  40  45
ATOM     45  C   UNL     1      33.160  35.390  14.643  1.00  0.00     0.255 C 
ATOM     46  O   UNL     1      33.716  34.482  13.963  1.00  0.00    -0.269 OA
ATOM     47  N   UNL     1      32.425  36.367  13.932  1.00  0.00    -0.345 N 
ATOM     48  C   UNL     1      31.773  37.423  14.666  1.00  0.00     0.146 C 
ATOM     49  C   UNL     1      32.302  36.340  12.482  1.00  0.00     0.146 C 
ENDBRANCH  40  45
ENDBRANCH  36  38
ENDBRANCH  32  33
ENDBRANCH  31  32
ENDBRANCH   2  31
TORSDOF 16
BEGIN_RES LYS A 131
REMARK  4 active torsions:
REMARK  status: ('A' for Active; 'I' for Inactive)
REMARK    1  A    between atoms: CA   and  CB  
REMARK    2  A    between atoms: CB   and  CG  
REMARK    3  A    between atoms: CG   and  CD  
REMARK    4  A    between atoms: CD   and  CE  
ROOT
ATOM      1  CA  LYS A 131      29.867  25.555  16.977  1.00 20.52     0.186 C 
ENDROOT
BRANCH   1   2
ATOM      2  CB  LYS A 131      28.345  25.722  17.026  1.00 20.94     0.034 C 
BRANCH   2   3
ATOM      3  CG  LYS A 131      27.599  24.489  16.540  1.00 22.96     0.005 C 
BRANCH   3   4
ATOM      4  CD  LYS A 131      27.055  23.670  17.678  1.00 24.33     0.041 C 
BRANCH   4   5
ATOM      5  CE  LYS A 131      25.568  23.415  17.456  1.00 26.91     0.338 C 
ATOM      6  NZ  LYS A 131      24.841  24.696  17.287  1.00 27.40     0.618 N 
ENDBRANCH   4   5
ENDBRANCH   3   4
ENDBRANCH   2   3
ENDBRANCH   1   2
END_RES LYS A 131
BEGIN_RES LYS A 135
REMARK  4 active torsions:
REMARK  status: ('A' for Active; 'I' for Inactive)
REMARK    5  A    between atoms: CA   and  CB  
REMARK    6  A    between atoms: CB   and  CG  
REMARK    7  A    between atoms: CG   and  CD  
REMARK    8  A    between atoms: CD   and  CE  
ROOT
ATOM      7  CA  LYS A 135      33.193  34.663   9.290  1.00 25.02     0.186 C 
ENDROOT
BRANCH   7   8
ATOM      8  CB  LYS A 135      32.060  35.360  10.034  1.00 26.63     0.034 C 
BRANCH   8   9
ATOM      9  CG  LYS A 135      30.804  35.511   9.215  1.00 29.45     0.005 C 
BRANCH   9  10
ATOM     10  CD  LYS A 135      30.113  34.168   9.040  1.00 32.00     0.041 C 
BRANCH  10  11
ATOM     11  CE  LYS A 135      28.659  34.363   8.655  1.00 34.25     0.338 C 
ATOM     12  NZ  LYS A 135      27.755  33.632   9.586  1.00 35.99     0.618 N 
ENDBRANCH  10  11
ENDBRANCH   9  10
ENDBRANCH   8   9
ENDBRANCH   7   8
END_RES LYS A 135
