REMARK VINA RESULT:    -4.278      6.471     11.635
REMARK INTER + INTRA:         -14.696
REMARK INTER:                  -9.065
REMARK INTRA:                  -5.631
REMARK UNBOUND:                -7.042
REMARK SMILES CC(=O)N[C@@H]1[C@@H](O)C[C@](O)(C(=O)O)O[C@H]1C(O)[C@H](O)CNC(=O)OCc1cn(-c2ncccc2C#N)nn1
REMARK SMILES IDX 21 1 22 2 23 3 20 5 18 6 16 7 15 8 9 9 8 10 14 11 6 12 5 13
REMARK SMILES IDX 10 14 11 16 12 17 13 18 7 20 4 22 2 23 1 25 3 26 17 27 19 29
REMARK SMILES IDX 24 31 25 32 26 33 27 34 38 35 28 36 37 37 29 38 30 39 34 40
REMARK SMILES IDX 31 41 33 42 32 43 35 44 36 45
REMARK H PARENT 21 4 10 15 13 19 7 21 4 24 17 28 19 30
REMARK Flexibility Score: inf
ROOT
ATOM      1  N   UNL     1      26.889  28.157  18.049  1.00  0.00    -0.319 N 
ATOM      2  C   UNL     1      26.688  29.541  17.726  1.00  0.00     0.407 C 
ATOM      3  O   UNL     1      25.771  30.197  18.231  1.00  0.00    -0.225 OA
ATOM      4  H   UNL     1      27.739  27.734  17.547  1.00  0.00     0.167 HD
ENDROOT
BRANCH   1   5
ATOM      5  C   UNL     1      26.126  27.426  18.942  1.00  0.00     0.154 C 
BRANCH   5   6
ATOM      6  C   UNL     1      26.672  27.230  20.379  1.00  0.00     0.165 C 
BRANCH   6   7
ATOM      7  C   UNL     1      28.091  27.637  20.281  1.00  0.00     0.176 C 
BRANCH   7   8
ATOM      8  C   UNL     1      28.583  28.799  21.068  1.00  0.00     0.178 C 
ATOM      9  C   UNL     1      30.339  30.093  20.187  1.00  0.00     0.269 C 
ATOM     10  C   UNL     1      30.746  30.659  21.526  1.00  0.00     0.112 C 
ATOM     11  O   UNL     1      28.974  29.799  20.135  1.00  0.00    -0.332 OA
ATOM     12  C   UNL     1      29.919  30.006  22.651  1.00  0.00     0.145 C 
ATOM     13  C   UNL     1      29.609  28.598  22.088  1.00  0.00     0.142 C 
BRANCH   9  14
ATOM     14  O   UNL     1      31.159  29.032  19.837  1.00  0.00    -0.357 OA
ATOM     15  H   UNL     1      31.070  28.731  18.921  1.00  0.00     0.214 HD
ENDBRANCH   9  14
BRANCH   9  16
ATOM     16  C   UNL     1      30.503  31.196  19.218  1.00  0.00     0.364 C 
ATOM     17  O   UNL     1      30.746  32.332  19.355  1.00  0.00    -0.246 OA
BRANCH  16  18
ATOM     18  O   UNL     1      30.321  30.734  17.824  1.00  0.00    -0.477 OA
ATOM     19  H   UNL     1      30.545  31.423  17.103  1.00  0.00     0.296 HD
ENDBRANCH  16  18
ENDBRANCH   9  16
BRANCH  12  20
ATOM     20  O   UNL     1      30.635  29.938  23.818  1.00  0.00    -0.391 OA
ATOM     21  H   UNL     1      31.136  29.106  23.889  1.00  0.00     0.211 HD
ENDBRANCH  12  20
BRANCH  13  22
ATOM     22  N   UNL     1      29.167  27.779  23.227  1.00  0.00    -0.348 N 
ATOM     23  C   UNL     1      29.783  26.535  23.434  1.00  0.00     0.217 C 
ATOM     24  H   UNL     1      28.456  28.124  23.842  1.00  0.00     0.163 HD
ATOM     25  C   UNL     1      29.676  25.500  24.395  1.00  0.00     0.114 C 
ATOM     26  O   UNL     1      30.708  26.335  22.452  1.00  0.00    -0.275 OA
ENDBRANCH  13  22
ENDBRANCH   7   8
BRANCH   7  27
ATOM     27  O   UNL     1      28.919  26.558  20.169  1.00  0.00    -0.388 OA
ATOM     28  H   UNL     1      28.558  25.858  19.563  1.00  0.00     0.211 HD
ENDBRANCH   7  27
ENDBRANCH   6   7
BRANCH   6  29
ATOM     29  O   UNL     1      26.383  25.934  20.699  1.00  0.00    -0.388 OA
ATOM     30  H   UNL     1      26.416  25.819  21.681  1.00  0.00     0.211 HD
ENDBRANCH   6  29
ENDBRANCH   5   6
ENDBRANCH   1   5
BRANCH   2  31
ATOM     31  O   UNL     1      27.559  30.151  16.820  1.00  0.00    -0.443 OA
BRANCH  31  32
ATOM     32  C   UNL     1      27.081  31.138  15.881  1.00  0.00     0.294 C 
BRANCH  32  33
ATOM     33  C   UNL     1      28.196  32.156  15.875  1.00  0.00     0.121 A 
ATOM     34  C   UNL     1      29.143  32.317  14.908  1.00  0.00     0.146 A 
ATOM     35  N   UNL     1      28.358  33.111  16.790  1.00  0.00    -0.131 NA
ATOM     36  N   UNL     1      29.869  33.414  15.285  1.00  0.00    -0.201 N 
ATOM     37  N   UNL     1      29.356  33.868  16.437  1.00  0.00    -0.060 NA
BRANCH  36  38
ATOM     38  C   UNL     1      30.934  33.993  14.602  1.00  0.00     0.173 A 
ATOM     39  N   UNL     1      32.221  33.971  15.149  1.00  0.00    -0.236 NA
ATOM     40  C   UNL     1      30.847  34.706  13.425  1.00  0.00     0.097 A 
ATOM     41  C   UNL     1      33.171  34.576  14.570  1.00  0.00     0.113 A 
ATOM     42  C   UNL     1      31.848  35.335  12.833  1.00  0.00     0.025 A 
ATOM     43  C   UNL     1      33.169  35.331  13.370  1.00  0.00     0.022 A 
BRANCH  40  44
ATOM     44  C   UNL     1      29.477  34.847  12.794  1.00  0.00     0.103 C 
ATOM     45  N   UNL     1      28.564  34.924  12.368  1.00  0.00    -0.192 NA
ENDBRANCH  40  44
ENDBRANCH  36  38
ENDBRANCH  32  33
ENDBRANCH  31  32
ENDBRANCH   2  31
TORSDOF 16
BEGIN_RES LYS A 131
REMARK  4 active torsions:
REMARK  status: ('A' for Active; 'I' for Inactive)
REMARK    1  A    between atoms: CA   and  CB  
REMARK    2  A    between atoms: CB   and  CG  
REMARK    3  A    between atoms: CG   and  CD  
REMARK    4  A    between atoms: CD   and  CE  
ROOT
ATOM      1  CA  LYS A 131      29.867  25.555  16.977  1.00 20.52     0.186 C 
ENDROOT
BRANCH   1   2
ATOM      2  CB  LYS A 131      28.345  25.722  17.026  1.00 20.94     0.034 C 
BRANCH   2   3
ATOM      3  CG  LYS A 131      27.599  24.437  16.700  1.00 22.96     0.005 C 
BRANCH   3   4
ATOM      4  CD  LYS A 131      26.962  23.828  17.918  1.00 24.33     0.041 C 
BRANCH   4   5
ATOM      5  CE  LYS A 131      25.449  23.783  17.733  1.00 26.91     0.338 C 
ATOM      6  NZ  LYS A 131      24.959  22.386  17.793  1.00 27.40     0.618 N 
ENDBRANCH   4   5
ENDBRANCH   3   4
ENDBRANCH   2   3
ENDBRANCH   1   2
END_RES LYS A 131
BEGIN_RES LYS A 135
REMARK  4 active torsions:
REMARK  status: ('A' for Active; 'I' for Inactive)
REMARK    5  A    between atoms: CA   and  CB  
REMARK    6  A    between atoms: CB   and  CG  
REMARK    7  A    between atoms: CG   and  CD  
REMARK    8  A    between atoms: CD   and  CE  
ROOT
ATOM      7  CA  LYS A 135      33.193  34.663   9.290  1.00 25.02     0.186 C 
ENDROOT
BRANCH   7   8
ATOM      8  CB  LYS A 135      32.060  35.360  10.034  1.00 26.63     0.034 C 
BRANCH   8   9
ATOM      9  CG  LYS A 135      30.820  35.552   9.200  1.00 29.45     0.005 C 
BRANCH   9  10
ATOM     10  CD  LYS A 135      30.036  34.253   9.097  1.00 32.00     0.041 C 
BRANCH  10  11
ATOM     11  CE  LYS A 135      28.734  34.474   8.350  1.00 34.25     0.338 C 
ATOM     12  NZ  LYS A 135      27.944  35.577   8.964  1.00 35.99     0.618 N 
ENDBRANCH  10  11
ENDBRANCH   9  10
ENDBRANCH   8   9
ENDBRANCH   7   8
END_RES LYS A 135
