REMARK VINA RESULT:    -4.998      2.283      3.297
REMARK INTER + INTRA:         -13.812
REMARK INTER:                  -8.140
REMARK INTRA:                  -5.672
REMARK UNBOUND:                -4.724
REMARK SMILES CC(=O)N[C@@H]1[C@@H](O)C[C@](O)(C(=O)O)O[C@H]1C(O)[C@H](O)CNC(=O)OCc1cn([C@@H](C)C(=O)O)nn1
REMARK SMILES IDX 21 1 22 2 23 3 20 5 18 6 16 7 15 8 9 9 8 10 14 11 6 12 5 13
REMARK SMILES IDX 10 14 11 16 12 17 13 18 7 20 4 22 2 23 1 25 3 26 17 27 19 29
REMARK SMILES IDX 24 31 25 32 26 33 27 34 35 35 28 36 34 37 29 38 30 39 31 40
REMARK SMILES IDX 32 41 33 42
REMARK H PARENT 21 4 10 15 13 19 7 21 4 24 17 28 19 30 33 43
REMARK Flexibility Score: inf
ROOT
ATOM      1  N   UNL     1      29.717  31.084  16.219  1.00  0.00    -0.319 N 
ATOM      2  C   UNL     1      28.343  31.012  16.542  1.00  0.00     0.407 C 
ATOM      3  O   UNL     1      27.845  31.697  17.471  1.00  0.00    -0.225 OA
ATOM      4  H   UNL     1      30.078  30.497  15.443  1.00  0.00     0.167 HD
ENDROOT
BRANCH   1   5
ATOM      5  C   UNL     1      30.621  31.941  16.928  1.00  0.00     0.154 C 
BRANCH   5   6
ATOM      6  C   UNL     1      31.428  32.855  16.000  1.00  0.00     0.165 C 
BRANCH   6   7
ATOM      7  C   UNL     1      30.595  34.060  15.732  1.00  0.00     0.176 C 
BRANCH   7   8
ATOM      8  C   UNL     1      31.288  35.379  15.796  1.00  0.00     0.178 C 
ATOM      9  C   UNL     1      30.790  36.150  13.649  1.00  0.00     0.269 C 
ATOM     10  C   UNL     1      31.946  35.355  13.188  1.00  0.00     0.112 C 
ATOM     11  O   UNL     1      30.575  36.261  14.997  1.00  0.00    -0.332 OA
ATOM     12  C   UNL     1      33.120  35.262  14.097  1.00  0.00     0.145 C 
ATOM     13  C   UNL     1      32.747  35.401  15.545  1.00  0.00     0.142 C 
BRANCH   9  14
ATOM     14  O   UNL     1      29.635  35.498  13.141  1.00  0.00    -0.357 OA
ATOM     15  H   UNL     1      29.256  34.973  13.878  1.00  0.00     0.214 HD
ENDBRANCH   9  14
BRANCH   9  16
ATOM     16  C   UNL     1      30.822  37.489  13.000  1.00  0.00     0.364 C 
ATOM     17  O   UNL     1      30.413  37.670  11.820  1.00  0.00    -0.246 OA
BRANCH  16  18
ATOM     18  O   UNL     1      31.306  38.595  13.677  1.00  0.00    -0.477 OA
ATOM     19  H   UNL     1      31.176  39.549  13.357  1.00  0.00     0.296 HD
ENDBRANCH  16  18
ENDBRANCH   9  16
BRANCH  12  20
ATOM     20  O   UNL     1      33.750  34.030  13.842  1.00  0.00    -0.391 OA
ATOM     21  H   UNL     1      34.041  34.063  12.898  1.00  0.00     0.211 HD
ENDBRANCH  12  20
BRANCH  13  22
ATOM     22  N   UNL     1      33.228  36.713  16.023  1.00  0.00    -0.348 N 
ATOM     23  C   UNL     1      34.467  36.839  16.691  1.00  0.00     0.217 C 
ATOM     24  H   UNL     1      32.680  37.583  15.890  1.00  0.00     0.163 HD
ATOM     25  C   UNL     1      34.988  38.126  17.186  1.00  0.00     0.114 C 
ATOM     26  O   UNL     1      35.188  35.805  16.886  1.00  0.00    -0.275 OA
ENDBRANCH  13  22
ENDBRANCH   7   8
BRANCH   7  27
ATOM     27  O   UNL     1      29.649  34.099  16.808  1.00  0.00    -0.388 OA
ATOM     28  H   UNL     1      28.951  34.727  16.494  1.00  0.00     0.211 HD
ENDBRANCH   7  27
ENDBRANCH   6   7
BRANCH   6  29
ATOM     29  O   UNL     1      31.640  32.106  14.849  1.00  0.00    -0.388 OA
ATOM     30  H   UNL     1      32.213  31.338  15.102  1.00  0.00     0.211 HD
ENDBRANCH   6  29
ENDBRANCH   5   6
ENDBRANCH   1   5
BRANCH   2  31
ATOM     31  O   UNL     1      27.475  30.163  15.829  1.00  0.00    -0.443 OA
BRANCH  31  32
ATOM     32  C   UNL     1      26.073  30.254  15.999  1.00  0.00     0.294 C 
BRANCH  32  33
ATOM     33  C   UNL     1      25.447  31.028  14.898  1.00  0.00     0.120 A 
ATOM     34  C   UNL     1      25.552  32.406  14.694  1.00  0.00     0.139 A 
ATOM     35  N   UNL     1      24.665  30.594  13.885  1.00  0.00    -0.132 NA
ATOM     36  N   UNL     1      24.855  32.737  13.604  1.00  0.00    -0.238 N 
ATOM     37  N   UNL     1      24.324  31.642  13.121  1.00  0.00    -0.066 NA
BRANCH  36  38
ATOM     38  C   UNL     1      24.699  34.079  13.032  1.00  0.00     0.215 C 
ATOM     39  C   UNL     1      24.202  35.038  14.101  1.00  0.00     0.046 C 
BRANCH  38  40
ATOM     40  C   UNL     1      25.942  34.570  12.441  1.00  0.00     0.328 C 
ATOM     41  O   UNL     1      26.670  35.361  13.083  1.00  0.00    -0.250 OA
BRANCH  40  42
ATOM     42  O   UNL     1      26.391  34.212  11.171  1.00  0.00    -0.480 OA
ATOM     43  H   UNL     1      26.172  34.778  10.360  1.00  0.00     0.296 HD
ENDBRANCH  40  42
ENDBRANCH  38  40
ENDBRANCH  36  38
ENDBRANCH  32  33
ENDBRANCH  31  32
ENDBRANCH   2  31
TORSDOF 17
BEGIN_RES LYS A 131
REMARK  4 active torsions:
REMARK  status: ('A' for Active; 'I' for Inactive)
REMARK    1  A    between atoms: CA   and  CB  
REMARK    2  A    between atoms: CB   and  CG  
REMARK    3  A    between atoms: CG   and  CD  
REMARK    4  A    between atoms: CD   and  CE  
ROOT
ATOM      1  CA  LYS A 131      29.867  25.555  16.977  1.00 20.52     0.186 C 
ENDROOT
BRANCH   1   2
ATOM      2  CB  LYS A 131      28.345  25.722  17.026  1.00 20.94     0.034 C 
BRANCH   2   3
ATOM      3  CG  LYS A 131      27.601  24.404  16.879  1.00 22.96     0.005 C 
BRANCH   3   4
ATOM      4  CD  LYS A 131      26.158  24.519  17.285  1.00 24.33     0.041 C 
BRANCH   4   5
ATOM      5  CE  LYS A 131      25.653  23.162  17.764  1.00 26.91     0.338 C 
ATOM      6  NZ  LYS A 131      25.499  23.157  19.238  1.00 27.40     0.618 N 
ENDBRANCH   4   5
ENDBRANCH   3   4
ENDBRANCH   2   3
ENDBRANCH   1   2
END_RES LYS A 131
BEGIN_RES LYS A 135
REMARK  4 active torsions:
REMARK  status: ('A' for Active; 'I' for Inactive)
REMARK    5  A    between atoms: CA   and  CB  
REMARK    6  A    between atoms: CB   and  CG  
REMARK    7  A    between atoms: CG   and  CD  
REMARK    8  A    between atoms: CD   and  CE  
ROOT
ATOM      7  CA  LYS A 135      33.193  34.663   9.290  1.00 25.02     0.186 C 
ENDROOT
BRANCH   7   8
ATOM      8  CB  LYS A 135      32.060  35.360  10.034  1.00 26.63     0.034 C 
BRANCH   8   9
ATOM      9  CG  LYS A 135      30.710  34.732   9.801  1.00 29.45     0.005 C 
BRANCH   9  10
ATOM     10  CD  LYS A 135      30.477  34.496   8.316  1.00 32.00     0.041 C 
BRANCH  10  11
ATOM     11  CE  LYS A 135      29.053  34.853   7.937  1.00 34.25     0.338 C 
ATOM     12  NZ  LYS A 135      28.983  36.212   7.333  1.00 35.99     0.618 N 
ENDBRANCH  10  11
ENDBRANCH   9  10
ENDBRANCH   8   9
ENDBRANCH   7   8
END_RES LYS A 135
