REMARK VINA RESULT:    -5.617      7.391     12.982
REMARK INTER + INTRA:         -15.387
REMARK INTER:                  -9.490
REMARK INTRA:                  -5.897
REMARK UNBOUND:                -5.337
REMARK SMILES CC(=O)N[C@@H]1[C@@H](O)C[C@](O)(C(=O)O)O[C@H]1C(O)[C@H](O)CNC(=O)OCc1cn(CC2=CC[C@H]3C[C@@H]2C3(C)C)nn1
REMARK SMILES IDX 21 1 22 2 23 3 20 5 18 6 16 7 15 8 9 9 8 10 14 11 6 12 5 13
REMARK SMILES IDX 10 14 11 16 12 17 13 18 7 20 4 22 2 23 1 25 3 26 17 27 19 29
REMARK SMILES IDX 24 31 25 32 26 33 27 34 40 35 28 36 39 37 29 38 30 39 31 40
REMARK SMILES IDX 35 41 32 42 34 43 36 44 33 45 37 46 38 47
REMARK H PARENT 21 4 10 15 13 19 7 21 4 24 17 28 19 30
REMARK Flexibility Score: inf
ROOT
ATOM      1  N   UNL     1      22.163  39.944   8.098  1.00  0.00    -0.319 N 
ATOM      2  C   UNL     1      22.659  40.976   7.229  1.00  0.00     0.407 C 
ATOM      3  O   UNL     1      21.831  41.742   6.673  1.00  0.00    -0.225 OA
ATOM      4  H   UNL     1      22.845  39.307   8.561  1.00  0.00     0.167 HD
ENDROOT
BRANCH   1   5
ATOM      5  C   UNL     1      20.738  39.809   8.312  1.00  0.00     0.154 C 
BRANCH   5   6
ATOM      6  C   UNL     1      20.455  38.383   8.692  1.00  0.00     0.165 C 
BRANCH   6   7
ATOM      7  C   UNL     1      21.720  37.573   8.865  1.00  0.00     0.176 C 
BRANCH   7   8
ATOM      8  C   UNL     1      21.733  37.060  10.287  1.00  0.00     0.178 C 
ATOM      9  C   UNL     1      23.944  36.546  10.751  1.00  0.00     0.269 C 
ATOM     10  C   UNL     1      23.658  35.083  11.002  1.00  0.00     0.112 C 
ATOM     11  O   UNL     1      22.865  37.365  10.984  1.00  0.00    -0.332 OA
ATOM     12  C   UNL     1      22.210  34.953  11.404  1.00  0.00     0.145 C 
ATOM     13  C   UNL     1      21.384  35.590  10.305  1.00  0.00     0.142 C 
BRANCH   9  14
ATOM     14  O   UNL     1      24.474  36.704   9.467  1.00  0.00    -0.357 OA
ATOM     15  H   UNL     1      24.660  35.782   9.138  1.00  0.00     0.214 HD
ENDBRANCH   9  14
BRANCH   9  16
ATOM     16  C   UNL     1      25.019  36.943  11.708  1.00  0.00     0.364 C 
ATOM     17  O   UNL     1      25.722  36.032  12.263  1.00  0.00    -0.246 OA
BRANCH  16  18
ATOM     18  O   UNL     1      25.293  38.256  12.024  1.00  0.00    -0.477 OA
ATOM     19  H   UNL     1      25.495  38.949  11.308  1.00  0.00     0.296 HD
ENDBRANCH  16  18
ENDBRANCH   9  16
BRANCH  12  20
ATOM     20  O   UNL     1      21.816  33.636  11.540  1.00  0.00    -0.391 OA
ATOM     21  H   UNL     1      20.980  33.630  12.073  1.00  0.00     0.211 HD
ENDBRANCH  12  20
BRANCH  13  22
ATOM     22  N   UNL     1      19.976  35.347  10.487  1.00  0.00    -0.348 N 
ATOM     23  C   UNL     1      19.151  34.899   9.424  1.00  0.00     0.217 C 
ATOM     24  H   UNL     1      19.570  35.510  11.434  1.00  0.00     0.163 HD
ATOM     25  C   UNL     1      17.706  34.674   9.701  1.00  0.00     0.114 C 
ATOM     26  O   UNL     1      19.635  34.701   8.281  1.00  0.00    -0.275 OA
ENDBRANCH  13  22
ENDBRANCH   7   8
BRANCH   7  27
ATOM     27  O   UNL     1      21.721  36.469   8.017  1.00  0.00    -0.388 OA
ATOM     28  H   UNL     1      20.830  36.144   7.803  1.00  0.00     0.211 HD
ENDBRANCH   7  27
ENDBRANCH   6   7
BRANCH   6  29
ATOM     29  O   UNL     1      19.716  37.824   7.628  1.00  0.00    -0.388 OA
ATOM     30  H   UNL     1      19.111  37.106   7.968  1.00  0.00     0.211 HD
ENDBRANCH   6  29
ENDBRANCH   5   6
ENDBRANCH   1   5
BRANCH   2  31
ATOM     31  O   UNL     1      23.991  41.163   6.980  1.00  0.00    -0.443 OA
BRANCH  31  32
ATOM     32  C   UNL     1      24.865  40.143   6.528  1.00  0.00     0.294 C 
BRANCH  32  33
ATOM     33  C   UNL     1      25.743  39.699   7.631  1.00  0.00     0.120 A 
ATOM     34  C   UNL     1      27.061  39.312   7.579  1.00  0.00     0.138 A 
ATOM     35  N   UNL     1      25.380  39.596   8.917  1.00  0.00    -0.132 NA
ATOM     36  N   UNL     1      27.477  38.981   8.837  1.00  0.00    -0.248 N 
ATOM     37  N   UNL     1      26.428  39.166   9.625  1.00  0.00    -0.067 NA
BRANCH  36  38
ATOM     38  C   UNL     1      28.803  38.527   9.179  1.00  0.00     0.177 C 
BRANCH  38  39
ATOM     39  C   UNL     1      28.955  37.054   8.913  1.00  0.00    -0.049 C 
ATOM     40  C   UNL     1      30.042  36.567   8.322  1.00  0.00    -0.025 C 
ATOM     41  C   UNL     1      27.901  36.095   9.300  1.00  0.00     0.023 C 
ATOM     42  C   UNL     1      30.245  35.093   8.309  1.00  0.00     0.031 C 
ATOM     43  C   UNL     1      28.599  35.015  10.141  1.00  0.00     0.013 C 
ATOM     44  C   UNL     1      27.763  35.041   8.220  1.00  0.00    -0.026 C 
ATOM     45  C   UNL     1      29.022  34.396   8.819  1.00  0.00    -0.000 C 
ATOM     46  C   UNL     1      26.584  34.128   8.405  1.00  0.00     0.012 C 
ATOM     47  C   UNL     1      27.914  35.521   6.816  1.00  0.00     0.012 C 
ENDBRANCH  38  39
ENDBRANCH  36  38
ENDBRANCH  32  33
ENDBRANCH  31  32
ENDBRANCH   2  31
TORSDOF 16
BEGIN_RES LYS A 131
REMARK  4 active torsions:
REMARK  status: ('A' for Active; 'I' for Inactive)
REMARK    1  A    between atoms: CA   and  CB  
REMARK    2  A    between atoms: CB   and  CG  
REMARK    3  A    between atoms: CG   and  CD  
REMARK    4  A    between atoms: CD   and  CE  
ROOT
ATOM      1  CA  LYS A 131      29.867  25.555  16.977  1.00 20.52     0.186 C 
ENDROOT
BRANCH   1   2
ATOM      2  CB  LYS A 131      28.345  25.722  17.026  1.00 20.94     0.034 C 
BRANCH   2   3
ATOM      3  CG  LYS A 131      27.601  24.402  16.889  1.00 22.96     0.005 C 
BRANCH   3   4
ATOM      4  CD  LYS A 131      26.373  24.352  17.756  1.00 24.33     0.041 C 
BRANCH   4   5
ATOM      5  CE  LYS A 131      25.672  23.010  17.568  1.00 26.91     0.338 C 
ATOM      6  NZ  LYS A 131      24.261  23.214  17.164  1.00 27.40     0.618 N 
ENDBRANCH   4   5
ENDBRANCH   3   4
ENDBRANCH   2   3
ENDBRANCH   1   2
END_RES LYS A 131
BEGIN_RES LYS A 135
REMARK  4 active torsions:
REMARK  status: ('A' for Active; 'I' for Inactive)
REMARK    5  A    between atoms: CA   and  CB  
REMARK    6  A    between atoms: CB   and  CG  
REMARK    7  A    between atoms: CG   and  CD  
REMARK    8  A    between atoms: CD   and  CE  
ROOT
ATOM      7  CA  LYS A 135      33.193  34.663   9.290  1.00 25.02     0.186 C 
ENDROOT
BRANCH   7   8
ATOM      8  CB  LYS A 135      32.060  35.360  10.034  1.00 26.63     0.034 C 
BRANCH   8   9
ATOM      9  CG  LYS A 135      32.415  35.747  11.446  1.00 29.45     0.005 C 
BRANCH   9  10
ATOM     10  CD  LYS A 135      31.591  36.943  11.899  1.00 32.00     0.041 C 
BRANCH  10  11
ATOM     11  CE  LYS A 135      31.895  38.155  11.039  1.00 34.25     0.338 C 
ATOM     12  NZ  LYS A 135      31.423  39.407  11.692  1.00 35.99     0.618 N 
ENDBRANCH  10  11
ENDBRANCH   9  10
ENDBRANCH   8   9
ENDBRANCH   7   8
END_RES LYS A 135
