REMARK VINA RESULT:    -4.865      4.374      9.237
REMARK INTER + INTRA:         -13.697
REMARK INTER:                  -8.563
REMARK INTRA:                  -5.134
REMARK UNBOUND:                -5.134
REMARK SMILES CC(=O)N[C@@H]1[C@@H](O)C[C@](O)(C(=O)O)O[C@H]1C(O)[C@H](O)CNC(=O)OCc1cn(-c2nc(C)nc(N)n2)nn1
REMARK SMILES IDX 21 1 22 2 23 3 20 5 18 6 16 7 15 8 9 9 8 10 14 11 6 12 5 13
REMARK SMILES IDX 10 14 11 16 12 17 13 18 7 20 4 22 2 23 1 25 3 26 17 27 19 29
REMARK SMILES IDX 24 31 25 32 26 33 27 34 38 35 28 36 37 37 29 38 36 39 30 40
REMARK SMILES IDX 34 41 31 42 33 43 32 44 35 45
REMARK H PARENT 21 4 10 15 13 19 7 21 4 24 17 28 19 30 35 46 35 47
REMARK Flexibility Score: inf
ROOT
ATOM      1  N   UNL     1      29.504  35.454  12.888  1.00  0.00    -0.319 N 
ATOM      2  C   UNL     1      29.310  36.660  12.187  1.00  0.00     0.407 C 
ATOM      3  O   UNL     1      30.175  37.559  12.084  1.00  0.00    -0.225 OA
ATOM      4  H   UNL     1      28.747  34.709  12.950  1.00  0.00     0.167 HD
ENDROOT
BRANCH   1   5
ATOM      5  C   UNL     1      30.765  35.205  13.553  1.00  0.00     0.154 C 
BRANCH   5   6
ATOM      6  C   UNL     1      30.496  34.559  14.875  1.00  0.00     0.165 C 
BRANCH   6   7
ATOM      7  C   UNL     1      29.763  33.248  14.678  1.00  0.00     0.176 C 
BRANCH   7   8
ATOM      8  C   UNL     1      28.852  33.038  15.878  1.00  0.00     0.178 C 
ATOM      9  C   UNL     1      28.454  30.769  16.376  1.00  0.00     0.269 C 
ATOM     10  C   UNL     1      27.100  30.827  15.742  1.00  0.00     0.112 C 
ATOM     11  O   UNL     1      29.171  31.885  16.464  1.00  0.00    -0.332 OA
ATOM     12  C   UNL     1      26.504  32.192  16.063  1.00  0.00     0.145 C 
ATOM     13  C   UNL     1      27.444  33.172  15.363  1.00  0.00     0.142 C 
BRANCH   9  14
ATOM     14  O   UNL     1      29.195  29.824  15.627  1.00  0.00    -0.357 OA
ATOM     15  H   UNL     1      29.456  29.052  16.181  1.00  0.00     0.214 HD
ENDBRANCH   9  14
BRANCH   9  16
ATOM     16  C   UNL     1      28.280  30.182  17.729  1.00  0.00     0.364 C 
ATOM     17  O   UNL     1      27.227  29.565  18.031  1.00  0.00    -0.246 OA
BRANCH  16  18
ATOM     18  O   UNL     1      29.255  30.285  18.707  1.00  0.00    -0.477 OA
ATOM     19  H   UNL     1      29.219  30.983  19.452  1.00  0.00     0.296 HD
ENDBRANCH  16  18
ENDBRANCH   9  16
BRANCH  12  20
ATOM     20  O   UNL     1      25.243  32.342  15.519  1.00  0.00    -0.391 OA
ATOM     21  H   UNL     1      25.335  32.932  14.718  1.00  0.00     0.211 HD
ENDBRANCH  12  20
BRANCH  13  22
ATOM     22  N   UNL     1      26.966  34.531  15.494  1.00  0.00    -0.348 N 
ATOM     23  C   UNL     1      26.468  35.243  14.374  1.00  0.00     0.217 C 
ATOM     24  H   UNL     1      27.014  34.943  16.453  1.00  0.00     0.163 HD
ATOM     25  C   UNL     1      25.995  36.630  14.575  1.00  0.00     0.114 C 
ATOM     26  O   UNL     1      26.416  34.738  13.231  1.00  0.00    -0.275 OA
ENDBRANCH  13  22
ENDBRANCH   7   8
BRANCH   7  27
ATOM     27  O   UNL     1      30.725  32.203  14.647  1.00  0.00    -0.388 OA
ATOM     28  H   UNL     1      31.133  32.280  13.737  1.00  0.00     0.211 HD
ENDBRANCH   7  27
ENDBRANCH   6   7
BRANCH   6  29
ATOM     29  O   UNL     1      29.747  35.441  15.669  1.00  0.00    -0.388 OA
ATOM     30  H   UNL     1      29.267  34.964  16.369  1.00  0.00     0.211 HD
ENDBRANCH   6  29
ENDBRANCH   5   6
ENDBRANCH   1   5
BRANCH   2  31
ATOM     31  O   UNL     1      28.073  36.879  11.558  1.00  0.00    -0.443 OA
BRANCH  31  32
ATOM     32  C   UNL     1      28.065  37.673  10.391  1.00  0.00     0.294 C 
BRANCH  32  33
ATOM     33  C   UNL     1      26.840  37.340   9.593  1.00  0.00     0.121 A 
ATOM     34  C   UNL     1      25.599  36.967  10.076  1.00  0.00     0.148 A 
ATOM     35  N   UNL     1      26.695  37.335   8.248  1.00  0.00    -0.131 NA
ATOM     36  N   UNL     1      24.755  36.751   9.047  1.00  0.00    -0.185 N 
ATOM     37  N   UNL     1      25.448  36.981   7.955  1.00  0.00    -0.059 NA
BRANCH  36  38
ATOM     38  C   UNL     1      23.383  36.352   9.140  1.00  0.00     0.257 A 
ATOM     39  N   UNL     1      22.509  36.578   8.142  1.00  0.00    -0.175 NA
ATOM     40  N   UNL     1      22.917  35.732  10.242  1.00  0.00    -0.196 NA
ATOM     41  C   UNL     1      21.216  36.221   8.190  1.00  0.00     0.225 A 
ATOM     42  C   UNL     1      21.620  35.346  10.351  1.00  0.00     0.133 A 
ATOM     43  N   UNL     1      20.799  35.598   9.326  1.00  0.00    -0.198 NA
ATOM     44  C   UNL     1      21.094  34.660  11.562  1.00  0.00     0.090 C 
BRANCH  41  45
ATOM     45  N   UNL     1      20.298  36.456   7.146  1.00  0.00    -0.368 N 
ATOM     46  H   UNL     1      20.050  35.698   6.497  1.00  0.00     0.159 HD
ATOM     47  H   UNL     1      19.877  37.390   7.035  1.00  0.00     0.159 HD
ENDBRANCH  41  45
ENDBRANCH  36  38
ENDBRANCH  32  33
ENDBRANCH  31  32
ENDBRANCH   2  31
TORSDOF 16
BEGIN_RES LYS A 131
REMARK  4 active torsions:
REMARK  status: ('A' for Active; 'I' for Inactive)
REMARK    1  A    between atoms: CA   and  CB  
REMARK    2  A    between atoms: CB   and  CG  
REMARK    3  A    between atoms: CG   and  CD  
REMARK    4  A    between atoms: CD   and  CE  
ROOT
ATOM      1  CA  LYS A 131      29.867  25.555  16.977  1.00 20.52     0.186 C 
ENDROOT
BRANCH   1   2
ATOM      2  CB  LYS A 131      28.345  25.722  17.026  1.00 20.94     0.034 C 
BRANCH   2   3
ATOM      3  CG  LYS A 131      27.601  24.401  16.902  1.00 22.96     0.005 C 
BRANCH   3   4
ATOM      4  CD  LYS A 131      26.163  24.519  17.324  1.00 24.33     0.041 C 
BRANCH   4   5
ATOM      5  CE  LYS A 131      25.813  23.369  18.264  1.00 26.91     0.338 C 
ATOM      6  NZ  LYS A 131      25.472  23.885  19.610  1.00 27.40     0.618 N 
ENDBRANCH   4   5
ENDBRANCH   3   4
ENDBRANCH   2   3
ENDBRANCH   1   2
END_RES LYS A 131
BEGIN_RES LYS A 135
REMARK  4 active torsions:
REMARK  status: ('A' for Active; 'I' for Inactive)
REMARK    5  A    between atoms: CA   and  CB  
REMARK    6  A    between atoms: CB   and  CG  
REMARK    7  A    between atoms: CG   and  CD  
REMARK    8  A    between atoms: CD   and  CE  
ROOT
ATOM      7  CA  LYS A 135      33.193  34.663   9.290  1.00 25.02     0.186 C 
ENDROOT
BRANCH   7   8
ATOM      8  CB  LYS A 135      32.060  35.360  10.034  1.00 26.63     0.034 C 
BRANCH   8   9
ATOM      9  CG  LYS A 135      30.796  35.488   9.223  1.00 29.45     0.005 C 
BRANCH   9  10
ATOM     10  CD  LYS A 135      30.122  34.134   9.062  1.00 32.00     0.041 C 
BRANCH  10  11
ATOM     11  CE  LYS A 135      28.659  34.307   8.700  1.00 34.25     0.338 C 
ATOM     12  NZ  LYS A 135      27.775  33.804   9.787  1.00 35.99     0.618 N 
ENDBRANCH  10  11
ENDBRANCH   9  10
ENDBRANCH   8   9
ENDBRANCH   7   8
END_RES LYS A 135
