REMARK VINA RESULT:    -5.476      5.536      8.892
REMARK INTER + INTRA:         -13.974
REMARK INTER:                  -9.598
REMARK INTRA:                  -4.377
REMARK UNBOUND:                -4.497
REMARK SMILES CC(=O)N[C@@H]1[C@@H](O)C[C@](O)(C(=O)O)O[C@H]1C(O)[C@H](O)CNC(=O)OCc1cn(-c2cccc(Cl)c2)nn1
REMARK SMILES IDX 20 1 18 2 16 3 15 4 9 5 8 6 14 7 6 8 5 9 10 10 11 12 12 13
REMARK SMILES IDX 13 14 7 16 4 18 2 19 1 21 3 22 17 23 19 25 21 27 22 28 23 30
REMARK SMILES IDX 24 31 25 32 26 33 27 34 37 35 28 36 36 37 29 38 30 39 35 40
REMARK SMILES IDX 31 41 33 42 32 43 34 44
REMARK H PARENT 10 11 13 15 7 17 4 20 17 24 19 26 21 29
REMARK Flexibility Score: inf
ROOT
ATOM      1  C   UNL     1      28.282  36.107  12.031  1.00  0.00     0.154 C 
ENDROOT
BRANCH   1   2
ATOM      2  C   UNL     1      29.338  35.980  13.091  1.00  0.00     0.165 C 
BRANCH   2   3
ATOM      3  C   UNL     1      29.523  34.571  13.574  1.00  0.00     0.176 C 
BRANCH   3   4
ATOM      4  C   UNL     1      29.636  34.528  15.100  1.00  0.00     0.178 C 
ATOM      5  C   UNL     1      31.869  34.443  15.832  1.00  0.00     0.269 C 
ATOM      6  C   UNL     1      31.486  33.317  16.782  1.00  0.00     0.112 C 
ATOM      7  O   UNL     1      30.772  35.138  15.457  1.00  0.00    -0.332 OA
ATOM      8  C   UNL     1      30.658  32.372  15.912  1.00  0.00     0.145 C 
ATOM      9  C   UNL     1      29.411  33.124  15.537  1.00  0.00     0.142 C 
BRANCH   5  10
ATOM     10  O   UNL     1      32.557  33.841  14.786  1.00  0.00    -0.357 OA
ATOM     11  H   UNL     1      32.692  32.887  15.008  1.00  0.00     0.214 HD
ENDBRANCH   5  10
BRANCH   5  12
ATOM     12  C   UNL     1      32.794  35.371  16.524  1.00  0.00     0.364 C 
ATOM     13  O   UNL     1      32.983  35.236  17.755  1.00  0.00    -0.246 OA
BRANCH  12  14
ATOM     14  O   UNL     1      33.465  36.391  15.867  1.00  0.00    -0.477 OA
ATOM     15  H   UNL     1      34.078  36.141  15.083  1.00  0.00     0.296 HD
ENDBRANCH  12  14
ENDBRANCH   5  12
BRANCH   8  16
ATOM     16  O   UNL     1      31.328  32.039  14.740  1.00  0.00    -0.391 OA
ATOM     17  H   UNL     1      31.406  31.050  14.617  1.00  0.00     0.211 HD
ENDBRANCH   8  16
BRANCH   9  18
ATOM     18  N   UNL     1      28.529  33.074  16.684  1.00  0.00    -0.348 N 
ATOM     19  C   UNL     1      27.431  32.175  16.687  1.00  0.00     0.217 C 
ATOM     20  H   UNL     1      28.684  33.700  17.527  1.00  0.00     0.163 HD
ATOM     21  C   UNL     1      26.531  32.130  17.868  1.00  0.00     0.114 C 
ATOM     22  O   UNL     1      27.231  31.427  15.696  1.00  0.00    -0.275 OA
ENDBRANCH   9  18
ENDBRANCH   3   4
BRANCH   3  23
ATOM     23  O   UNL     1      30.729  34.112  13.002  1.00  0.00    -0.388 OA
ATOM     24  H   UNL     1      31.057  33.326  13.460  1.00  0.00     0.211 HD
ENDBRANCH   3  23
ENDBRANCH   2   3
BRANCH   2  25
ATOM     25  O   UNL     1      28.979  36.788  14.184  1.00  0.00    -0.388 OA
ATOM     26  H   UNL     1      28.464  36.253  14.813  1.00  0.00     0.211 HD
ENDBRANCH   2  25
ENDBRANCH   1   2
BRANCH   1  27
ATOM     27  N   UNL     1      27.517  34.867  11.943  1.00  0.00    -0.319 N 
ATOM     28  C   UNL     1      26.154  34.828  12.328  1.00  0.00     0.407 C 
ATOM     29  H   UNL     1      28.004  34.019  11.591  1.00  0.00     0.167 HD
ATOM     30  O   UNL     1      25.607  35.879  12.749  1.00  0.00    -0.225 OA
BRANCH  28  31
ATOM     31  O   UNL     1      25.392  33.673  12.261  1.00  0.00    -0.443 OA
BRANCH  31  32
ATOM     32  C   UNL     1      25.002  33.059  13.469  1.00  0.00     0.294 C 
BRANCH  32  33
ATOM     33  C   UNL     1      24.122  31.899  13.168  1.00  0.00     0.121 A 
ATOM     34  C   UNL     1      22.773  31.942  12.862  1.00  0.00     0.144 A 
ATOM     35  N   UNL     1      24.443  30.593  13.129  1.00  0.00    -0.131 NA
ATOM     36  N   UNL     1      22.319  30.685  12.649  1.00  0.00    -0.220 N 
ATOM     37  N   UNL     1      23.363  29.891  12.821  1.00  0.00    -0.062 NA
BRANCH  36  38
ATOM     38  C   UNL     1      20.991  30.303  12.313  1.00  0.00     0.068 A 
ATOM     39  C   UNL     1      19.999  31.259  12.303  1.00  0.00     0.028 A 
ATOM     40  C   UNL     1      20.633  29.010  11.990  1.00  0.00     0.049 A 
ATOM     41  C   UNL     1      18.690  30.936  11.983  1.00  0.00     0.004 A 
ATOM     42  C   UNL     1      19.342  28.653  11.667  1.00  0.00     0.043 A 
ATOM     43  C   UNL     1      18.371  29.635  11.667  1.00  0.00     0.020 A 
ATOM     44  Cl  UNL     1      18.926  26.982  11.259  1.00  0.00    -0.084 Cl
ENDBRANCH  36  38
ENDBRANCH  32  33
ENDBRANCH  31  32
ENDBRANCH  28  31
ENDBRANCH   1  27
TORSDOF 15
BEGIN_RES LYS A 131
REMARK  4 active torsions:
REMARK  status: ('A' for Active; 'I' for Inactive)
REMARK    1  A    between atoms: CA   and  CB  
REMARK    2  A    between atoms: CB   and  CG  
REMARK    3  A    between atoms: CG   and  CD  
REMARK    4  A    between atoms: CD   and  CE  
ROOT
ATOM      1  CA  LYS A 131      29.867  25.555  16.977  1.00 20.52     0.186 C 
ENDROOT
BRANCH   1   2
ATOM      2  CB  LYS A 131      28.345  25.722  17.026  1.00 20.94     0.034 C 
BRANCH   2   3
ATOM      3  CG  LYS A 131      27.601  24.403  16.886  1.00 22.96     0.005 C 
BRANCH   3   4
ATOM      4  CD  LYS A 131      26.579  24.211  17.972  1.00 24.33     0.041 C 
BRANCH   4   5
ATOM      5  CE  LYS A 131      25.299  23.639  17.372  1.00 26.91     0.338 C 
ATOM      6  NZ  LYS A 131      24.416  24.731  16.898  1.00 27.40     0.618 N 
ENDBRANCH   4   5
ENDBRANCH   3   4
ENDBRANCH   2   3
ENDBRANCH   1   2
END_RES LYS A 131
BEGIN_RES LYS A 135
REMARK  4 active torsions:
REMARK  status: ('A' for Active; 'I' for Inactive)
REMARK    5  A    between atoms: CA   and  CB  
REMARK    6  A    between atoms: CB   and  CG  
REMARK    7  A    between atoms: CG   and  CD  
REMARK    8  A    between atoms: CD   and  CE  
ROOT
ATOM      7  CA  LYS A 135      33.193  34.663   9.290  1.00 25.02     0.186 C 
ENDROOT
BRANCH   7   8
ATOM      8  CB  LYS A 135      32.060  35.360  10.034  1.00 26.63     0.034 C 
BRANCH   8   9
ATOM      9  CG  LYS A 135      30.819  35.549   9.201  1.00 29.45     0.005 C 
BRANCH   9  10
ATOM     10  CD  LYS A 135      29.947  34.304   9.245  1.00 32.00     0.041 C 
BRANCH  10  11
ATOM     11  CE  LYS A 135      28.754  34.455   8.322  1.00 34.25     0.338 C 
ATOM     12  NZ  LYS A 135      28.135  35.803   8.462  1.00 35.99     0.618 N 
ENDBRANCH  10  11
ENDBRANCH   9  10
ENDBRANCH   8   9
ENDBRANCH   7   8
END_RES LYS A 135
