REMARK VINA RESULT:    -4.945      2.158      4.153
REMARK INTER + INTRA:         -15.114
REMARK INTER:                  -9.253
REMARK INTRA:                  -5.861
REMARK UNBOUND:                -6.555
REMARK SMILES CC(=O)N[C@@H]1[C@@H](O)C[C@](O)(C(=O)O)O[C@H]1C(O)[C@H](O)CNC(=O)OCc1cn([C@H]2C[C@H]3CC[C@@H](C2)N3C)nn1
REMARK SMILES IDX 20 1 18 2 16 3 15 4 9 5 8 6 14 7 6 8 5 9 10 10 11 12 12 13
REMARK SMILES IDX 13 14 7 16 4 18 2 19 1 21 3 22 17 23 19 25 21 27 22 28 23 30
REMARK SMILES IDX 24 31 25 32 26 33 27 34 39 35 28 36 38 37 29 38 35 39 30 40
REMARK SMILES IDX 34 41 31 42 36 43 33 44 32 45 37 46
REMARK H PARENT 10 11 13 15 7 17 4 20 17 24 19 26 21 29
REMARK Flexibility Score: inf
ROOT
ATOM      1  C   UNL     1      27.666  26.992  22.321  1.00  0.00     0.154 C 
ENDROOT
BRANCH   1   2
ATOM      2  C   UNL     1      28.458  27.892  23.206  1.00  0.00     0.165 C 
BRANCH   2   3
ATOM      3  C   UNL     1      29.875  27.455  23.409  1.00  0.00     0.176 C 
BRANCH   3   4
ATOM      4  C   UNL     1      30.877  28.437  22.847  1.00  0.00     0.178 C 
ATOM      5  C   UNL     1      31.719  29.220  20.841  1.00  0.00     0.269 C 
ATOM      6  C   UNL     1      32.626  29.934  21.807  1.00  0.00     0.112 C 
ATOM      7  O   UNL     1      30.714  28.501  21.470  1.00  0.00    -0.332 OA
ATOM      8  C   UNL     1      33.227  29.033  22.842  1.00  0.00     0.145 C 
ATOM      9  C   UNL     1      32.271  27.902  23.105  1.00  0.00     0.142 C 
BRANCH   5  10
ATOM     10  O   UNL     1      32.420  28.413  19.947  1.00  0.00    -0.357 OA
ATOM     11  H   UNL     1      33.291  28.151  20.327  1.00  0.00     0.214 HD
ENDBRANCH   5  10
BRANCH   5  12
ATOM     12  C   UNL     1      31.041  30.274  20.021  1.00  0.00     0.364 C 
ATOM     13  O   UNL     1      31.169  31.509  20.315  1.00  0.00    -0.246 OA
BRANCH  12  14
ATOM     14  O   UNL     1      30.260  29.984  18.926  1.00  0.00    -0.477 OA
ATOM     15  H   UNL     1      29.450  30.590  18.743  1.00  0.00     0.296 HD
ENDBRANCH  12  14
ENDBRANCH   5  12
BRANCH   8  16
ATOM     16  O   UNL     1      34.507  28.625  22.550  1.00  0.00    -0.391 OA
ATOM     17  H   UNL     1      35.112  29.402  22.684  1.00  0.00     0.211 HD
ENDBRANCH   8  16
BRANCH   9  18
ATOM     18  N   UNL     1      32.406  27.335  24.423  1.00  0.00    -0.348 N 
ATOM     19  C   UNL     1      33.441  26.409  24.755  1.00  0.00     0.217 C 
ATOM     20  H   UNL     1      31.740  27.589  25.187  1.00  0.00     0.163 HD
ATOM     21  C   UNL     1      33.525  25.864  26.125  1.00  0.00     0.114 C 
ATOM     22  O   UNL     1      34.250  26.091  23.854  1.00  0.00    -0.275 OA
ENDBRANCH   9  18
ENDBRANCH   3   4
BRANCH   3  23
ATOM     23  O   UNL     1      30.069  26.232  22.767  1.00  0.00    -0.388 OA
ATOM     24  H   UNL     1      30.507  26.333  21.904  1.00  0.00     0.211 HD
ENDBRANCH   3  23
ENDBRANCH   2   3
BRANCH   2  25
ATOM     25  O   UNL     1      27.854  28.010  24.479  1.00  0.00    -0.388 OA
ATOM     26  H   UNL     1      28.605  28.221  25.103  1.00  0.00     0.211 HD
ENDBRANCH   2  25
ENDBRANCH   1   2
BRANCH   1  27
ATOM     27  N   UNL     1      28.088  27.064  20.943  1.00  0.00    -0.319 N 
ATOM     28  C   UNL     1      27.148  27.404  19.935  1.00  0.00     0.407 C 
ATOM     29  H   UNL     1      29.073  26.875  20.639  1.00  0.00     0.167 HD
ATOM     30  O   UNL     1      25.936  27.651  20.178  1.00  0.00    -0.225 OA
BRANCH  28  31
ATOM     31  O   UNL     1      27.502  27.489  18.588  1.00  0.00    -0.443 OA
BRANCH  31  32
ATOM     32  C   UNL     1      26.739  28.213  17.644  1.00  0.00     0.294 C 
BRANCH  32  33
ATOM     33  C   UNL     1      27.372  29.535  17.387  1.00  0.00     0.120 A 
ATOM     34  C   UNL     1      28.093  29.863  16.258  1.00  0.00     0.138 A 
ATOM     35  N   UNL     1      27.383  30.644  18.148  1.00  0.00    -0.132 NA
ATOM     36  N   UNL     1      28.521  31.152  16.359  1.00  0.00    -0.249 N 
ATOM     37  N   UNL     1      28.063  31.576  17.524  1.00  0.00    -0.067 NA
BRANCH  36  38
ATOM     38  C   UNL     1      29.315  31.896  15.386  1.00  0.00     0.112 C 
ATOM     39  C   UNL     1      30.741  31.801  15.786  1.00  0.00     0.046 C 
ATOM     40  C   UNL     1      28.762  33.275  15.308  1.00  0.00     0.046 C 
ATOM     41  C   UNL     1      31.578  32.987  15.466  1.00  0.00     0.058 C 
ATOM     42  C   UNL     1      29.806  34.361  15.319  1.00  0.00     0.058 C 
ATOM     43  N   UNL     1      30.931  33.883  14.535  1.00  0.00    -0.300 NA
ATOM     44  C   UNL     1      31.674  33.846  16.717  1.00  0.00     0.021 C 
ATOM     45  C   UNL     1      30.312  34.510  16.732  1.00  0.00     0.021 C 
ATOM     46  C   UNL     1      31.828  34.948  14.164  1.00  0.00     0.105 C 
ENDBRANCH  36  38
ENDBRANCH  32  33
ENDBRANCH  31  32
ENDBRANCH  28  31
ENDBRANCH   1  27
TORSDOF 15
BEGIN_RES LYS A 131
REMARK  4 active torsions:
REMARK  status: ('A' for Active; 'I' for Inactive)
REMARK    1  A    between atoms: CA   and  CB  
REMARK    2  A    between atoms: CB   and  CG  
REMARK    3  A    between atoms: CG   and  CD  
REMARK    4  A    between atoms: CD   and  CE  
ROOT
ATOM      1  CA  LYS A 131      29.867  25.555  16.977  1.00 20.52     0.186 C 
ENDROOT
BRANCH   1   2
ATOM      2  CB  LYS A 131      28.345  25.722  17.026  1.00 20.94     0.034 C 
BRANCH   2   3
ATOM      3  CG  LYS A 131      27.602  24.399  16.922  1.00 22.96     0.005 C 
BRANCH   3   4
ATOM      4  CD  LYS A 131      26.227  24.473  17.526  1.00 24.33     0.041 C 
BRANCH   4   5
ATOM      5  CE  LYS A 131      25.775  23.075  17.938  1.00 26.91     0.338 C 
ATOM      6  NZ  LYS A 131      24.485  22.736  17.293  1.00 27.40     0.618 N 
ENDBRANCH   4   5
ENDBRANCH   3   4
ENDBRANCH   2   3
ENDBRANCH   1   2
END_RES LYS A 131
BEGIN_RES LYS A 135
REMARK  4 active torsions:
REMARK  status: ('A' for Active; 'I' for Inactive)
REMARK    5  A    between atoms: CA   and  CB  
REMARK    6  A    between atoms: CB   and  CG  
REMARK    7  A    between atoms: CG   and  CD  
REMARK    8  A    between atoms: CD   and  CE  
ROOT
ATOM      7  CA  LYS A 135      33.193  34.663   9.290  1.00 25.02     0.186 C 
ENDROOT
BRANCH   7   8
ATOM      8  CB  LYS A 135      32.060  35.360  10.034  1.00 26.63     0.034 C 
BRANCH   8   9
ATOM      9  CG  LYS A 135      30.924  35.786   9.140  1.00 29.45     0.005 C 
BRANCH   9  10
ATOM     10  CD  LYS A 135      30.395  34.603   8.344  1.00 32.00     0.041 C 
BRANCH  10  11
ATOM     11  CE  LYS A 135      28.925  34.792   8.024  1.00 34.25     0.338 C 
ATOM     12  NZ  LYS A 135      28.743  35.458   6.705  1.00 35.99     0.618 N 
ENDBRANCH  10  11
ENDBRANCH   9  10
ENDBRANCH   8   9
ENDBRANCH   7   8
END_RES LYS A 135
