REMARK VINA RESULT:    -5.207      1.732      3.632
REMARK INTER + INTRA:         -14.606
REMARK INTER:                  -9.540
REMARK INTRA:                  -5.066
REMARK UNBOUND:                -5.290
REMARK SMILES CC(=O)N[C@@H]1[C@@H](O)C[C@](O)(C(=O)O)O[C@H]1C(O)[C@H](O)CNC(=O)OCc1cn(Cc2ccccc2)nn1
REMARK SMILES IDX 21 1 22 2 23 3 20 5 18 6 16 7 15 8 9 9 8 10 14 11 6 12 5 13
REMARK SMILES IDX 10 14 11 16 12 17 13 18 7 20 4 22 2 23 1 25 3 26 17 27 19 29
REMARK SMILES IDX 24 31 25 32 26 33 27 34 37 35 28 36 36 37 29 38 30 39 31 40
REMARK SMILES IDX 35 41 32 42 34 43 33 44
REMARK H PARENT 21 4 10 15 13 19 7 21 4 24 17 28 19 30
REMARK Flexibility Score: inf
ROOT
ATOM      1  N   UNL     1      25.268  40.917   8.147  1.00  0.00    -0.319 N 
ATOM      2  C   UNL     1      26.504  40.808   8.815  1.00  0.00     0.407 C 
ATOM      3  O   UNL     1      26.652  40.104   9.827  1.00  0.00    -0.225 OA
ATOM      4  H   UNL     1      25.266  41.541   7.298  1.00  0.00     0.167 HD
ENDROOT
BRANCH   1   5
ATOM      5  C   UNL     1      24.083  40.239   8.574  1.00  0.00     0.154 C 
BRANCH   5   6
ATOM      6  C   UNL     1      23.757  39.124   7.607  1.00  0.00     0.165 C 
BRANCH   6   7
ATOM      7  C   UNL     1      24.157  37.784   8.156  1.00  0.00     0.176 C 
BRANCH   7   8
ATOM      8  C   UNL     1      23.649  37.530   9.556  1.00  0.00     0.178 C 
ATOM      9  C   UNL     1      24.550  36.418  11.403  1.00  0.00     0.269 C 
ATOM     10  C   UNL     1      23.128  36.494  11.981  1.00  0.00     0.112 C 
ATOM     11  O   UNL     1      24.644  37.414  10.478  1.00  0.00    -0.332 OA
ATOM     12  C   UNL     1      22.262  35.885  10.880  1.00  0.00     0.145 C 
ATOM     13  C   UNL     1      22.608  36.467   9.529  1.00  0.00     0.142 C 
BRANCH   9  14
ATOM     14  O   UNL     1      24.817  35.145  10.944  1.00  0.00    -0.357 OA
ATOM     15  H   UNL     1      25.753  35.107  10.654  1.00  0.00     0.214 HD
ENDBRANCH   9  14
BRANCH   9  16
ATOM     16  C   UNL     1      25.479  36.775  12.534  1.00  0.00     0.364 C 
ATOM     17  O   UNL     1      25.748  35.961  13.442  1.00  0.00    -0.246 OA
BRANCH  16  18
ATOM     18  O   UNL     1      26.056  38.029  12.587  1.00  0.00    -0.477 OA
ATOM     19  H   UNL     1      26.267  38.426  13.488  1.00  0.00     0.296 HD
ENDBRANCH  16  18
ENDBRANCH   9  16
BRANCH  12  20
ATOM     20  O   UNL     1      22.504  34.511  10.927  1.00  0.00    -0.391 OA
ATOM     21  H   UNL     1      21.911  34.102  11.594  1.00  0.00     0.211 HD
ENDBRANCH  12  20
BRANCH  13  22
ATOM     22  N   UNL     1      21.401  37.073   8.936  1.00  0.00    -0.348 N 
ATOM     23  C   UNL     1      20.501  36.342   8.123  1.00  0.00     0.217 C 
ATOM     24  H   UNL     1      21.194  38.097   9.121  1.00  0.00     0.163 HD
ATOM     25  C   UNL     1      19.276  36.907   7.506  1.00  0.00     0.114 C 
ATOM     26  O   UNL     1      20.752  35.130   7.909  1.00  0.00    -0.275 OA
ENDBRANCH  13  22
ENDBRANCH   7   8
BRANCH   7  27
ATOM     27  O   UNL     1      25.527  37.639   8.051  1.00  0.00    -0.388 OA
ATOM     28  H   UNL     1      25.914  37.673   8.958  1.00  0.00     0.211 HD
ENDBRANCH   7  27
ENDBRANCH   6   7
BRANCH   6  29
ATOM     29  O   UNL     1      24.432  39.438   6.427  1.00  0.00    -0.388 OA
ATOM     30  H   UNL     1      25.408  39.365   6.512  1.00  0.00     0.211 HD
ENDBRANCH   6  29
ENDBRANCH   5   6
ENDBRANCH   1   5
BRANCH   2  31
ATOM     31  O   UNL     1      27.622  41.499   8.351  1.00  0.00    -0.443 OA
BRANCH  31  32
ATOM     32  C   UNL     1      28.760  40.782   7.938  1.00  0.00     0.294 C 
BRANCH  32  33
ATOM     33  C   UNL     1      28.395  39.585   7.143  1.00  0.00     0.120 A 
ATOM     34  C   UNL     1      28.999  38.358   7.207  1.00  0.00     0.138 A 
ATOM     35  N   UNL     1      27.421  39.504   6.232  1.00  0.00    -0.132 NA
ATOM     36  N   UNL     1      28.372  37.559   6.328  1.00  0.00    -0.248 N 
ATOM     37  N   UNL     1      27.412  38.287   5.746  1.00  0.00    -0.067 NA
BRANCH  36  38
ATOM     38  C   UNL     1      28.631  36.175   6.020  1.00  0.00     0.181 C 
BRANCH  38  39
ATOM     39  C   UNL     1      28.634  35.343   7.252  1.00  0.00    -0.026 A 
ATOM     40  C   UNL     1      27.447  34.936   7.851  1.00  0.00     0.005 A 
ATOM     41  C   UNL     1      29.799  34.938   7.854  1.00  0.00     0.005 A 
ATOM     42  C   UNL     1      27.456  34.168   8.989  1.00  0.00     0.000 A 
ATOM     43  C   UNL     1      29.819  34.163   9.001  1.00  0.00     0.000 A 
ATOM     44  C   UNL     1      28.635  33.769   9.581  1.00  0.00     0.000 A 
ENDBRANCH  38  39
ENDBRANCH  36  38
ENDBRANCH  32  33
ENDBRANCH  31  32
ENDBRANCH   2  31
TORSDOF 16
BEGIN_RES LYS A 131
REMARK  4 active torsions:
REMARK  status: ('A' for Active; 'I' for Inactive)
REMARK    1  A    between atoms: CA   and  CB  
REMARK    2  A    between atoms: CB   and  CG  
REMARK    3  A    between atoms: CG   and  CD  
REMARK    4  A    between atoms: CD   and  CE  
ROOT
ATOM      1  CA  LYS A 131      29.867  25.555  16.977  1.00 20.52     0.186 C 
ENDROOT
BRANCH   1   2
ATOM      2  CB  LYS A 131      28.345  25.722  17.026  1.00 20.94     0.034 C 
BRANCH   2   3
ATOM      3  CG  LYS A 131      27.601  24.402  16.889  1.00 22.96     0.005 C 
BRANCH   3   4
ATOM      4  CD  LYS A 131      26.145  24.534  17.239  1.00 24.33     0.041 C 
BRANCH   4   5
ATOM      5  CE  LYS A 131      25.573  23.158  17.566  1.00 26.91     0.338 C 
ATOM      6  NZ  LYS A 131      24.158  23.069  17.137  1.00 27.40     0.618 N 
ENDBRANCH   4   5
ENDBRANCH   3   4
ENDBRANCH   2   3
ENDBRANCH   1   2
END_RES LYS A 131
BEGIN_RES LYS A 135
REMARK  4 active torsions:
REMARK  status: ('A' for Active; 'I' for Inactive)
REMARK    5  A    between atoms: CA   and  CB  
REMARK    6  A    between atoms: CB   and  CG  
REMARK    7  A    between atoms: CG   and  CD  
REMARK    8  A    between atoms: CD   and  CE  
ROOT
ATOM      7  CA  LYS A 135      33.193  34.663   9.290  1.00 25.02     0.186 C 
ENDROOT
BRANCH   7   8
ATOM      8  CB  LYS A 135      32.060  35.360  10.034  1.00 26.63     0.034 C 
BRANCH   8   9
ATOM      9  CG  LYS A 135      32.501  36.038  11.306  1.00 29.45     0.005 C 
BRANCH   9  10
ATOM     10  CD  LYS A 135      31.892  37.427  11.412  1.00 32.00     0.041 C 
BRANCH  10  11
ATOM     11  CE  LYS A 135      31.232  37.821  10.105  1.00 34.25     0.338 C 
ATOM     12  NZ  LYS A 135      31.928  38.980   9.480  1.00 35.99     0.618 N 
ENDBRANCH  10  11
ENDBRANCH   9  10
ENDBRANCH   8   9
ENDBRANCH   7   8
END_RES LYS A 135
