REMARK VINA RESULT:    -7.798      3.664      7.763
REMARK INTER + INTRA:         -13.198
REMARK INTER:                  -8.944
REMARK INTRA:                  -4.255
REMARK UNBOUND:                 3.032
REMARK SMILES CC(=O)N[C@@H]1[C@@H](O)C[C@](O)(C(=O)O)O[C@H]1C(O)[C@H](O)CNC(=O)OCc1cn(C2CC(O)C=C[C@@H](O)C2)nn1
REMARK SMILES IDX 21 1 22 2 23 3 20 5 18 6 16 7 15 8 9 9 8 10 14 11 6 12 5 13
REMARK SMILES IDX 10 14 11 16 12 17 13 18 7 20 4 22 2 23 1 25 3 26 17 27 19 29
REMARK SMILES IDX 24 31 25 32 26 33 27 34 39 35 28 36 38 37 29 38 30 39 31 40
REMARK SMILES IDX 32 42 37 44 35 45 34 46 33 47 36 49
REMARK H PARENT 21 4 10 15 13 19 7 21 4 24 17 28 19 30 32 43 36 50
REMARK Flexibility Score: 90.00
ROOT
ATOM      1  N   UNL     1      22.410  34.972  10.233  1.00  0.00    -0.319 N 
ATOM      2  C   UNL     1      22.660  35.523  11.525  1.00  0.00     0.407 C 
ATOM      3  O   UNL     1      22.026  36.512  11.978  1.00  0.00    -0.225 OA
ATOM      4  H   UNL     1      22.951  34.152   9.882  1.00  0.00     0.167 HD
ENDROOT
BRANCH   1   5
ATOM      5  C   UNL     1      21.363  35.627   9.447  1.00  0.00     0.154 C 
BRANCH   5   6
ATOM      6  C   UNL     1      21.991  36.001   8.118  1.00  0.00     0.165 C 
BRANCH   6   7
ATOM      7  C   UNL     1      22.816  37.266   8.200  1.00  0.00     0.176 C 
BRANCH   7   8
ATOM      8  C   UNL     1      24.284  36.998   8.091  1.00  0.00     0.178 C 
ATOM      9  C   UNL     1      26.207  36.297   9.094  1.00  0.00     0.269 C 
ATOM     10  C   UNL     1      26.695  36.455   7.670  1.00  0.00     0.112 C 
ATOM     11  O   UNL     1      24.823  36.376   9.184  1.00  0.00    -0.332 OA
ATOM     12  C   UNL     1      26.323  37.807   7.094  1.00  0.00     0.145 C 
ATOM     13  C   UNL     1      25.083  38.253   7.814  1.00  0.00     0.142 C 
BRANCH   9  14
ATOM     14  O   UNL     1      26.840  37.192   9.949  1.00  0.00    -0.357 OA
ATOM     15  H   UNL     1      26.252  37.465  10.703  1.00  0.00     0.214 HD
ENDBRANCH   9  14
BRANCH   9  16
ATOM     16  C   UNL     1      26.583  34.927   9.520  1.00  0.00     0.364 C 
ATOM     17  O   UNL     1      27.199  34.127   8.765  1.00  0.00    -0.246 OA
BRANCH  16  18
ATOM     18  O   UNL     1      26.250  34.501  10.786  1.00  0.00    -0.477 OA
ATOM     19  H   UNL     1      26.923  34.262  11.508  1.00  0.00     0.296 HD
ENDBRANCH  16  18
ENDBRANCH   9  16
BRANCH  12  20
ATOM     20  O   UNL     1      27.401  38.644   7.265  1.00  0.00    -0.391 OA
ATOM     21  H   UNL     1      27.981  38.239   7.982  1.00  0.00     0.211 HD
ENDBRANCH  12  20
BRANCH  13  22
ATOM     22  N   UNL     1      24.340  39.273   7.172  1.00  0.00    -0.348 N 
ATOM     23  C   UNL     1      24.577  40.669   7.290  1.00  0.00     0.217 C 
ATOM     24  H   UNL     1      23.548  38.989   6.557  1.00  0.00     0.163 HD
ATOM     25  C   UNL     1      23.733  41.669   6.569  1.00  0.00     0.114 C 
ATOM     26  O   UNL     1      25.520  41.033   8.020  1.00  0.00    -0.275 OA
ENDBRANCH  13  22
ENDBRANCH   7   8
BRANCH   7  27
ATOM     27  O   UNL     1      22.453  38.045   9.271  1.00  0.00    -0.388 OA
ATOM     28  H   UNL     1      22.044  37.469   9.955  1.00  0.00     0.211 HD
ENDBRANCH   7  27
ENDBRANCH   6   7
BRANCH   6  29
ATOM     29  O   UNL     1      20.966  36.281   7.184  1.00  0.00    -0.388 OA
ATOM     30  H   UNL     1      20.537  35.438   6.864  1.00  0.00     0.211 HD
ENDBRANCH   6  29
ENDBRANCH   5   6
ENDBRANCH   1   5
BRANCH   2  31
ATOM     31  O   UNL     1      23.628  34.964  12.323  1.00  0.00    -0.443 OA
BRANCH  31  32
ATOM     32  C   UNL     1      24.267  35.639  13.392  1.00  0.00     0.294 C 
BRANCH  32  33
ATOM     33  C   UNL     1      25.223  34.707  14.033  1.00  0.00     0.120 A 
ATOM     34  C   UNL     1      26.520  34.929  14.438  1.00  0.00     0.138 A 
ATOM     35  N   UNL     1      24.945  33.423  14.333  1.00  0.00    -0.132 NA
ATOM     36  N   UNL     1      26.998  33.789  14.970  1.00  0.00    -0.249 N 
ATOM     37  N   UNL     1      26.007  32.897  14.886  1.00  0.00    -0.067 NA
BRANCH  36  38
ATOM     38  C   UNL     1      28.338  33.586  15.523  1.00  0.00     0.115 C 
BRANCH  38  39
ATOM     39  C   UNL     1      29.301  33.573  14.385  1.00  0.00     0.063 C 
BRANCH  39  40
ATOM     40  C   UNL     1      30.724  33.780  14.766  1.00  0.00     0.139 CG0
ATOM     41  G   UNL     1      31.306  32.649  15.507  1.00  0.00     0.000 G0
BRANCH  40  42
ATOM     42  O   UNL     1      31.525  34.170  13.670  1.00  0.00    -0.389 OA
ATOM     43  H   UNL     1      31.793  35.105  13.797  1.00  0.00     0.211 HD
ENDBRANCH  40  42
ENDBRANCH  39  40
ENDBRANCH  38  39
BRANCH  38  44
ATOM     44  C   UNL     1      28.312  32.330  16.325  1.00  0.00     0.063 C 
BRANCH  44  45
ATOM     45  C   UNL     1      29.212  31.246  15.814  1.00  0.00     0.139 C 
BRANCH  45  46
ATOM     46  C   UNL     1      30.652  31.562  15.941  1.00  0.00     0.002 C 
ATOM     47  C   UNL     1      31.294  32.622  15.504  1.00  0.00     0.002 CG0
ATOM     48  G   UNL     1      30.769  33.786  14.771  1.00  0.00     0.000 G0
ENDBRANCH  45  46
BRANCH  45  49
ATOM     49  O   UNL     1      28.918  30.001  16.365  1.00  0.00    -0.389 OA
ATOM     50  H   UNL     1      29.131  29.970  17.331  1.00  0.00     0.211 HD
ENDBRANCH  45  49
ENDBRANCH  44  45
ENDBRANCH  38  44
ENDBRANCH  36  38
ENDBRANCH  32  33
ENDBRANCH  31  32
ENDBRANCH   2  31
TORSDOF 17
BEGIN_RES LYS A 131
REMARK  4 active torsions:
REMARK  status: ('A' for Active; 'I' for Inactive)
REMARK    1  A    between atoms: CA   and  CB  
REMARK    2  A    between atoms: CB   and  CG  
REMARK    3  A    between atoms: CG   and  CD  
REMARK    4  A    between atoms: CD   and  CE  
ROOT
ATOM      1  CA  LYS A 131      29.867  25.555  16.977  1.00 20.52     0.186 C 
ENDROOT
BRANCH   1   2
ATOM      2  CB  LYS A 131      28.345  25.722  17.026  1.00 20.94     0.034 C 
BRANCH   2   3
ATOM      3  CG  LYS A 131      27.599  24.477  16.571  1.00 22.96     0.005 C 
BRANCH   3   4
ATOM      4  CD  LYS A 131      26.856  23.818  17.700  1.00 24.33     0.041 C 
BRANCH   4   5
ATOM      5  CE  LYS A 131      25.360  23.837  17.404  1.00 26.91     0.338 C 
ATOM      6  NZ  LYS A 131      24.653  24.716  18.365  1.00 27.40     0.618 N 
ENDBRANCH   4   5
ENDBRANCH   3   4
ENDBRANCH   2   3
ENDBRANCH   1   2
END_RES LYS A 131
BEGIN_RES LYS A 135
REMARK  4 active torsions:
REMARK  status: ('A' for Active; 'I' for Inactive)
REMARK    5  A    between atoms: CA   and  CB  
REMARK    6  A    between atoms: CB   and  CG  
REMARK    7  A    between atoms: CG   and  CD  
REMARK    8  A    between atoms: CD   and  CE  
ROOT
ATOM      7  CA  LYS A 135      33.193  34.663   9.290  1.00 25.02     0.186 C 
ENDROOT
BRANCH   7   8
ATOM      8  CB  LYS A 135      32.060  35.360  10.034  1.00 26.63     0.034 C 
BRANCH   8   9
ATOM      9  CG  LYS A 135      30.754  35.357   9.282  1.00 29.45     0.005 C 
BRANCH   9  10
ATOM     10  CD  LYS A 135      30.026  36.680   9.467  1.00 32.00     0.041 C 
BRANCH  10  11
ATOM     11  CE  LYS A 135      30.718  37.783   8.690  1.00 34.25     0.338 C 
ATOM     12  NZ  LYS A 135      31.192  38.863   9.598  1.00 35.99     0.618 N 
ENDBRANCH  10  11
ENDBRANCH   9  10
ENDBRANCH   8   9
ENDBRANCH   7   8
END_RES LYS A 135
