REMARK VINA RESULT:    -4.658      3.337      6.746
REMARK INTER + INTRA:         -13.858
REMARK INTER:                  -8.481
REMARK INTRA:                  -5.377
REMARK UNBOUND:                -5.796
REMARK SMILES CC(=O)N[C@@H]1[C@@H](O)C[C@](O)(C(=O)O)O[C@H]1C(O)[C@H](O)CNC(=O)OCc1cn(C2CCCCC2)nn1
REMARK SMILES IDX 20 1 18 2 16 3 15 4 9 5 8 6 14 7 6 8 5 9 10 10 11 12 12 13
REMARK SMILES IDX 13 14 7 16 4 18 2 19 1 21 3 22 17 23 19 25 21 27 22 28 23 30
REMARK SMILES IDX 24 31 25 32 26 33 27 34 36 35 28 36 35 37 29 38 30 39 34 40
REMARK SMILES IDX 31 41 33 42 32 43
REMARK H PARENT 10 11 13 15 7 17 4 20 17 24 19 26 21 29
REMARK Flexibility Score: inf
ROOT
ATOM      1  C   UNL     1      30.742  32.606  17.201  1.00  0.00     0.154 C 
ENDROOT
BRANCH   1   2
ATOM      2  C   UNL     1      30.226  32.036  15.888  1.00  0.00     0.165 C 
BRANCH   2   3
ATOM      3  C   UNL     1      29.402  30.831  16.223  1.00  0.00     0.176 C 
BRANCH   3   4
ATOM      4  C   UNL     1      28.420  31.024  17.359  1.00  0.00     0.178 C 
ATOM      5  C   UNL     1      27.382  28.978  17.884  1.00  0.00     0.269 C 
ATOM      6  C   UNL     1      26.010  29.631  17.863  1.00  0.00     0.112 C 
ATOM      7  O   UNL     1      28.315  29.920  18.159  1.00  0.00    -0.332 OA
ATOM      8  C   UNL     1      25.954  30.749  16.856  1.00  0.00     0.145 C 
ATOM      9  C   UNL     1      27.141  31.683  16.979  1.00  0.00     0.142 C 
BRANCH   5  10
ATOM     10  O   UNL     1      27.595  28.239  16.722  1.00  0.00    -0.357 OA
ATOM     11  H   UNL     1      28.294  27.540  16.927  1.00  0.00     0.214 HD
ENDBRANCH   5  10
BRANCH   5  12
ATOM     12  C   UNL     1      27.345  28.028  19.031  1.00  0.00     0.364 C 
ATOM     13  O   UNL     1      26.305  27.917  19.718  1.00  0.00    -0.246 OA
BRANCH  12  14
ATOM     14  O   UNL     1      28.447  27.280  19.329  1.00  0.00    -0.477 OA
ATOM     15  H   UNL     1      29.079  27.466  20.098  1.00  0.00     0.296 HD
ENDBRANCH  12  14
ENDBRANCH   5  12
BRANCH   8  16
ATOM     16  O   UNL     1      25.819  30.254  15.566  1.00  0.00    -0.391 OA
ATOM     17  H   UNL     1      26.329  29.413  15.470  1.00  0.00     0.211 HD
ENDBRANCH   8  16
BRANCH   9  18
ATOM     18  N   UNL     1      26.802  32.760  17.913  1.00  0.00    -0.348 N 
ATOM     19  C   UNL     1      27.149  34.083  17.567  1.00  0.00     0.217 C 
ATOM     20  H   UNL     1      26.318  32.572  18.812  1.00  0.00     0.163 HD
ATOM     21  C   UNL     1      26.846  35.249  18.454  1.00  0.00     0.114 C 
ATOM     22  O   UNL     1      27.742  34.373  16.480  1.00  0.00    -0.275 OA
ENDBRANCH   9  18
ENDBRANCH   3   4
BRANCH   3  23
ATOM     23  O   UNL     1      28.905  30.187  15.121  1.00  0.00    -0.388 OA
ATOM     24  H   UNL     1      29.588  29.609  14.655  1.00  0.00     0.211 HD
ENDBRANCH   3  23
ENDBRANCH   2   3
BRANCH   2  25
ATOM     25  O   UNL     1      31.308  31.807  15.073  1.00  0.00    -0.388 OA
ATOM     26  H   UNL     1      32.118  32.103  15.519  1.00  0.00     0.211 HD
ENDBRANCH   2  25
ENDBRANCH   1   2
BRANCH   1  27
ATOM     27  N   UNL     1      31.811  33.530  16.902  1.00  0.00    -0.319 N 
ATOM     28  C   UNL     1      31.908  34.855  17.394  1.00  0.00     0.407 C 
ATOM     29  H   UNL     1      32.614  33.236  16.265  1.00  0.00     0.167 HD
ATOM     30  O   UNL     1      31.011  35.298  18.150  1.00  0.00    -0.225 OA
BRANCH  28  31
ATOM     31  O   UNL     1      32.977  35.679  17.056  1.00  0.00    -0.443 OA
BRANCH  31  32
ATOM     32  C   UNL     1      33.403  35.756  15.719  1.00  0.00     0.294 C 
BRANCH  32  33
ATOM     33  C   UNL     1      32.306  36.358  14.916  1.00  0.00     0.120 A 
ATOM     34  C   UNL     1      31.601  35.731  13.880  1.00  0.00     0.138 A 
ATOM     35  N   UNL     1      31.757  37.585  14.982  1.00  0.00    -0.132 NA
ATOM     36  N   UNL     1      30.686  36.581  13.383  1.00  0.00    -0.249 N 
ATOM     37  N   UNL     1      30.806  37.702  14.073  1.00  0.00    -0.067 NA
BRANCH  36  38
ATOM     38  C   UNL     1      29.750  36.319  12.299  1.00  0.00     0.109 C 
ATOM     39  C   UNL     1      29.044  35.006  12.560  1.00  0.00     0.027 C 
ATOM     40  C   UNL     1      28.705  37.411  12.243  1.00  0.00     0.027 C 
ATOM     41  C   UNL     1      27.624  35.223  13.048  1.00  0.00     0.002 C 
ATOM     42  C   UNL     1      27.640  36.949  11.264  1.00  0.00     0.002 C 
ATOM     43  C   UNL     1      26.812  35.897  11.975  1.00  0.00     0.000 C 
ENDBRANCH  36  38
ENDBRANCH  32  33
ENDBRANCH  31  32
ENDBRANCH  28  31
ENDBRANCH   1  27
TORSDOF 15
BEGIN_RES LYS A 131
REMARK  4 active torsions:
REMARK  status: ('A' for Active; 'I' for Inactive)
REMARK    1  A    between atoms: CA   and  CB  
REMARK    2  A    between atoms: CB   and  CG  
REMARK    3  A    between atoms: CG   and  CD  
REMARK    4  A    between atoms: CD   and  CE  
ROOT
ATOM      1  CA  LYS A 131      29.867  25.555  16.977  1.00 20.52     0.186 C 
ENDROOT
BRANCH   1   2
ATOM      2  CB  LYS A 131      28.345  25.722  17.026  1.00 20.94     0.034 C 
BRANCH   2   3
ATOM      3  CG  LYS A 131      27.599  24.448  16.659  1.00 22.96     0.005 C 
BRANCH   3   4
ATOM      4  CD  LYS A 131      27.060  23.739  17.870  1.00 24.33     0.041 C 
BRANCH   4   5
ATOM      5  CE  LYS A 131      26.016  24.616  18.552  1.00 26.91     0.338 C 
ATOM      6  NZ  LYS A 131      24.670  24.352  17.992  1.00 27.40     0.618 N 
ENDBRANCH   4   5
ENDBRANCH   3   4
ENDBRANCH   2   3
ENDBRANCH   1   2
END_RES LYS A 131
BEGIN_RES LYS A 135
REMARK  4 active torsions:
REMARK  status: ('A' for Active; 'I' for Inactive)
REMARK    5  A    between atoms: CA   and  CB  
REMARK    6  A    between atoms: CB   and  CG  
REMARK    7  A    between atoms: CG   and  CD  
REMARK    8  A    between atoms: CD   and  CE  
ROOT
ATOM      7  CA  LYS A 135      33.193  34.663   9.290  1.00 25.02     0.186 C 
ENDROOT
BRANCH   7   8
ATOM      8  CB  LYS A 135      32.060  35.360  10.034  1.00 26.63     0.034 C 
BRANCH   8   9
ATOM      9  CG  LYS A 135      30.817  35.544   9.203  1.00 29.45     0.005 C 
BRANCH   9  10
ATOM     10  CD  LYS A 135      30.104  34.215   9.002  1.00 32.00     0.041 C 
BRANCH  10  11
ATOM     11  CE  LYS A 135      28.661  34.441   8.595  1.00 34.25     0.338 C 
ATOM     12  NZ  LYS A 135      27.732  33.659   9.457  1.00 35.99     0.618 N 
ENDBRANCH  10  11
ENDBRANCH   9  10
ENDBRANCH   8   9
ENDBRANCH   7   8
END_RES LYS A 135
