REMARK VINA RESULT:    -5.467      5.288     11.581
REMARK INTER + INTRA:         -16.789
REMARK INTER:                 -11.031
REMARK INTRA:                  -5.758
REMARK UNBOUND:                -6.527
REMARK SMILES CC(=O)N[C@@H]1[C@@H](O)C[C@](O)(C(=O)O)O[C@H]1C(O)[C@H](O)CNC(=O)OCc1cn(-c2ccc(S(=O)(=O)c3ccc(N)cc3)cc2)nn1
REMARK SMILES IDX 21 1 22 2 23 3 20 5 18 6 16 7 15 8 9 9 8 10 14 11 6 12 5 13
REMARK SMILES IDX 10 14 11 16 12 17 13 18 7 20 4 22 2 23 1 25 3 26 17 27 19 29
REMARK SMILES IDX 24 31 25 32 26 33 27 34 46 35 28 36 45 37 29 38 30 39 44 40
REMARK SMILES IDX 31 41 43 42 32 43 33 44 34 45 35 46 36 47 37 48 42 49 38 50
REMARK SMILES IDX 41 51 39 52 40 53
REMARK H PARENT 21 4 10 15 13 19 7 21 4 24 17 28 19 30 40 54 40 55
REMARK Flexibility Score: inf
ROOT
ATOM      1  N   UNL     1      23.885  38.389  10.951  1.00  0.00    -0.319 N 
ATOM      2  C   UNL     1      22.657  37.700  11.094  1.00  0.00     0.407 C 
ATOM      3  O   UNL     1      21.915  37.547  10.117  1.00  0.00    -0.225 OA
ATOM      4  H   UNL     1      24.461  38.471  11.846  1.00  0.00     0.167 HD
ENDROOT
BRANCH   1   5
ATOM      5  C   UNL     1      24.381  38.962   9.721  1.00  0.00     0.154 C 
BRANCH   5   6
ATOM      6  C   UNL     1      25.574  38.194   9.266  1.00  0.00     0.165 C 
BRANCH   6   7
ATOM      7  C   UNL     1      25.273  37.271   8.103  1.00  0.00     0.176 C 
BRANCH   7   8
ATOM      8  C   UNL     1      26.460  36.552   7.558  1.00  0.00     0.178 C 
ATOM      9  C   UNL     1      28.383  35.539   8.360  1.00  0.00     0.269 C 
ATOM     10  C   UNL     1      28.916  35.491   6.962  1.00  0.00     0.112 C 
ATOM     11  O   UNL     1      27.004  35.630   8.422  1.00  0.00    -0.332 OA
ATOM     12  C   UNL     1      28.344  36.510   6.043  1.00  0.00     0.145 C 
ATOM     13  C   UNL     1      27.464  37.452   6.883  1.00  0.00     0.142 C 
BRANCH   9  14
ATOM     14  O   UNL     1      29.003  36.562   9.114  1.00  0.00    -0.357 OA
ATOM     15  H   UNL     1      28.947  37.392   8.611  1.00  0.00     0.214 HD
ENDBRANCH   9  14
BRANCH   9  16
ATOM     16  C   UNL     1      28.765  34.262   9.031  1.00  0.00     0.364 C 
ATOM     17  O   UNL     1      27.849  33.547   9.541  1.00  0.00    -0.246 OA
BRANCH  16  18
ATOM     18  O   UNL     1      30.054  33.804   9.133  1.00  0.00    -0.477 OA
ATOM     19  H   UNL     1      30.295  33.082   9.809  1.00  0.00     0.296 HD
ENDBRANCH  16  18
ENDBRANCH   9  16
BRANCH  12  20
ATOM     20  O   UNL     1      29.298  37.229   5.340  1.00  0.00    -0.391 OA
ATOM     21  H   UNL     1      29.890  37.720   5.994  1.00  0.00     0.211 HD
ENDBRANCH  12  20
BRANCH  13  22
ATOM     22  N   UNL     1      26.733  38.324   5.971  1.00  0.00    -0.348 N 
ATOM     23  C   UNL     1      27.199  39.637   5.717  1.00  0.00     0.217 C 
ATOM     24  H   UNL     1      25.862  38.018   5.487  1.00  0.00     0.163 HD
ATOM     25  C   UNL     1      26.465  40.563   4.783  1.00  0.00     0.114 C 
ATOM     26  O   UNL     1      28.232  40.102   6.245  1.00  0.00    -0.275 OA
ENDBRANCH  13  22
ENDBRANCH   7   8
BRANCH   7  27
ATOM     27  O   UNL     1      24.287  36.391   8.565  1.00  0.00    -0.388 OA
ATOM     28  H   UNL     1      24.329  35.579   8.017  1.00  0.00     0.211 HD
ENDBRANCH   7  27
ENDBRANCH   6   7
BRANCH   6  29
ATOM     29  O   UNL     1      26.190  37.548  10.328  1.00  0.00    -0.388 OA
ATOM     30  H   UNL     1      27.105  37.914  10.431  1.00  0.00     0.211 HD
ENDBRANCH   6  29
ENDBRANCH   5   6
ENDBRANCH   1   5
BRANCH   2  31
ATOM     31  O   UNL     1      22.226  37.171  12.306  1.00  0.00    -0.443 OA
BRANCH  31  32
ATOM     32  C   UNL     1      22.420  35.806  12.643  1.00  0.00     0.294 C 
BRANCH  32  33
ATOM     33  C   UNL     1      23.834  35.381  12.437  1.00  0.00     0.121 A 
ATOM     34  C   UNL     1      24.711  35.111  13.452  1.00  0.00     0.144 A 
ATOM     35  N   UNL     1      24.489  35.189  11.284  1.00  0.00    -0.131 NA
ATOM     36  N   UNL     1      25.891  34.758  12.893  1.00  0.00    -0.220 N 
ATOM     37  N   UNL     1      25.713  34.818  11.602  1.00  0.00    -0.062 NA
BRANCH  36  38
ATOM     38  C   UNL     1      27.038  34.409  13.650  1.00  0.00     0.066 A 
ATOM     39  C   UNL     1      28.299  34.688  13.169  1.00  0.00     0.030 A 
ATOM     40  C   UNL     1      26.952  33.786  14.876  1.00  0.00     0.030 A 
ATOM     41  C   UNL     1      29.445  34.365  13.876  1.00  0.00     0.023 A 
ATOM     42  C   UNL     1      28.103  33.455  15.598  1.00  0.00     0.023 A 
ATOM     43  C   UNL     1      29.349  33.744  15.097  1.00  0.00     0.072 A 
BRANCH  43  44
ATOM     44  S   UNL     1      30.780  33.341  15.978  1.00  0.00     0.206 S 
ATOM     45  O   UNL     1      31.547  32.290  15.251  1.00  0.00    -0.219 OA
ATOM     46  O   UNL     1      30.483  32.825  17.356  1.00  0.00    -0.219 OA
BRANCH  44  47
ATOM     47  C   UNL     1      31.727  34.814  16.161  1.00  0.00     0.072 A 
ATOM     48  C   UNL     1      31.167  35.884  16.806  1.00  0.00     0.023 A 
ATOM     49  C   UNL     1      33.025  34.910  15.668  1.00  0.00     0.023 A 
ATOM     50  C   UNL     1      31.878  37.065  16.974  1.00  0.00     0.027 A 
ATOM     51  C   UNL     1      33.762  36.074  15.817  1.00  0.00     0.027 A 
ATOM     52  C   UNL     1      33.163  37.125  16.470  1.00  0.00     0.031 A 
BRANCH  52  53
ATOM     53  N   UNL     1      33.897  38.321  16.634  1.00  0.00    -0.399 N 
ATOM     54  H   UNL     1      34.926  38.320  16.542  1.00  0.00     0.156 HD
ATOM     55  H   UNL     1      33.395  39.200  16.847  1.00  0.00     0.156 HD
ENDBRANCH  52  53
ENDBRANCH  44  47
ENDBRANCH  43  44
ENDBRANCH  36  38
ENDBRANCH  32  33
ENDBRANCH  31  32
ENDBRANCH   2  31
TORSDOF 18
BEGIN_RES LYS A 131
REMARK  4 active torsions:
REMARK  status: ('A' for Active; 'I' for Inactive)
REMARK    1  A    between atoms: CA   and  CB  
REMARK    2  A    between atoms: CB   and  CG  
REMARK    3  A    between atoms: CG   and  CD  
REMARK    4  A    between atoms: CD   and  CE  
ROOT
ATOM      1  CA  LYS A 131      29.867  25.555  16.977  1.00 20.52     0.186 C 
ENDROOT
BRANCH   1   2
ATOM      2  CB  LYS A 131      28.345  25.722  17.026  1.00 20.94     0.034 C 
BRANCH   2   3
ATOM      3  CG  LYS A 131      27.600  24.415  16.804  1.00 22.96     0.005 C 
BRANCH   3   4
ATOM      4  CD  LYS A 131      26.781  24.019  18.001  1.00 24.33     0.041 C 
BRANCH   4   5
ATOM      5  CE  LYS A 131      25.589  23.182  17.549  1.00 26.91     0.338 C 
ATOM      6  NZ  LYS A 131      24.560  24.042  16.919  1.00 27.40     0.618 N 
ENDBRANCH   4   5
ENDBRANCH   3   4
ENDBRANCH   2   3
ENDBRANCH   1   2
END_RES LYS A 131
BEGIN_RES LYS A 135
REMARK  4 active torsions:
REMARK  status: ('A' for Active; 'I' for Inactive)
REMARK    5  A    between atoms: CA   and  CB  
REMARK    6  A    between atoms: CB   and  CG  
REMARK    7  A    between atoms: CG   and  CD  
REMARK    8  A    between atoms: CD   and  CE  
ROOT
ATOM      7  CA  LYS A 135      33.193  34.663   9.290  1.00 25.02     0.186 C 
ENDROOT
BRANCH   7   8
ATOM      8  CB  LYS A 135      32.060  35.360  10.034  1.00 26.63     0.034 C 
BRANCH   8   9
ATOM      9  CG  LYS A 135      32.228  35.352  11.532  1.00 29.45     0.005 C 
BRANCH   9  10
ATOM     10  CD  LYS A 135      32.225  36.771  12.080  1.00 32.00     0.041 C 
BRANCH  10  11
ATOM     11  CE  LYS A 135      31.940  37.768  10.973  1.00 34.25     0.338 C 
ATOM     12  NZ  LYS A 135      30.827  38.683  11.350  1.00 35.99     0.618 N 
ENDBRANCH  10  11
ENDBRANCH   9  10
ENDBRANCH   8   9
ENDBRANCH   7   8
END_RES LYS A 135
