REMARK VINA RESULT:    -5.247      2.109      3.827
REMARK INTER + INTRA:         -14.243
REMARK INTER:                  -8.499
REMARK INTRA:                  -5.744
REMARK UNBOUND:                -5.161
REMARK SMILES CC(=O)N[C@@H]1[C@@H](O)C[C@](O)(C(=O)O)O[C@H]1C(O)[C@H](O)CNC(=O)OCc1cn(-c2ccc(Br)cc2)nn1
REMARK SMILES IDX 20 1 18 2 16 3 15 4 9 5 8 6 14 7 6 8 5 9 10 10 11 12 12 13
REMARK SMILES IDX 13 14 7 16 4 18 2 19 1 21 3 22 17 23 19 25 21 27 22 28 23 30
REMARK SMILES IDX 24 31 25 32 26 33 27 34 37 35 28 36 36 37 29 38 30 39 35 40
REMARK SMILES IDX 31 41 34 42 32 43 33 44
REMARK H PARENT 10 11 13 15 7 17 4 20 17 24 19 26 21 29
REMARK Flexibility Score: inf
ROOT
ATOM      1  C   UNL     1      26.195  29.810  20.029  1.00  0.00     0.154 C 
ENDROOT
BRANCH   1   2
ATOM      2  C   UNL     1      27.519  30.078  20.679  1.00  0.00     0.165 C 
BRANCH   2   3
ATOM      3  C   UNL     1      28.649  29.236  20.201  1.00  0.00     0.176 C 
BRANCH   3   4
ATOM      4  C   UNL     1      29.621  28.823  21.288  1.00  0.00     0.178 C 
ATOM      5  C   UNL     1      31.913  29.105  21.699  1.00  0.00     0.269 C 
ATOM      6  C   UNL     1      31.852  27.741  22.329  1.00  0.00     0.112 C 
ATOM      7  O   UNL     1      30.853  29.332  20.895  1.00  0.00    -0.332 OA
ATOM      8  C   UNL     1      31.096  26.829  21.390  1.00  0.00     0.145 C 
ATOM      9  C   UNL     1      29.642  27.322  21.357  1.00  0.00     0.142 C 
BRANCH   5  10
ATOM     10  O   UNL     1      33.073  29.176  20.877  1.00  0.00    -0.357 OA
ATOM     11  H   UNL     1      33.055  28.339  20.344  1.00  0.00     0.214 HD
ENDBRANCH   5  10
BRANCH   5  12
ATOM     12  C   UNL     1      32.004  30.178  22.727  1.00  0.00     0.364 C 
ATOM     13  O   UNL     1      31.722  30.005  23.925  1.00  0.00    -0.246 OA
BRANCH  12  14
ATOM     14  O   UNL     1      32.421  31.439  22.338  1.00  0.00    -0.477 OA
ATOM     15  H   UNL     1      32.802  31.636  21.411  1.00  0.00     0.296 HD
ENDBRANCH  12  14
ENDBRANCH   5  12
BRANCH   8  16
ATOM     16  O   UNL     1      31.604  27.035  20.109  1.00  0.00    -0.391 OA
ATOM     17  H   UNL     1      32.498  27.427  20.102  1.00  0.00     0.211 HD
ENDBRANCH   8  16
BRANCH   9  18
ATOM     18  N   UNL     1      29.071  26.896  22.604  1.00  0.00    -0.348 N 
ATOM     19  C   UNL     1      27.690  26.657  22.806  1.00  0.00     0.217 C 
ATOM     20  H   UNL     1      29.692  26.741  23.440  1.00  0.00     0.163 HD
ATOM     21  C   UNL     1      27.143  26.218  24.124  1.00  0.00     0.114 C 
ATOM     22  O   UNL     1      26.903  26.819  21.852  1.00  0.00    -0.275 OA
ENDBRANCH   9  18
ENDBRANCH   3   4
BRANCH   3  23
ATOM     23  O   UNL     1      29.337  29.959  19.195  1.00  0.00    -0.388 OA
ATOM     24  H   UNL     1      28.864  30.810  19.078  1.00  0.00     0.211 HD
ENDBRANCH   3  23
ENDBRANCH   2   3
BRANCH   2  25
ATOM     25  O   UNL     1      27.357  29.869  22.065  1.00  0.00    -0.388 OA
ATOM     26  H   UNL     1      27.515  30.706  22.568  1.00  0.00     0.211 HD
ENDBRANCH   2  25
ENDBRANCH   1   2
BRANCH   1  27
ATOM     27  N   UNL     1      26.249  29.370  18.673  1.00  0.00    -0.319 N 
ATOM     28  C   UNL     1      25.434  30.014  17.673  1.00  0.00     0.407 C 
ATOM     29  H   UNL     1      26.834  28.595  18.302  1.00  0.00     0.167 HD
ATOM     30  O   UNL     1      24.693  30.956  18.044  1.00  0.00    -0.225 OA
BRANCH  28  31
ATOM     31  O   UNL     1      25.467  29.609  16.347  1.00  0.00    -0.443 OA
BRANCH  31  32
ATOM     32  C   UNL     1      25.944  30.566  15.411  1.00  0.00     0.294 C 
BRANCH  32  33
ATOM     33  C   UNL     1      27.379  30.810  15.738  1.00  0.00     0.121 A 
ATOM     34  C   UNL     1      28.030  32.029  15.728  1.00  0.00     0.144 A 
ATOM     35  N   UNL     1      28.313  29.912  16.103  1.00  0.00    -0.131 NA
ATOM     36  N   UNL     1      29.313  31.840  16.080  1.00  0.00    -0.220 N 
ATOM     37  N   UNL     1      29.440  30.551  16.297  1.00  0.00    -0.062 NA
BRANCH  36  38
ATOM     38  C   UNL     1      30.369  32.787  16.211  1.00  0.00     0.066 A 
ATOM     39  C   UNL     1      30.614  33.460  17.393  1.00  0.00     0.029 A 
ATOM     40  C   UNL     1      31.201  33.071  15.148  1.00  0.00     0.029 A 
ATOM     41  C   UNL     1      31.644  34.376  17.506  1.00  0.00     0.018 A 
ATOM     42  C   UNL     1      32.237  33.990  15.256  1.00  0.00     0.018 A 
ATOM     43  C   UNL     1      32.475  34.656  16.436  1.00  0.00     0.018 A 
ATOM     44  Br  UNL     1      33.879  35.927  16.646  1.00  0.00    -0.051 Br
ENDBRANCH  36  38
ENDBRANCH  32  33
ENDBRANCH  31  32
ENDBRANCH  28  31
ENDBRANCH   1  27
TORSDOF 15
BEGIN_RES LYS A 131
REMARK  4 active torsions:
REMARK  status: ('A' for Active; 'I' for Inactive)
REMARK    1  A    between atoms: CA   and  CB  
REMARK    2  A    between atoms: CB   and  CG  
REMARK    3  A    between atoms: CG   and  CD  
REMARK    4  A    between atoms: CD   and  CE  
ROOT
ATOM      1  CA  LYS A 131      29.867  25.555  16.977  1.00 20.52     0.186 C 
ENDROOT
BRANCH   1   2
ATOM      2  CB  LYS A 131      28.345  25.722  17.026  1.00 20.94     0.034 C 
BRANCH   2   3
ATOM      3  CG  LYS A 131      27.600  24.418  16.787  1.00 22.96     0.005 C 
BRANCH   3   4
ATOM      4  CD  LYS A 131      26.209  24.447  17.359  1.00 24.33     0.041 C 
BRANCH   4   5
ATOM      5  CE  LYS A 131      26.233  25.135  18.720  1.00 26.91     0.338 C 
ATOM      6  NZ  LYS A 131      25.523  24.314  19.729  1.00 27.40     0.618 N 
ENDBRANCH   4   5
ENDBRANCH   3   4
ENDBRANCH   2   3
ENDBRANCH   1   2
END_RES LYS A 131
BEGIN_RES LYS A 135
REMARK  4 active torsions:
REMARK  status: ('A' for Active; 'I' for Inactive)
REMARK    5  A    between atoms: CA   and  CB  
REMARK    6  A    between atoms: CB   and  CG  
REMARK    7  A    between atoms: CG   and  CD  
REMARK    8  A    between atoms: CD   and  CE  
ROOT
ATOM      7  CA  LYS A 135      33.193  34.663   9.290  1.00 25.02     0.186 C 
ENDROOT
BRANCH   7   8
ATOM      8  CB  LYS A 135      32.060  35.360  10.034  1.00 26.63     0.034 C 
BRANCH   8   9
ATOM      9  CG  LYS A 135      30.720  34.695   9.851  1.00 29.45     0.005 C 
BRANCH   9  10
ATOM     10  CD  LYS A 135      30.397  34.537   8.373  1.00 32.00     0.041 C 
BRANCH  10  11
ATOM     11  CE  LYS A 135      28.908  34.698   8.134  1.00 34.25     0.338 C 
ATOM     12  NZ  LYS A 135      28.645  35.473   6.889  1.00 35.99     0.618 N 
ENDBRANCH  10  11
ENDBRANCH   9  10
ENDBRANCH   8   9
ENDBRANCH   7   8
END_RES LYS A 135
