REMARK VINA RESULT:    -4.247      3.700      8.640
REMARK INTER + INTRA:         -14.372
REMARK INTER:                  -9.115
REMARK INTRA:                  -5.258
REMARK UNBOUND:                -6.277
REMARK SMILES CC(=O)N[C@@H]1[C@@H](O)C[C@](O)(C(=O)O)O[C@H]1C(O)[C@H](O)CNC(=O)OCc1cn(CCNS(C)(=O)=O)nn1
REMARK SMILES IDX 21 1 22 2 23 3 20 5 18 6 16 7 15 8 9 9 8 10 14 11 6 12 5 13
REMARK SMILES IDX 10 14 11 16 12 17 13 18 7 20 4 22 2 23 1 25 3 26 17 27 19 29
REMARK SMILES IDX 24 31 25 32 26 33 27 34 37 35 28 36 36 37 29 38 30 39 31 40
REMARK SMILES IDX 32 42 34 43 35 44 33 45
REMARK H PARENT 21 4 10 15 13 19 7 21 4 24 17 28 19 30 31 41
REMARK Flexibility Score: inf
ROOT
ATOM      1  N   UNL     1      30.782  32.732  17.671  1.00  0.00    -0.319 N 
ATOM      2  C   UNL     1      30.783  31.924  16.517  1.00  0.00     0.407 C 
ATOM      3  O   UNL     1      30.151  30.858  16.426  1.00  0.00    -0.225 OA
ATOM      4  H   UNL     1      31.355  33.628  17.627  1.00  0.00     0.167 HD
ENDROOT
BRANCH   1   5
ATOM      5  C   UNL     1      30.092  32.460  18.876  1.00  0.00     0.154 C 
BRANCH   5   6
ATOM      6  C   UNL     1      30.777  31.558  19.872  1.00  0.00     0.165 C 
BRANCH   6   7
ATOM      7  C   UNL     1      29.792  30.496  20.251  1.00  0.00     0.176 C 
BRANCH   7   8
ATOM      8  C   UNL     1      30.278  29.402  21.147  1.00  0.00     0.178 C 
ATOM      9  C   UNL     1      32.207  28.784  22.327  1.00  0.00     0.269 C 
ATOM     10  C   UNL     1      31.903  27.339  22.120  1.00  0.00     0.112 C 
ATOM     11  O   UNL     1      31.492  29.677  21.629  1.00  0.00    -0.332 OA
ATOM     12  C   UNL     1      31.160  27.057  20.843  1.00  0.00     0.145 C 
ATOM     13  C   UNL     1      30.043  28.019  20.623  1.00  0.00     0.142 C 
BRANCH   9  14
ATOM     14  O   UNL     1      33.566  28.988  22.062  1.00  0.00    -0.357 OA
ATOM     15  H   UNL     1      34.086  28.667  22.829  1.00  0.00     0.214 HD
ENDBRANCH   9  14
BRANCH   9  16
ATOM     16  C   UNL     1      32.025  29.084  23.777  1.00  0.00     0.364 C 
ATOM     17  O   UNL     1      31.892  30.233  24.240  1.00  0.00    -0.246 OA
BRANCH  16  18
ATOM     18  O   UNL     1      31.996  28.033  24.712  1.00  0.00    -0.477 OA
ATOM     19  H   UNL     1      32.112  27.070  24.424  1.00  0.00     0.296 HD
ENDBRANCH  16  18
ENDBRANCH   9  16
BRANCH  12  20
ATOM     20  O   UNL     1      32.077  27.001  19.801  1.00  0.00    -0.391 OA
ATOM     21  H   UNL     1      31.610  27.330  18.991  1.00  0.00     0.211 HD
ENDBRANCH  12  20
BRANCH  13  22
ATOM     22  N   UNL     1      28.835  27.425  21.166  1.00  0.00    -0.348 N 
ATOM     23  C   UNL     1      27.648  27.230  20.410  1.00  0.00     0.217 C 
ATOM     24  H   UNL     1      28.780  27.101  22.178  1.00  0.00     0.163 HD
ATOM     25  C   UNL     1      26.422  26.611  21.018  1.00  0.00     0.114 C 
ATOM     26  O   UNL     1      27.671  27.599  19.208  1.00  0.00    -0.275 OA
ENDBRANCH  13  22
ENDBRANCH   7   8
BRANCH   7  27
ATOM     27  O   UNL     1      29.353  29.959  19.004  1.00  0.00    -0.388 OA
ATOM     28  H   UNL     1      29.870  30.337  18.262  1.00  0.00     0.211 HD
ENDBRANCH   7  27
ENDBRANCH   6   7
BRANCH   6  29
ATOM     29  O   UNL     1      31.275  32.314  20.898  1.00  0.00    -0.388 OA
ATOM     30  H   UNL     1      30.809  32.168  21.730  1.00  0.00     0.211 HD
ENDBRANCH   6  29
ENDBRANCH   5   6
ENDBRANCH   1   5
BRANCH   2  31
ATOM     31  O   UNL     1      31.522  32.316  15.406  1.00  0.00    -0.443 OA
BRANCH  31  32
ATOM     32  C   UNL     1      31.662  33.651  14.990  1.00  0.00     0.294 C 
BRANCH  32  33
ATOM     33  C   UNL     1      30.418  34.140  14.367  1.00  0.00     0.120 A 
ATOM     34  C   UNL     1      30.154  34.377  13.033  1.00  0.00     0.138 A 
ATOM     35  N   UNL     1      29.298  34.444  15.018  1.00  0.00    -0.132 NA
ATOM     36  N   UNL     1      28.893  34.816  12.914  1.00  0.00    -0.251 N 
ATOM     37  N   UNL     1      28.396  34.845  14.145  1.00  0.00    -0.067 NA
BRANCH  36  38
ATOM     38  C   UNL     1      28.146  35.197  11.744  1.00  0.00     0.162 C 
BRANCH  38  39
ATOM     39  C   UNL     1      26.671  34.863  11.873  1.00  0.00     0.122 C 
BRANCH  39  40
ATOM     40  N   UNL     1      26.154  34.663  10.536  1.00  0.00    -0.214 NA
ATOM     41  H   UNL     1      25.580  33.811  10.462  1.00  0.00     0.141 HD
BRANCH  40  42
ATOM     42  S   UNL     1      25.273  36.026   9.967  1.00  0.00     0.208 S 
ATOM     43  O   UNL     1      25.143  36.988  11.119  1.00  0.00    -0.213 OA
ATOM     44  O   UNL     1      25.992  36.639   8.809  1.00  0.00    -0.213 OA
ATOM     45  C   UNL     1      23.634  35.553   9.461  1.00  0.00     0.176 C 
ENDBRANCH  40  42
ENDBRANCH  39  40
ENDBRANCH  38  39
ENDBRANCH  36  38
ENDBRANCH  32  33
ENDBRANCH  31  32
ENDBRANCH   2  31
TORSDOF 18
BEGIN_RES LYS A 131
REMARK  4 active torsions:
REMARK  status: ('A' for Active; 'I' for Inactive)
REMARK    1  A    between atoms: CA   and  CB  
REMARK    2  A    between atoms: CB   and  CG  
REMARK    3  A    between atoms: CG   and  CD  
REMARK    4  A    between atoms: CD   and  CE  
ROOT
ATOM      1  CA  LYS A 131      29.867  25.555  16.977  1.00 20.52     0.186 C 
ENDROOT
BRANCH   1   2
ATOM      2  CB  LYS A 131      28.345  25.722  17.026  1.00 20.94     0.034 C 
BRANCH   2   3
ATOM      3  CG  LYS A 131      27.601  24.401  16.903  1.00 22.96     0.005 C 
BRANCH   3   4
ATOM      4  CD  LYS A 131      26.701  24.146  18.080  1.00 24.33     0.041 C 
BRANCH   4   5
ATOM      5  CE  LYS A 131      25.367  24.851  17.862  1.00 26.91     0.338 C 
ATOM      6  NZ  LYS A 131      24.536  24.102  16.890  1.00 27.40     0.618 N 
ENDBRANCH   4   5
ENDBRANCH   3   4
ENDBRANCH   2   3
ENDBRANCH   1   2
END_RES LYS A 131
BEGIN_RES LYS A 135
REMARK  4 active torsions:
REMARK  status: ('A' for Active; 'I' for Inactive)
REMARK    5  A    between atoms: CA   and  CB  
REMARK    6  A    between atoms: CB   and  CG  
REMARK    7  A    between atoms: CG   and  CD  
REMARK    8  A    between atoms: CD   and  CE  
ROOT
ATOM      7  CA  LYS A 135      33.193  34.663   9.290  1.00 25.02     0.186 C 
ENDROOT
BRANCH   7   8
ATOM      8  CB  LYS A 135      32.060  35.360  10.034  1.00 26.63     0.034 C 
BRANCH   8   9
ATOM      9  CG  LYS A 135      30.871  35.673   9.163  1.00 29.45     0.005 C 
BRANCH   9  10
ATOM     10  CD  LYS A 135      30.275  34.397   8.589  1.00 32.00     0.041 C 
BRANCH  10  11
ATOM     11  CE  LYS A 135      28.863  34.646   8.092  1.00 34.25     0.338 C 
ATOM     12  NZ  LYS A 135      28.871  35.428   6.825  1.00 35.99     0.618 N 
ENDBRANCH  10  11
ENDBRANCH   9  10
ENDBRANCH   8   9
ENDBRANCH   7   8
END_RES LYS A 135
