REMARK VINA RESULT:    -4.603      2.280      3.609
REMARK INTER + INTRA:         -15.039
REMARK INTER:                  -9.293
REMARK INTRA:                  -5.746
REMARK UNBOUND:                -6.804
REMARK SMILES CC(=O)N[C@@H]1[C@@H](O)C[C@](O)(C(=O)O)O[C@H]1C(O)[C@H](O)CNC(=O)OCc1cn(-c2ccccc2C(C)=O)nn1
REMARK SMILES IDX 21 1 22 2 23 3 20 5 18 6 16 7 15 8 9 9 8 10 14 11 6 12 5 13
REMARK SMILES IDX 10 14 11 16 12 17 13 18 7 20 4 22 2 23 1 25 3 26 17 27 19 29
REMARK SMILES IDX 24 31 25 32 26 33 27 34 39 35 28 36 38 37 29 38 34 39 30 40
REMARK SMILES IDX 33 41 31 42 32 43 35 44 37 45 36 46
REMARK H PARENT 21 4 10 15 13 19 7 21 4 24 17 28 19 30
REMARK Flexibility Score: inf
ROOT
ATOM      1  N   UNL     1      32.168  33.265  14.712  1.00  0.00    -0.319 N 
ATOM      2  C   UNL     1      31.395  32.769  15.817  1.00  0.00     0.407 C 
ATOM      3  O   UNL     1      31.311  33.466  16.857  1.00  0.00    -0.225 OA
ATOM      4  H   UNL     1      32.208  32.663  13.866  1.00  0.00     0.167 HD
ENDROOT
BRANCH   1   5
ATOM      5  C   UNL     1      32.838  34.529  14.817  1.00  0.00     0.154 C 
BRANCH   5   6
ATOM      6  C   UNL     1      32.390  35.600  13.879  1.00  0.00     0.165 C 
BRANCH   6   7
ATOM      7  C   UNL     1      30.906  35.661  13.671  1.00  0.00     0.176 C 
BRANCH   7   8
ATOM      8  C   UNL     1      30.459  36.658  12.634  1.00  0.00     0.178 C 
ATOM      9  C   UNL     1      30.908  38.735  11.730  1.00  0.00     0.269 C 
ATOM     10  C   UNL     1      29.500  39.253  11.959  1.00  0.00     0.112 C 
ATOM     11  O   UNL     1      31.208  37.783  12.636  1.00  0.00    -0.332 OA
ATOM     12  C   UNL     1      28.753  38.428  12.954  1.00  0.00     0.145 C 
ATOM     13  C   UNL     1      28.990  36.970  12.820  1.00  0.00     0.142 C 
BRANCH   9  14
ATOM     14  O   UNL     1      31.732  39.888  11.965  1.00  0.00    -0.357 OA
ATOM     15  H   UNL     1      31.148  40.706  11.914  1.00  0.00     0.214 HD
ENDBRANCH   9  14
BRANCH   9  16
ATOM     16  C   UNL     1      31.088  38.424  10.308  1.00  0.00     0.364 C 
ATOM     17  O   UNL     1      30.139  38.202   9.523  1.00  0.00    -0.246 OA
BRANCH  16  18
ATOM     18  O   UNL     1      32.363  38.360   9.740  1.00  0.00    -0.477 OA
ATOM     19  H   UNL     1      33.188  38.482  10.315  1.00  0.00     0.296 HD
ENDBRANCH  16  18
ENDBRANCH   9  16
BRANCH  12  20
ATOM     20  O   UNL     1      29.152  38.830  14.240  1.00  0.00    -0.391 OA
ATOM     21  H   UNL     1      30.120  38.713  14.391  1.00  0.00     0.211 HD
ENDBRANCH  12  20
BRANCH  13  22
ATOM     22  N   UNL     1      28.138  36.380  11.838  1.00  0.00    -0.348 N 
ATOM     23  C   UNL     1      27.468  35.141  12.036  1.00  0.00     0.217 C 
ATOM     24  H   UNL     1      27.988  36.867  10.935  1.00  0.00     0.163 HD
ATOM     25  C   UNL     1      26.591  34.570  10.981  1.00  0.00     0.114 C 
ATOM     26  O   UNL     1      27.595  34.492  13.106  1.00  0.00    -0.275 OA
ENDBRANCH  13  22
ENDBRANCH   7   8
BRANCH   7  27
ATOM     27  O   UNL     1      30.169  35.644  14.828  1.00  0.00    -0.388 OA
ATOM     28  H   UNL     1      30.204  34.707  15.184  1.00  0.00     0.211 HD
ENDBRANCH   7  27
ENDBRANCH   6   7
BRANCH   6  29
ATOM     29  O   UNL     1      32.932  35.219  12.583  1.00  0.00    -0.388 OA
ATOM     30  H   UNL     1      32.468  35.837  11.958  1.00  0.00     0.211 HD
ENDBRANCH   6  29
ENDBRANCH   5   6
ENDBRANCH   1   5
BRANCH   2  31
ATOM     31  O   UNL     1      30.742  31.560  15.791  1.00  0.00    -0.443 OA
BRANCH  31  32
ATOM     32  C   UNL     1      29.793  31.197  16.791  1.00  0.00     0.294 C 
BRANCH  32  33
ATOM     33  C   UNL     1      28.401  31.362  16.303  1.00  0.00     0.121 A 
ATOM     34  C   UNL     1      27.524  30.392  15.895  1.00  0.00     0.144 A 
ATOM     35  N   UNL     1      27.728  32.538  16.169  1.00  0.00    -0.131 NA
ATOM     36  N   UNL     1      26.352  31.007  15.527  1.00  0.00    -0.220 N 
ATOM     37  N   UNL     1      26.526  32.301  15.711  1.00  0.00    -0.062 NA
BRANCH  36  38
ATOM     38  C   UNL     1      25.178  30.415  14.998  1.00  0.00     0.077 A 
ATOM     39  C   UNL     1      24.343  29.600  15.681  1.00  0.00     0.043 A 
ATOM     40  C   UNL     1      24.917  30.756  13.652  1.00  0.00     0.029 A 
ATOM     41  C   UNL     1      23.210  29.098  15.033  1.00  0.00     0.014 A 
ATOM     42  C   UNL     1      23.801  30.255  13.028  1.00  0.00     0.002 A 
ATOM     43  C   UNL     1      22.965  29.431  13.734  1.00  0.00     0.001 A 
BRANCH  39  44
ATOM     44  C   UNL     1      24.543  29.198  17.055  1.00  0.00     0.161 C 
ATOM     45  O   UNL     1      24.173  30.047  17.964  1.00  0.00    -0.294 OA
ATOM     46  C   UNL     1      25.115  27.946  17.552  1.00  0.00     0.093 C 
ENDBRANCH  39  44
ENDBRANCH  36  38
ENDBRANCH  32  33
ENDBRANCH  31  32
ENDBRANCH   2  31
TORSDOF 16
BEGIN_RES LYS A 131
REMARK  4 active torsions:
REMARK  status: ('A' for Active; 'I' for Inactive)
REMARK    1  A    between atoms: CA   and  CB  
REMARK    2  A    between atoms: CB   and  CG  
REMARK    3  A    between atoms: CG   and  CD  
REMARK    4  A    between atoms: CD   and  CE  
ROOT
ATOM      1  CA  LYS A 131      29.867  25.555  16.977  1.00 20.52     0.186 C 
ENDROOT
BRANCH   1   2
ATOM      2  CB  LYS A 131      28.345  25.722  17.026  1.00 20.94     0.034 C 
BRANCH   2   3
ATOM      3  CG  LYS A 131      27.601  24.404  16.872  1.00 22.96     0.005 C 
BRANCH   3   4
ATOM      4  CD  LYS A 131      26.643  24.160  18.005  1.00 24.33     0.041 C 
BRANCH   4   5
ATOM      5  CE  LYS A 131      25.482  23.302  17.513  1.00 26.91     0.338 C 
ATOM      6  NZ  LYS A 131      24.454  24.145  16.859  1.00 27.40     0.618 N 
ENDBRANCH   4   5
ENDBRANCH   3   4
ENDBRANCH   2   3
ENDBRANCH   1   2
END_RES LYS A 131
BEGIN_RES LYS A 135
REMARK  4 active torsions:
REMARK  status: ('A' for Active; 'I' for Inactive)
REMARK    5  A    between atoms: CA   and  CB  
REMARK    6  A    between atoms: CB   and  CG  
REMARK    7  A    between atoms: CG   and  CD  
REMARK    8  A    between atoms: CD   and  CE  
ROOT
ATOM      7  CA  LYS A 135      33.193  34.663   9.290  1.00 25.02     0.186 C 
ENDROOT
BRANCH   7   8
ATOM      8  CB  LYS A 135      32.060  35.360  10.034  1.00 26.63     0.034 C 
BRANCH   8   9
ATOM      9  CG  LYS A 135      30.717  34.706   9.835  1.00 29.45     0.005 C 
BRANCH   9  10
ATOM     10  CD  LYS A 135      30.436  34.495   8.355  1.00 32.00     0.041 C 
BRANCH  10  11
ATOM     11  CE  LYS A 135      28.995  34.838   8.033  1.00 34.25     0.338 C 
ATOM     12  NZ  LYS A 135      28.903  35.658   6.793  1.00 35.99     0.618 N 
ENDBRANCH  10  11
ENDBRANCH   9  10
ENDBRANCH   8   9
ENDBRANCH   7   8
END_RES LYS A 135
