REMARK VINA RESULT:    -4.089      7.864     13.063
REMARK INTER + INTRA:         -14.147
REMARK INTER:                  -9.409
REMARK INTRA:                  -4.737
REMARK UNBOUND:                -5.875
REMARK SMILES CC[N+](C)(CC)CCCn1cc(COC(=O)NC[C@@H](O)C(O)[C@@H]2O[C@@](O)(C(=O)O)C[C@H](O)[C@H]2NC(C)=O)nn1
REMARK SMILES IDX 14 1 15 2 17 3 16 5 18 6 19 7 21 8 23 9 25 10 30 11 24 12
REMARK SMILES IDX 31 13 33 14 26 15 27 17 28 18 29 19 32 21 34 23 35 24 36 26
REMARK SMILES IDX 37 27 22 28 20 30 13 32 12 33 11 34 38 35 10 36 39 37 9 38
REMARK SMILES IDX 8 39 7 40 3 41 4 42 2 43 1 44 5 45 6 46
REMARK H PARENT 17 4 26 16 29 20 32 22 34 25 22 29 20 31
REMARK Flexibility Score: inf
ROOT
ATOM      1  O   UNL     1      24.582  38.156  12.786  1.00  0.00    -0.443 OA
ENDROOT
BRANCH   1   2
ATOM      2  C   UNL     1      23.970  38.117  11.550  1.00  0.00     0.407 C 
ATOM      3  N   UNL     1      24.618  38.585  10.363  1.00  0.00    -0.319 N 
ATOM      4  H   UNL     1      25.571  38.944  10.483  1.00  0.00     0.167 HD
ATOM      5  O   UNL     1      22.807  37.658  11.469  1.00  0.00    -0.225 OA
BRANCH   3   6
ATOM      6  C   UNL     1      23.924  38.513   9.131  1.00  0.00     0.154 C 
BRANCH   6   7
ATOM      7  C   UNL     1      23.999  37.219   8.390  1.00  0.00     0.165 C 
BRANCH   7   8
ATOM      8  C   UNL     1      25.368  36.627   8.256  1.00  0.00     0.176 C 
BRANCH   8   9
ATOM      9  C   UNL     1      26.428  37.578   7.790  1.00  0.00     0.178 C 
ATOM     10  C   UNL     1      26.793  39.322   6.336  1.00  0.00     0.269 C 
ATOM     11  C   UNL     1      28.046  39.396   7.188  1.00  0.00     0.112 C 
ATOM     12  O   UNL     1      25.908  38.379   6.802  1.00  0.00    -0.332 OA
ATOM     13  C   UNL     1      28.749  38.074   7.212  1.00  0.00     0.145 C 
ATOM     14  C   UNL     1      27.708  36.960   7.348  1.00  0.00     0.142 C 
BRANCH  10  15
ATOM     15  O   UNL     1      27.197  38.947   5.042  1.00  0.00    -0.357 OA
ATOM     16  H   UNL     1      27.611  39.757   4.645  1.00  0.00     0.214 HD
ENDBRANCH  10  15
BRANCH  10  17
ATOM     17  C   UNL     1      26.159  40.648   6.264  1.00  0.00     0.364 C 
ATOM     18  O   UNL     1      25.743  41.214   7.314  1.00  0.00    -0.246 OA
BRANCH  17  19
ATOM     19  O   UNL     1      26.001  41.310   5.064  1.00  0.00    -0.477 OA
ATOM     20  H   UNL     1      26.685  41.238   4.335  1.00  0.00     0.296 HD
ENDBRANCH  17  19
ENDBRANCH  10  17
BRANCH  13  21
ATOM     21  O   UNL     1      29.468  37.927   6.019  1.00  0.00    -0.391 OA
ATOM     22  H   UNL     1      28.871  38.079   5.255  1.00  0.00     0.211 HD
ENDBRANCH  13  21
BRANCH  14  23
ATOM     23  N   UNL     1      28.266  36.070   8.372  1.00  0.00    -0.348 N 
ATOM     24  C   UNL     1      29.230  35.094   8.026  1.00  0.00     0.217 C 
ATOM     25  H   UNL     1      27.940  36.168   9.360  1.00  0.00     0.163 HD
ATOM     26  C   UNL     1      29.788  34.190   9.082  1.00  0.00     0.114 C 
ATOM     27  O   UNL     1      29.664  34.934   6.843  1.00  0.00    -0.275 OA
ENDBRANCH  14  23
ENDBRANCH   8   9
BRANCH   8  28
ATOM     28  O   UNL     1      25.733  36.049   9.482  1.00  0.00    -0.388 OA
ATOM     29  H   UNL     1      26.494  36.585   9.842  1.00  0.00     0.211 HD
ENDBRANCH   8  28
ENDBRANCH   7   8
BRANCH   7  30
ATOM     30  O   UNL     1      23.449  37.453   7.112  1.00  0.00    -0.388 OA
ATOM     31  H   UNL     1      23.775  36.818   6.443  1.00  0.00     0.211 HD
ENDBRANCH   7  30
ENDBRANCH   6   7
ENDBRANCH   3   6
ENDBRANCH   1   2
BRANCH   1  32
ATOM     32  C   UNL     1      25.893  38.696  12.887  1.00  0.00     0.294 C 
BRANCH  32  33
ATOM     33  C   UNL     1      26.889  37.684  12.469  1.00  0.00     0.120 A 
ATOM     34  C   UNL     1      27.453  36.650  13.185  1.00  0.00     0.138 A 
ATOM     35  N   UNL     1      27.451  37.595  11.245  1.00  0.00    -0.132 NA
ATOM     36  N   UNL     1      28.321  35.972  12.409  1.00  0.00    -0.252 N 
ATOM     37  N   UNL     1      28.289  36.578  11.241  1.00  0.00    -0.067 NA
BRANCH  36  38
ATOM     38  C   UNL     1      29.129  34.842  12.732  1.00  0.00     0.152 C 
BRANCH  38  39
ATOM     39  C   UNL     1      29.466  34.725  14.169  1.00  0.00     0.085 C 
BRANCH  39  40
ATOM     40  C   UNL     1      30.805  34.243  14.546  1.00  0.00     0.265 C 
BRANCH  40  41
ATOM     41  N   UNL     1      31.349  34.531  15.810  1.00  0.00    -0.326 N 
ATOM     42  C   UNL     1      30.581  35.387  16.673  1.00  0.00     0.334 C 
BRANCH  41  43
ATOM     43  C   UNL     1      31.406  33.241  16.526  1.00  0.00     0.260 C 
ATOM     44  C   UNL     1      31.127  32.058  15.681  1.00  0.00     0.071 C 
ENDBRANCH  41  43
BRANCH  41  45
ATOM     45  C   UNL     1      32.698  35.022  15.769  1.00  0.00     0.260 C 
ATOM     46  C   UNL     1      33.425  34.767  14.499  1.00  0.00     0.071 C 
ENDBRANCH  41  45
ENDBRANCH  40  41
ENDBRANCH  39  40
ENDBRANCH  38  39
ENDBRANCH  36  38
ENDBRANCH  32  33
ENDBRANCH   1  32
TORSDOF 20
BEGIN_RES LYS A 131
REMARK  4 active torsions:
REMARK  status: ('A' for Active; 'I' for Inactive)
REMARK    1  A    between atoms: CA   and  CB  
REMARK    2  A    between atoms: CB   and  CG  
REMARK    3  A    between atoms: CG   and  CD  
REMARK    4  A    between atoms: CD   and  CE  
ROOT
ATOM      1  CA  LYS A 131      29.867  25.555  16.977  1.00 20.52     0.186 C 
ENDROOT
BRANCH   1   2
ATOM      2  CB  LYS A 131      28.345  25.722  17.026  1.00 20.94     0.034 C 
BRANCH   2   3
ATOM      3  CG  LYS A 131      27.601  24.404  16.879  1.00 22.96     0.005 C 
BRANCH   3   4
ATOM      4  CD  LYS A 131      26.189  24.490  17.388  1.00 24.33     0.041 C 
BRANCH   4   5
ATOM      5  CE  LYS A 131      26.057  25.690  18.321  1.00 26.91     0.338 C 
ATOM      6  NZ  LYS A 131      25.636  25.253  19.673  1.00 27.40     0.618 N 
ENDBRANCH   4   5
ENDBRANCH   3   4
ENDBRANCH   2   3
ENDBRANCH   1   2
END_RES LYS A 131
BEGIN_RES LYS A 135
REMARK  4 active torsions:
REMARK  status: ('A' for Active; 'I' for Inactive)
REMARK    5  A    between atoms: CA   and  CB  
REMARK    6  A    between atoms: CB   and  CG  
REMARK    7  A    between atoms: CG   and  CD  
REMARK    8  A    between atoms: CD   and  CE  
ROOT
ATOM      7  CA  LYS A 135      33.193  34.663   9.290  1.00 25.02     0.186 C 
ENDROOT
BRANCH   7   8
ATOM      8  CB  LYS A 135      32.060  35.360  10.034  1.00 26.63     0.034 C 
BRANCH   8   9
ATOM      9  CG  LYS A 135      32.493  35.999  11.328  1.00 29.45     0.005 C 
BRANCH   9  10
ATOM     10  CD  LYS A 135      31.878  37.383  11.475  1.00 32.00     0.041 C 
BRANCH  10  11
ATOM     11  CE  LYS A 135      31.510  37.651  12.922  1.00 34.25     0.338 C 
ATOM     12  NZ  LYS A 135      30.518  38.757  13.027  1.00 35.99     0.618 N 
ENDBRANCH  10  11
ENDBRANCH   9  10
ENDBRANCH   8   9
ENDBRANCH   7   8
END_RES LYS A 135
