REMARK VINA RESULT:    -5.243      6.781     12.460
REMARK INTER + INTRA:         -14.086
REMARK INTER:                  -8.696
REMARK INTRA:                  -5.389
REMARK UNBOUND:                -5.012
REMARK SMILES CC(=O)N[C@@H]1[C@@H](O)C[C@](O)(C(=O)O)O[C@H]1C(O)[C@H](O)CNC(=O)OCc1cn(-c2ccc(C)cc2)nn1
REMARK SMILES IDX 20 1 18 2 16 3 15 4 9 5 8 6 14 7 6 8 5 9 10 10 11 12 12 13
REMARK SMILES IDX 13 14 7 16 4 18 2 19 1 21 3 22 17 23 19 25 21 27 22 28 23 30
REMARK SMILES IDX 24 31 25 32 26 33 27 34 37 35 28 36 36 37 29 38 30 39 35 40
REMARK SMILES IDX 31 41 34 42 32 43 33 44
REMARK H PARENT 10 11 13 15 7 17 4 20 17 24 19 26 21 29
REMARK Flexibility Score: inf
ROOT
ATOM      1  C   UNL     1      24.749  41.207   5.805  1.00  0.00     0.154 C 
ENDROOT
BRANCH   1   2
ATOM      2  C   UNL     1      25.004  40.111   6.754  1.00  0.00     0.165 C 
BRANCH   2   3
ATOM      3  C   UNL     1      26.361  39.485   6.811  1.00  0.00     0.176 C 
BRANCH   3   4
ATOM      4  C   UNL     1      26.543  38.354   7.772  1.00  0.00     0.178 C 
ATOM      5  C   UNL     1      28.851  37.974   7.619  1.00  0.00     0.269 C 
ATOM      6  C   UNL     1      28.675  36.524   7.202  1.00  0.00     0.112 C 
ATOM      7  O   UNL     1      27.818  38.471   8.348  1.00  0.00    -0.332 OA
ATOM      8  C   UNL     1      27.309  36.359   6.556  1.00  0.00     0.145 C 
ATOM      9  C   UNL     1      26.220  36.973   7.374  1.00  0.00     0.142 C 
BRANCH   5  10
ATOM     10  O   UNL     1      29.161  38.680   6.481  1.00  0.00    -0.357 OA
ATOM     11  H   UNL     1      30.107  38.602   6.193  1.00  0.00     0.214 HD
ENDBRANCH   5  10
BRANCH   5  12
ATOM     12  C   UNL     1      30.053  37.980   8.510  1.00  0.00     0.364 C 
ATOM     13  O   UNL     1      29.952  38.037   9.772  1.00  0.00    -0.246 OA
BRANCH  12  14
ATOM     14  O   UNL     1      31.318  37.925   7.963  1.00  0.00    -0.477 OA
ATOM     15  H   UNL     1      31.437  37.549   7.019  1.00  0.00     0.296 HD
ENDBRANCH  12  14
ENDBRANCH   5  12
BRANCH   8  16
ATOM     16  O   UNL     1      27.403  37.081   5.365  1.00  0.00    -0.391 OA
ATOM     17  H   UNL     1      26.729  37.807   5.321  1.00  0.00     0.211 HD
ENDBRANCH   8  16
BRANCH   9  18
ATOM     18  N   UNL     1      25.924  36.245   8.593  1.00  0.00    -0.348 N 
ATOM     19  C   UNL     1      24.634  36.135   9.137  1.00  0.00     0.217 C 
ATOM     20  H   UNL     1      26.743  35.797   9.054  1.00  0.00     0.163 HD
ATOM     21  C   UNL     1      24.302  35.403  10.374  1.00  0.00     0.114 C 
ATOM     22  O   UNL     1      23.724  36.709   8.508  1.00  0.00    -0.275 OA
ENDBRANCH   9  18
ENDBRANCH   3   4
BRANCH   3  23
ATOM     23  O   UNL     1      27.183  40.512   7.472  1.00  0.00    -0.388 OA
ATOM     24  H   UNL     1      27.686  40.043   8.189  1.00  0.00     0.211 HD
ENDBRANCH   3  23
ENDBRANCH   2   3
BRANCH   2  25
ATOM     25  O   UNL     1      23.963  39.196   6.796  1.00  0.00    -0.388 OA
ATOM     26  H   UNL     1      23.820  38.756   5.903  1.00  0.00     0.211 HD
ENDBRANCH   2  25
ENDBRANCH   1   2
BRANCH   1  27
ATOM     27  N   UNL     1      25.932  41.984   5.427  1.00  0.00    -0.319 N 
ATOM     28  C   UNL     1      26.432  41.984   4.105  1.00  0.00     0.407 C 
ATOM     29  H   UNL     1      26.466  42.567   6.123  1.00  0.00     0.167 HD
ATOM     30  O   UNL     1      25.867  41.314   3.234  1.00  0.00    -0.225 OA
BRANCH  28  31
ATOM     31  O   UNL     1      27.557  42.716   3.722  1.00  0.00    -0.443 OA
BRANCH  31  32
ATOM     32  C   UNL     1      28.748  42.036   3.403  1.00  0.00     0.294 C 
BRANCH  32  33
ATOM     33  C   UNL     1      29.552  41.697   4.581  1.00  0.00     0.121 A 
ATOM     34  C   UNL     1      30.891  41.368   4.525  1.00  0.00     0.144 A 
ATOM     35  N   UNL     1      29.232  41.624   5.888  1.00  0.00    -0.131 NA
ATOM     36  N   UNL     1      31.350  41.107   5.767  1.00  0.00    -0.220 N 
ATOM     37  N   UNL     1      30.318  41.272   6.567  1.00  0.00    -0.062 NA
BRANCH  36  38
ATOM     38  C   UNL     1      32.661  40.729   6.182  1.00  0.00     0.066 A 
ATOM     39  C   UNL     1      33.366  39.752   5.510  1.00  0.00     0.029 A 
ATOM     40  C   UNL     1      33.284  41.315   7.265  1.00  0.00     0.029 A 
ATOM     41  C   UNL     1      34.636  39.375   5.900  1.00  0.00     0.005 A 
ATOM     42  C   UNL     1      34.552  40.943   7.661  1.00  0.00     0.005 A 
ATOM     43  C   UNL     1      35.251  39.966   6.984  1.00  0.00    -0.051 A 
ATOM     44  C   UNL     1      36.615  39.594   7.443  1.00  0.00     0.044 C 
ENDBRANCH  36  38
ENDBRANCH  32  33
ENDBRANCH  31  32
ENDBRANCH  28  31
ENDBRANCH   1  27
TORSDOF 15
BEGIN_RES LYS A 131
REMARK  4 active torsions:
REMARK  status: ('A' for Active; 'I' for Inactive)
REMARK    1  A    between atoms: CA   and  CB  
REMARK    2  A    between atoms: CB   and  CG  
REMARK    3  A    between atoms: CG   and  CD  
REMARK    4  A    between atoms: CD   and  CE  
ROOT
ATOM      1  CA  LYS A 131      29.867  25.555  16.977  1.00 20.52     0.186 C 
ENDROOT
BRANCH   1   2
ATOM      2  CB  LYS A 131      28.345  25.722  17.026  1.00 20.94     0.034 C 
BRANCH   2   3
ATOM      3  CG  LYS A 131      27.601  24.401  16.900  1.00 22.96     0.005 C 
BRANCH   3   4
ATOM      4  CD  LYS A 131      26.151  24.530  17.275  1.00 24.33     0.041 C 
BRANCH   4   5
ATOM      5  CE  LYS A 131      25.957  24.082  18.720  1.00 26.91     0.338 C 
ATOM      6  NZ  LYS A 131      24.735  24.693  19.293  1.00 27.40     0.618 N 
ENDBRANCH   4   5
ENDBRANCH   3   4
ENDBRANCH   2   3
ENDBRANCH   1   2
END_RES LYS A 131
BEGIN_RES LYS A 135
REMARK  4 active torsions:
REMARK  status: ('A' for Active; 'I' for Inactive)
REMARK    5  A    between atoms: CA   and  CB  
REMARK    6  A    between atoms: CB   and  CG  
REMARK    7  A    between atoms: CG   and  CD  
REMARK    8  A    between atoms: CD   and  CE  
ROOT
ATOM      7  CA  LYS A 135      33.193  34.663   9.290  1.00 25.02     0.186 C 
ENDROOT
BRANCH   7   8
ATOM      8  CB  LYS A 135      32.060  35.360  10.034  1.00 26.63     0.034 C 
BRANCH   8   9
ATOM      9  CG  LYS A 135      30.740  34.641   9.931  1.00 29.45     0.005 C 
BRANCH   9  10
ATOM     10  CD  LYS A 135      29.886  34.908  11.161  1.00 32.00     0.041 C 
BRANCH  10  11
ATOM     11  CE  LYS A 135      28.412  34.779  10.825  1.00 34.25     0.338 C 
ATOM     12  NZ  LYS A 135      28.203  33.849   9.681  1.00 35.99     0.618 N 
ENDBRANCH  10  11
ENDBRANCH   9  10
ENDBRANCH   8   9
ENDBRANCH   7   8
END_RES LYS A 135
