REMARK VINA RESULT:    -3.788      4.095      8.748
REMARK INTER + INTRA:         -14.565
REMARK INTER:                  -8.320
REMARK INTRA:                  -6.245
REMARK UNBOUND:                -7.565
REMARK SMILES CC(=O)N[C@@H]1[C@@H](O)C[C@](O)(C(=O)O)O[C@H]1C(O)[C@H](O)CNC(=O)OCc1cn(CC(=O)Nc2ncccn2)nn1
REMARK SMILES IDX 21 1 22 2 23 3 20 5 18 6 16 7 15 8 9 9 8 10 14 11 6 12 5 13
REMARK SMILES IDX 10 14 11 16 12 17 13 18 7 20 4 22 2 23 1 25 3 26 17 27 19 29
REMARK SMILES IDX 24 31 25 32 26 33 27 34 40 35 28 36 39 37 29 38 30 39 31 40
REMARK SMILES IDX 32 41 33 43 34 44 38 45 35 46 37 47 36 48
REMARK H PARENT 21 4 10 15 13 19 7 21 4 24 17 28 19 30 32 42
REMARK Flexibility Score: inf
ROOT
ATOM      1  N   UNL     1      26.681  36.831  11.941  1.00  0.00    -0.319 N 
ATOM      2  C   UNL     1      27.422  35.653  12.297  1.00  0.00     0.407 C 
ATOM      3  O   UNL     1      26.901  34.747  12.993  1.00  0.00    -0.225 OA
ATOM      4  H   UNL     1      27.126  37.566  11.366  1.00  0.00     0.167 HD
ENDROOT
BRANCH   1   5
ATOM      5  C   UNL     1      25.326  36.936  12.410  1.00  0.00     0.154 C 
BRANCH   5   6
ATOM      6  C   UNL     1      24.329  37.194  11.307  1.00  0.00     0.165 C 
BRANCH   6   7
ATOM      7  C   UNL     1      24.099  35.883  10.595  1.00  0.00     0.176 C 
BRANCH   7   8
ATOM      8  C   UNL     1      22.616  35.682  10.272  1.00  0.00     0.178 C 
ATOM      9  C   UNL     1      20.839  36.638   9.260  1.00  0.00     0.269 C 
ATOM     10  C   UNL     1      19.933  35.895  10.173  1.00  0.00     0.112 C 
ATOM     11  O   UNL     1      22.062  36.857   9.827  1.00  0.00    -0.332 OA
ATOM     12  C   UNL     1      20.473  35.628  11.558  1.00  0.00     0.145 C 
ATOM     13  C   UNL     1      21.922  35.230  11.547  1.00  0.00     0.142 C 
BRANCH   9  14
ATOM     14  O   UNL     1      20.299  37.952   9.051  1.00  0.00    -0.357 OA
ATOM     15  H   UNL     1      20.016  38.025   8.098  1.00  0.00     0.214 HD
ENDBRANCH   9  14
BRANCH   9  16
ATOM     16  C   UNL     1      20.886  36.035   7.897  1.00  0.00     0.364 C 
ATOM     17  O   UNL     1      20.194  35.058   7.610  1.00  0.00    -0.246 OA
BRANCH  16  18
ATOM     18  O   UNL     1      21.713  36.554   6.896  1.00  0.00    -0.477 OA
ATOM     19  H   UNL     1      22.591  36.129   6.655  1.00  0.00     0.296 HD
ENDBRANCH  16  18
ENDBRANCH   9  16
BRANCH  12  20
ATOM     20  O   UNL     1      20.270  36.793  12.301  1.00  0.00    -0.391 OA
ATOM     21  H   UNL     1      19.345  37.149  12.182  1.00  0.00     0.211 HD
ENDBRANCH  12  20
BRANCH  13  22
ATOM     22  N   UNL     1      22.168  33.844  11.740  1.00  0.00    -0.348 N 
ATOM     23  C   UNL     1      22.901  33.291  12.821  1.00  0.00     0.217 C 
ATOM     24  H   UNL     1      21.793  33.153  11.046  1.00  0.00     0.163 HD
ATOM     25  C   UNL     1      23.126  31.819  12.959  1.00  0.00     0.114 C 
ATOM     26  O   UNL     1      23.362  34.077  13.667  1.00  0.00    -0.275 OA
ENDBRANCH  13  22
ENDBRANCH   7   8
BRANCH   7  27
ATOM     27  O   UNL     1      24.867  35.773   9.452  1.00  0.00    -0.388 OA
ATOM     28  H   UNL     1      24.486  36.396   8.761  1.00  0.00     0.211 HD
ENDBRANCH   7  27
ENDBRANCH   6   7
BRANCH   6  29
ATOM     29  O   UNL     1      24.876  38.152  10.457  1.00  0.00    -0.388 OA
ATOM     30  H   UNL     1      24.123  38.543   9.938  1.00  0.00     0.211 HD
ENDBRANCH   6  29
ENDBRANCH   5   6
ENDBRANCH   1   5
BRANCH   2  31
ATOM     31  O   UNL     1      28.724  35.478  11.889  1.00  0.00    -0.443 OA
BRANCH  31  32
ATOM     32  C   UNL     1      29.183  34.524  10.977  1.00  0.00     0.294 C 
BRANCH  32  33
ATOM     33  C   UNL     1      28.521  34.708   9.668  1.00  0.00     0.120 A 
ATOM     34  C   UNL     1      28.900  35.513   8.614  1.00  0.00     0.138 A 
ATOM     35  N   UNL     1      27.398  34.078   9.286  1.00  0.00    -0.132 NA
ATOM     36  N   UNL     1      28.003  35.344   7.645  1.00  0.00    -0.243 N 
ATOM     37  N   UNL     1      27.110  34.473   8.082  1.00  0.00    -0.067 NA
BRANCH  36  38
ATOM     38  C   UNL     1      28.049  36.016   6.342  1.00  0.00     0.246 C 
BRANCH  38  39
ATOM     39  C   UNL     1      27.202  37.245   6.378  1.00  0.00     0.248 C 
ATOM     40  O   UNL     1      27.248  38.151   5.530  1.00  0.00    -0.272 OA
ATOM     41  N   UNL     1      26.276  37.386   7.463  1.00  0.00    -0.293 N 
ATOM     42  H   UNL     1      26.217  36.639   8.192  1.00  0.00     0.173 HD
BRANCH  41  43
ATOM     43  C   UNL     1      25.427  38.510   7.581  1.00  0.00     0.229 A 
ATOM     44  N   UNL     1      24.084  38.437   7.514  1.00  0.00    -0.221 NA
ATOM     45  N   UNL     1      25.954  39.736   7.771  1.00  0.00    -0.221 NA
ATOM     46  C   UNL     1      23.299  39.526   7.631  1.00  0.00     0.117 A 
ATOM     47  C   UNL     1      25.235  40.848   7.894  1.00  0.00     0.117 A 
ATOM     48  C   UNL     1      23.858  40.773   7.826  1.00  0.00     0.040 A 
ENDBRANCH  41  43
ENDBRANCH  38  39
ENDBRANCH  36  38
ENDBRANCH  32  33
ENDBRANCH  31  32
ENDBRANCH   2  31
TORSDOF 17
BEGIN_RES LYS A 131
REMARK  4 active torsions:
REMARK  status: ('A' for Active; 'I' for Inactive)
REMARK    1  A    between atoms: CA   and  CB  
REMARK    2  A    between atoms: CB   and  CG  
REMARK    3  A    between atoms: CG   and  CD  
REMARK    4  A    between atoms: CD   and  CE  
ROOT
ATOM      1  CA  LYS A 131      29.867  25.555  16.977  1.00 20.52     0.186 C 
ENDROOT
BRANCH   1   2
ATOM      2  CB  LYS A 131      28.345  25.722  17.026  1.00 20.94     0.034 C 
BRANCH   2   3
ATOM      3  CG  LYS A 131      27.602  24.397  16.952  1.00 22.96     0.005 C 
BRANCH   3   4
ATOM      4  CD  LYS A 131      26.605  24.243  18.066  1.00 24.33     0.041 C 
BRANCH   4   5
ATOM      5  CE  LYS A 131      25.248  23.858  17.485  1.00 26.91     0.338 C 
ATOM      6  NZ  LYS A 131      25.076  22.387  17.500  1.00 27.40     0.618 N 
ENDBRANCH   4   5
ENDBRANCH   3   4
ENDBRANCH   2   3
ENDBRANCH   1   2
END_RES LYS A 131
BEGIN_RES LYS A 135
REMARK  4 active torsions:
REMARK  status: ('A' for Active; 'I' for Inactive)
REMARK    5  A    between atoms: CA   and  CB  
REMARK    6  A    between atoms: CB   and  CG  
REMARK    7  A    between atoms: CG   and  CD  
REMARK    8  A    between atoms: CD   and  CE  
ROOT
ATOM      7  CA  LYS A 135      33.193  34.663   9.290  1.00 25.02     0.186 C 
ENDROOT
BRANCH   7   8
ATOM      8  CB  LYS A 135      32.060  35.360  10.034  1.00 26.63     0.034 C 
BRANCH   8   9
ATOM      9  CG  LYS A 135      32.501  36.037  11.306  1.00 29.45     0.005 C 
BRANCH   9  10
ATOM     10  CD  LYS A 135      31.808  37.381  11.467  1.00 32.00     0.041 C 
BRANCH  10  11
ATOM     11  CE  LYS A 135      31.455  37.627  12.922  1.00 34.25     0.338 C 
ATOM     12  NZ  LYS A 135      31.452  36.355  13.696  1.00 35.99     0.618 N 
ENDBRANCH  10  11
ENDBRANCH   9  10
ENDBRANCH   8   9
ENDBRANCH   7   8
END_RES LYS A 135
