REMARK VINA RESULT:    -5.038      2.227      5.041
REMARK INTER + INTRA:         -13.886
REMARK INTER:                  -8.919
REMARK INTRA:                  -4.967
REMARK UNBOUND:                -4.724
REMARK SMILES CC(=O)N[C@@H]1[C@@H](O)C[C@](O)(C(=O)O)O[C@H]1C(O)[C@H](O)CNC(=O)OCc1cn([C@@H](C)C(=O)O)nn1
REMARK SMILES IDX 21 1 22 2 23 3 20 5 18 6 16 7 15 8 9 9 8 10 14 11 6 12 5 13
REMARK SMILES IDX 10 14 11 16 12 17 13 18 7 20 4 22 2 23 1 25 3 26 17 27 19 29
REMARK SMILES IDX 24 31 25 32 26 33 27 34 35 35 28 36 34 37 29 38 30 39 31 40
REMARK SMILES IDX 32 41 33 42
REMARK H PARENT 21 4 10 15 13 19 7 21 4 24 17 28 19 30 33 43
REMARK Flexibility Score: inf
ROOT
ATOM      1  N   UNL     1      28.503  29.583  16.417  1.00  0.00    -0.319 N 
ATOM      2  C   UNL     1      27.136  29.238  16.515  1.00  0.00     0.407 C 
ATOM      3  O   UNL     1      26.235  29.958  16.013  1.00  0.00    -0.225 OA
ATOM      4  H   UNL     1      29.208  28.955  16.849  1.00  0.00     0.167 HD
ENDROOT
BRANCH   1   5
ATOM      5  C   UNL     1      28.942  30.768  15.741  1.00  0.00     0.154 C 
BRANCH   5   6
ATOM      6  C   UNL     1      29.638  31.765  16.675  1.00  0.00     0.165 C 
BRANCH   6   7
ATOM      7  C   UNL     1      30.523  32.616  15.832  1.00  0.00     0.176 C 
BRANCH   7   8
ATOM      8  C   UNL     1      29.855  33.448  14.791  1.00  0.00     0.178 C 
ATOM      9  C   UNL     1      31.631  34.876  14.278  1.00  0.00     0.269 C 
ATOM     10  C   UNL     1      31.215  35.674  15.449  1.00  0.00     0.112 C 
ATOM     11  O   UNL     1      30.829  33.838  13.883  1.00  0.00    -0.332 OA
ATOM     12  C   UNL     1      29.758  35.763  15.735  1.00  0.00     0.145 C 
ATOM     13  C   UNL     1      28.996  34.563  15.249  1.00  0.00     0.142 C 
BRANCH   9  14
ATOM     14  O   UNL     1      32.869  34.275  14.630  1.00  0.00    -0.357 OA
ATOM     15  H   UNL     1      33.516  35.003  14.749  1.00  0.00     0.214 HD
ENDBRANCH   9  14
BRANCH   9  16
ATOM     16  C   UNL     1      31.927  35.787  13.139  1.00  0.00     0.364 C 
ATOM     17  O   UNL     1      32.978  35.675  12.450  1.00  0.00    -0.246 OA
BRANCH  16  18
ATOM     18  O   UNL     1      31.049  36.799  12.793  1.00  0.00    -0.477 OA
ATOM     19  H   UNL     1      31.324  37.624  12.270  1.00  0.00     0.296 HD
ENDBRANCH  16  18
ENDBRANCH   9  16
BRANCH  12  20
ATOM     20  O   UNL     1      29.615  35.938  17.124  1.00  0.00    -0.391 OA
ATOM     21  H   UNL     1      28.700  35.635  17.344  1.00  0.00     0.211 HD
ENDBRANCH  12  20
BRANCH  13  22
ATOM     22  N   UNL     1      28.188  34.970  14.081  1.00  0.00    -0.348 N 
ATOM     23  C   UNL     1      26.892  34.450  13.871  1.00  0.00     0.217 C 
ATOM     24  H   UNL     1      28.539  35.645  13.377  1.00  0.00     0.163 HD
ATOM     25  C   UNL     1      26.049  34.826  12.721  1.00  0.00     0.114 C 
ATOM     26  O   UNL     1      26.403  33.615  14.702  1.00  0.00    -0.275 OA
ENDBRANCH  13  22
ENDBRANCH   7   8
BRANCH   7  27
ATOM     27  O   UNL     1      31.326  31.690  15.090  1.00  0.00    -0.388 OA
ATOM     28  H   UNL     1      31.073  31.852  14.147  1.00  0.00     0.211 HD
ENDBRANCH   7  27
ENDBRANCH   6   7
BRANCH   6  29
ATOM     29  O   UNL     1      30.364  30.982  17.563  1.00  0.00    -0.388 OA
ATOM     30  H   UNL     1      30.403  31.474  18.422  1.00  0.00     0.211 HD
ENDBRANCH   6  29
ENDBRANCH   5   6
ENDBRANCH   1   5
BRANCH   2  31
ATOM     31  O   UNL     1      26.731  28.067  17.183  1.00  0.00    -0.443 OA
BRANCH  31  32
ATOM     32  C   UNL     1      26.429  28.092  18.566  1.00  0.00     0.294 C 
BRANCH  32  33
ATOM     33  C   UNL     1      27.546  28.677  19.350  1.00  0.00     0.120 A 
ATOM     34  C   UNL     1      28.411  27.981  20.198  1.00  0.00     0.139 A 
ATOM     35  N   UNL     1      27.963  29.960  19.417  1.00  0.00    -0.132 NA
ATOM     36  N   UNL     1      29.285  28.843  20.725  1.00  0.00    -0.238 N 
ATOM     37  N   UNL     1      29.010  30.032  20.251  1.00  0.00    -0.066 NA
BRANCH  36  38
ATOM     38  C   UNL     1      30.367  28.535  21.668  1.00  0.00     0.215 C 
ATOM     39  C   UNL     1      29.903  28.810  23.088  1.00  0.00     0.046 C 
BRANCH  38  40
ATOM     40  C   UNL     1      30.829  27.155  21.538  1.00  0.00     0.328 C 
ATOM     41  O   UNL     1      31.752  26.877  20.740  1.00  0.00    -0.250 OA
BRANCH  40  42
ATOM     42  O   UNL     1      30.296  26.089  22.260  1.00  0.00    -0.480 OA
ATOM     43  H   UNL     1      30.079  26.181  23.246  1.00  0.00     0.296 HD
ENDBRANCH  40  42
ENDBRANCH  38  40
ENDBRANCH  36  38
ENDBRANCH  32  33
ENDBRANCH  31  32
ENDBRANCH   2  31
TORSDOF 17
BEGIN_RES LYS A 131
REMARK  4 active torsions:
REMARK  status: ('A' for Active; 'I' for Inactive)
REMARK    1  A    between atoms: CA   and  CB  
REMARK    2  A    between atoms: CB   and  CG  
REMARK    3  A    between atoms: CG   and  CD  
REMARK    4  A    between atoms: CD   and  CE  
ROOT
ATOM      1  CA  LYS A 131      29.867  25.555  16.977  1.00 20.52     0.186 C 
ENDROOT
BRANCH   1   2
ATOM      2  CB  LYS A 131      28.345  25.722  17.026  1.00 20.94     0.034 C 
BRANCH   2   3
ATOM      3  CG  LYS A 131      27.602  24.400  16.916  1.00 22.96     0.005 C 
BRANCH   3   4
ATOM      4  CD  LYS A 131      26.510  24.277  17.943  1.00 24.33     0.041 C 
BRANCH   4   5
ATOM      5  CE  LYS A 131      25.188  24.736  17.338  1.00 26.91     0.338 C 
ATOM      6  NZ  LYS A 131      24.345  23.569  16.986  1.00 27.40     0.618 N 
ENDBRANCH   4   5
ENDBRANCH   3   4
ENDBRANCH   2   3
ENDBRANCH   1   2
END_RES LYS A 131
BEGIN_RES LYS A 135
REMARK  4 active torsions:
REMARK  status: ('A' for Active; 'I' for Inactive)
REMARK    5  A    between atoms: CA   and  CB  
REMARK    6  A    between atoms: CB   and  CG  
REMARK    7  A    between atoms: CG   and  CD  
REMARK    8  A    between atoms: CD   and  CE  
ROOT
ATOM      7  CA  LYS A 135      33.193  34.663   9.290  1.00 25.02     0.186 C 
ENDROOT
BRANCH   7   8
ATOM      8  CB  LYS A 135      32.060  35.360  10.034  1.00 26.63     0.034 C 
BRANCH   8   9
ATOM      9  CG  LYS A 135      30.731  34.662   9.898  1.00 29.45     0.005 C 
BRANCH   9  10
ATOM     10  CD  LYS A 135      30.342  34.530   8.434  1.00 32.00     0.041 C 
BRANCH  10  11
ATOM     11  CE  LYS A 135      28.833  34.546   8.281  1.00 34.25     0.338 C 
ATOM     12  NZ  LYS A 135      28.171  33.837   9.411  1.00 35.99     0.618 N 
ENDBRANCH  10  11
ENDBRANCH   9  10
ENDBRANCH   8   9
ENDBRANCH   7   8
END_RES LYS A 135
