REMARK VINA RESULT:    -5.472      2.668      6.117
REMARK INTER + INTRA:         -17.529
REMARK INTER:                 -11.415
REMARK INTRA:                  -6.114
REMARK UNBOUND:                -6.299
REMARK SMILES CC(=O)N[C@@H]1[C@@H](O)C[C@](O)(C(=O)O)O[C@H]1C(O)[C@H](O)CNC(=O)OCc1cn(C[C@@H](C(=O)O)C(c2ccccc2)c2ccccc2)nn1
REMARK SMILES IDX 21 1 22 2 23 3 20 5 18 6 16 7 15 8 9 9 8 10 14 11 6 12 5 13
REMARK SMILES IDX 10 14 11 16 12 17 13 18 7 20 4 22 2 23 1 25 3 26 17 27 19 29
REMARK SMILES IDX 24 31 25 32 26 33 27 34 48 35 28 36 47 37 29 38 30 39 31 40
REMARK SMILES IDX 32 41 33 42 34 44 35 45 36 46 40 47 37 48 39 49 38 50 41 51
REMARK SMILES IDX 42 52 46 53 43 54 45 55 44 56
REMARK H PARENT 21 4 10 15 13 19 7 21 4 24 17 28 19 30 33 43
REMARK Flexibility Score: inf
ROOT
ATOM      1  N   UNL     1      25.387  30.848  15.449  1.00  0.00    -0.319 N 
ATOM      2  C   UNL     1      24.060  30.344  15.444  1.00  0.00     0.407 C 
ATOM      3  O   UNL     1      23.842  29.151  15.805  1.00  0.00    -0.225 OA
ATOM      4  H   UNL     1      25.485  31.857  15.132  1.00  0.00     0.167 HD
ENDROOT
BRANCH   1   5
ATOM      5  C   UNL     1      26.534  30.069  15.850  1.00  0.00     0.154 C 
BRANCH   5   6
ATOM      6  C   UNL     1      27.301  30.709  17.008  1.00  0.00     0.165 C 
BRANCH   6   7
ATOM      7  C   UNL     1      27.094  32.187  16.882  1.00  0.00     0.176 C 
BRANCH   7   8
ATOM      8  C   UNL     1      27.891  32.810  15.772  1.00  0.00     0.178 C 
ATOM      9  C   UNL     1      29.966  33.777  15.408  1.00  0.00     0.269 C 
ATOM     10  C   UNL     1      29.450  34.097  14.029  1.00  0.00     0.112 C 
ATOM     11  O   UNL     1      29.214  32.877  16.111  1.00  0.00    -0.332 OA
ATOM     12  C   UNL     1      28.009  34.476  14.010  1.00  0.00     0.145 C 
ATOM     13  C   UNL     1      27.394  34.182  15.378  1.00  0.00     0.142 C 
BRANCH   9  14
ATOM     14  O   UNL     1      30.090  34.984  16.105  1.00  0.00    -0.357 OA
ATOM     15  H   UNL     1      29.526  35.693  15.692  1.00  0.00     0.214 HD
ENDBRANCH   9  14
BRANCH   9  16
ATOM     16  C   UNL     1      31.327  33.210  15.241  1.00  0.00     0.364 C 
ATOM     17  O   UNL     1      32.322  33.971  15.309  1.00  0.00    -0.246 OA
BRANCH  16  18
ATOM     18  O   UNL     1      31.531  31.866  15.012  1.00  0.00    -0.477 OA
ATOM     19  H   UNL     1      31.239  31.179  15.720  1.00  0.00     0.296 HD
ENDBRANCH  16  18
ENDBRANCH   9  16
BRANCH  12  20
ATOM     20  O   UNL     1      27.746  35.753  13.580  1.00  0.00    -0.391 OA
ATOM     21  H   UNL     1      28.146  35.917  12.687  1.00  0.00     0.211 HD
ENDBRANCH  12  20
BRANCH  13  22
ATOM     22  N   UNL     1      25.941  34.207  15.280  1.00  0.00    -0.348 N 
ATOM     23  C   UNL     1      25.259  35.382  15.672  1.00  0.00     0.217 C 
ATOM     24  H   UNL     1      25.448  33.371  14.930  1.00  0.00     0.163 HD
ATOM     25  C   UNL     1      23.784  35.464  15.593  1.00  0.00     0.114 C 
ATOM     26  O   UNL     1      25.896  36.379  16.094  1.00  0.00    -0.275 OA
ENDBRANCH  13  22
ENDBRANCH   7   8
BRANCH   7  27
ATOM     27  O   UNL     1      27.266  32.807  18.102  1.00  0.00    -0.388 OA
ATOM     28  H   UNL     1      27.293  32.163  18.866  1.00  0.00     0.211 HD
ENDBRANCH   7  27
ENDBRANCH   6   7
BRANCH   6  29
ATOM     29  O   UNL     1      28.651  30.370  16.806  1.00  0.00    -0.388 OA
ATOM     30  H   UNL     1      28.962  31.008  16.097  1.00  0.00     0.211 HD
ENDBRANCH   6  29
ENDBRANCH   5   6
ENDBRANCH   1   5
BRANCH   2  31
ATOM     31  O   UNL     1      22.995  31.129  15.053  1.00  0.00    -0.443 OA
BRANCH  31  32
ATOM     32  C   UNL     1      22.611  31.238  13.676  1.00  0.00     0.294 C 
BRANCH  32  33
ATOM     33  C   UNL     1      23.188  32.457  13.066  1.00  0.00     0.120 A 
ATOM     34  C   UNL     1      22.457  33.447  12.391  1.00  0.00     0.138 A 
ATOM     35  N   UNL     1      24.453  32.887  13.011  1.00  0.00    -0.132 NA
ATOM     36  N   UNL     1      23.274  34.410  11.966  1.00  0.00    -0.251 N 
ATOM     37  N   UNL     1      24.512  34.039  12.365  1.00  0.00    -0.067 NA
BRANCH  36  38
ATOM     38  C   UNL     1      23.065  35.640  11.256  1.00  0.00     0.162 C 
BRANCH  38  39
ATOM     39  C   UNL     1      23.279  35.604   9.780  1.00  0.00     0.132 C 
BRANCH  39  40
ATOM     40  C   UNL     1      22.009  35.541   9.056  1.00  0.00     0.309 C 
ATOM     41  O   UNL     1      21.771  36.054   7.949  1.00  0.00    -0.252 OA
BRANCH  40  42
ATOM     42  O   UNL     1      20.922  34.843   9.626  1.00  0.00    -0.481 OA
ATOM     43  H   UNL     1      19.981  35.230   9.518  1.00  0.00     0.296 HD
ENDBRANCH  40  42
ENDBRANCH  39  40
BRANCH  39  44
ATOM     44  C   UNL     1      24.155  36.750   9.305  1.00  0.00     0.065 C 
BRANCH  44  45
ATOM     45  C   UNL     1      25.371  36.258   8.617  1.00  0.00    -0.040 A 
ATOM     46  C   UNL     1      25.916  35.002   8.911  1.00  0.00     0.004 A 
ATOM     47  C   UNL     1      26.025  37.006   7.657  1.00  0.00     0.004 A 
ATOM     48  C   UNL     1      27.045  34.542   8.271  1.00  0.00     0.000 A 
ATOM     49  C   UNL     1      27.150  36.563   7.011  1.00  0.00     0.000 A 
ATOM     50  C   UNL     1      27.675  35.331   7.306  1.00  0.00     0.000 A 
ENDBRANCH  44  45
BRANCH  44  51
ATOM     51  C   UNL     1      24.560  37.669  10.375  1.00  0.00    -0.040 A 
ATOM     52  C   UNL     1      23.895  38.900  10.457  1.00  0.00     0.004 A 
ATOM     53  C   UNL     1      25.547  37.391  11.295  1.00  0.00     0.004 A 
ATOM     54  C   UNL     1      24.246  39.787  11.447  1.00  0.00     0.000 A 
ATOM     55  C   UNL     1      25.899  38.278  12.287  1.00  0.00     0.000 A 
ATOM     56  C   UNL     1      25.245  39.503  12.377  1.00  0.00     0.000 A 
ENDBRANCH  44  51
ENDBRANCH  39  44
ENDBRANCH  38  39
ENDBRANCH  36  38
ENDBRANCH  32  33
ENDBRANCH  31  32
ENDBRANCH   2  31
TORSDOF 21
BEGIN_RES LYS A 131
REMARK  4 active torsions:
REMARK  status: ('A' for Active; 'I' for Inactive)
REMARK    1  A    between atoms: CA   and  CB  
REMARK    2  A    between atoms: CB   and  CG  
REMARK    3  A    between atoms: CG   and  CD  
REMARK    4  A    between atoms: CD   and  CE  
ROOT
ATOM      1  CA  LYS A 131      29.867  25.555  16.977  1.00 20.52     0.186 C 
ENDROOT
BRANCH   1   2
ATOM      2  CB  LYS A 131      28.345  25.722  17.026  1.00 20.94     0.034 C 
BRANCH   2   3
ATOM      3  CG  LYS A 131      27.599  24.458  16.627  1.00 22.96     0.005 C 
BRANCH   3   4
ATOM      4  CD  LYS A 131      26.999  23.756  17.814  1.00 24.33     0.041 C 
BRANCH   4   5
ATOM      5  CE  LYS A 131      25.478  23.764  17.694  1.00 26.91     0.338 C 
ATOM      6  NZ  LYS A 131      24.868  24.417  18.876  1.00 27.40     0.618 N 
ENDBRANCH   4   5
ENDBRANCH   3   4
ENDBRANCH   2   3
ENDBRANCH   1   2
END_RES LYS A 131
BEGIN_RES LYS A 135
REMARK  4 active torsions:
REMARK  status: ('A' for Active; 'I' for Inactive)
REMARK    5  A    between atoms: CA   and  CB  
REMARK    6  A    between atoms: CB   and  CG  
REMARK    7  A    between atoms: CG   and  CD  
REMARK    8  A    between atoms: CD   and  CE  
ROOT
ATOM      7  CA  LYS A 135      33.193  34.663   9.290  1.00 25.02     0.186 C 
ENDROOT
BRANCH   7   8
ATOM      8  CB  LYS A 135      32.060  35.360  10.034  1.00 26.63     0.034 C 
BRANCH   8   9
ATOM      9  CG  LYS A 135      30.688  34.946   9.568  1.00 29.45     0.005 C 
BRANCH   9  10
ATOM     10  CD  LYS A 135      29.629  35.371  10.572  1.00 32.00     0.041 C 
BRANCH  10  11
ATOM     11  CE  LYS A 135      29.755  36.850  10.885  1.00 34.25     0.338 C 
ATOM     12  NZ  LYS A 135      28.836  37.658  10.037  1.00 35.99     0.618 N 
ENDBRANCH  10  11
ENDBRANCH   9  10
ENDBRANCH   8   9
ENDBRANCH   7   8
END_RES LYS A 135
