REMARK VINA RESULT:    -4.223      3.561      7.391
REMARK INTER + INTRA:         -14.586
REMARK INTER:                  -8.040
REMARK INTRA:                  -6.546
REMARK UNBOUND:                -5.918
REMARK SMILES CC(=O)N[C@@H]1[C@@H](O)C[C@](O)(C(=O)O)O[C@H]1C(O)[C@H](O)CNC(=O)OCc1cn(CCCCCC(=O)O)nn1
REMARK SMILES IDX 25 1 24 2 22 3 21 4 23 6 20 7 18 8 16 9 15 10 9 11 8 12
REMARK SMILES IDX 14 13 6 14 5 15 10 16 11 18 12 19 13 20 7 22 4 24 2 25 1 27
REMARK SMILES IDX 3 28 17 29 19 31 26 33 27 34 38 35 28 36 37 37 29 38 30 39
REMARK SMILES IDX 31 40 32 41 33 42 34 43 35 44 36 45
REMARK H PARENT 21 5 10 17 13 21 7 23 4 26 17 30 19 32 36 46
REMARK Flexibility Score: inf
ROOT
ATOM      1  C   UNL     1      18.355  29.407  11.173  1.00  0.00     0.294 C 
ENDROOT
BRANCH   1   2
ATOM      2  O   UNL     1      17.552  30.554  11.428  1.00  0.00    -0.443 OA
BRANCH   2   3
ATOM      3  C   UNL     1      17.256  31.392  10.346  1.00  0.00     0.407 C 
ATOM      4  N   UNL     1      17.602  32.769  10.449  1.00  0.00    -0.319 N 
ATOM      5  H   UNL     1      18.071  33.090  11.337  1.00  0.00     0.167 HD
ATOM      6  O   UNL     1      16.697  30.887   9.341  1.00  0.00    -0.225 OA
BRANCH   4   7
ATOM      7  C   UNL     1      17.304  33.644   9.361  1.00  0.00     0.154 C 
BRANCH   7   8
ATOM      8  C   UNL     1      18.115  34.918   9.335  1.00  0.00     0.165 C 
BRANCH   8   9
ATOM      9  C   UNL     1      19.296  34.707   8.408  1.00  0.00     0.176 C 
BRANCH   9  10
ATOM     10  C   UNL     1      19.653  35.892   7.574  1.00  0.00     0.178 C 
ATOM     11  C   UNL     1      21.646  36.291   8.739  1.00  0.00     0.269 C 
ATOM     12  C   UNL     1      20.882  37.387   9.498  1.00  0.00     0.112 C 
ATOM     13  O   UNL     1      21.027  36.017   7.553  1.00  0.00    -0.332 OA
ATOM     14  C   UNL     1      20.116  38.139   8.438  1.00  0.00     0.145 C 
ATOM     15  C   UNL     1      19.016  37.187   7.932  1.00  0.00     0.142 C 
BRANCH  11  16
ATOM     16  O   UNL     1      21.851  35.192   9.570  1.00  0.00    -0.357 OA
ATOM     17  H   UNL     1      22.827  35.087   9.806  1.00  0.00     0.214 HD
ENDBRANCH  11  16
BRANCH  11  18
ATOM     18  C   UNL     1      22.978  36.869   8.425  1.00  0.00     0.364 C 
ATOM     19  O   UNL     1      23.855  36.965   9.336  1.00  0.00    -0.246 OA
BRANCH  18  20
ATOM     20  O   UNL     1      23.235  37.293   7.134  1.00  0.00    -0.477 OA
ATOM     21  H   UNL     1      24.186  37.647   6.958  1.00  0.00     0.296 HD
ENDBRANCH  18  20
ENDBRANCH  11  18
BRANCH  14  22
ATOM     22  O   UNL     1      19.548  39.312   8.934  1.00  0.00    -0.391 OA
ATOM     23  H   UNL     1      19.777  39.353   9.899  1.00  0.00     0.211 HD
ENDBRANCH  14  22
BRANCH  15  24
ATOM     24  N   UNL     1      18.341  37.802   6.797  1.00  0.00    -0.348 N 
ATOM     25  C   UNL     1      17.117  38.488   6.912  1.00  0.00     0.217 C 
ATOM     26  H   UNL     1      18.799  37.729   5.844  1.00  0.00     0.163 HD
ATOM     27  C   UNL     1      16.442  39.112   5.717  1.00  0.00     0.114 C 
ATOM     28  O   UNL     1      16.578  38.575   8.058  1.00  0.00    -0.275 OA
ENDBRANCH  15  24
ENDBRANCH   9  10
BRANCH   9  29
ATOM     29  O   UNL     1      18.829  33.728   7.484  1.00  0.00    -0.388 OA
ATOM     30  H   UNL     1      18.182  34.200   6.909  1.00  0.00     0.211 HD
ENDBRANCH   9  29
ENDBRANCH   8   9
BRANCH   8  31
ATOM     31  O   UNL     1      18.479  35.222  10.628  1.00  0.00    -0.388 OA
ATOM     32  H   UNL     1      18.067  34.599  11.277  1.00  0.00     0.211 HD
ENDBRANCH   8  31
ENDBRANCH   7   8
ENDBRANCH   4   7
ENDBRANCH   2   3
ENDBRANCH   1   2
BRANCH   1  33
ATOM     33  C   UNL     1      19.326  29.328  12.289  1.00  0.00     0.120 A 
ATOM     34  C   UNL     1      20.671  29.070  12.117  1.00  0.00     0.138 A 
ATOM     35  N   UNL     1      19.109  29.482  13.595  1.00  0.00    -0.132 NA
ATOM     36  N   UNL     1      21.202  29.082  13.359  1.00  0.00    -0.252 N 
ATOM     37  N   UNL     1      20.258  29.330  14.240  1.00  0.00    -0.067 NA
BRANCH  36  38
ATOM     38  C   UNL     1      22.628  28.840  13.588  1.00  0.00     0.146 C 
BRANCH  38  39
ATOM     39  C   UNL     1      23.400  29.694  12.617  1.00  0.00     0.024 C 
BRANCH  39  40
ATOM     40  C   UNL     1      24.036  30.901  13.272  1.00  0.00     0.002 C 
BRANCH  40  41
ATOM     41  C   UNL     1      23.035  31.907  13.723  1.00  0.00     0.012 C 
BRANCH  41  42
ATOM     42  C   UNL     1      22.450  32.731  12.609  1.00  0.00     0.122 C 
BRANCH  42  43
ATOM     43  C   UNL     1      20.983  32.823  12.642  1.00  0.00     0.303 C 
ATOM     44  O   UNL     1      20.348  33.332  11.704  1.00  0.00    -0.252 OA
BRANCH  43  45
ATOM     45  O   UNL     1      20.259  32.333  13.742  1.00  0.00    -0.481 OA
ATOM     46  H   UNL     1      20.128  32.920  14.573  1.00  0.00     0.296 HD
ENDBRANCH  43  45
ENDBRANCH  42  43
ENDBRANCH  41  42
ENDBRANCH  40  41
ENDBRANCH  39  40
ENDBRANCH  38  39
ENDBRANCH  36  38
ENDBRANCH   1  33
TORSDOF 21
BEGIN_RES LYS A 131
REMARK  4 active torsions:
REMARK  status: ('A' for Active; 'I' for Inactive)
REMARK    1  A    between atoms: CA   and  CB  
REMARK    2  A    between atoms: CB   and  CG  
REMARK    3  A    between atoms: CG   and  CD  
REMARK    4  A    between atoms: CD   and  CE  
ROOT
ATOM      1  CA  LYS A 131      29.867  25.555  16.977  1.00 20.52     0.186 C 
ENDROOT
BRANCH   1   2
ATOM      2  CB  LYS A 131      28.345  25.722  17.026  1.00 20.94     0.034 C 
BRANCH   2   3
ATOM      3  CG  LYS A 131      27.601  24.402  16.889  1.00 22.96     0.005 C 
BRANCH   3   4
ATOM      4  CD  LYS A 131      26.178  24.502  17.364  1.00 24.33     0.041 C 
BRANCH   4   5
ATOM      5  CE  LYS A 131      25.814  23.246  18.149  1.00 26.91     0.338 C 
ATOM      6  NZ  LYS A 131      25.463  23.591  19.546  1.00 27.40     0.618 N 
ENDBRANCH   4   5
ENDBRANCH   3   4
ENDBRANCH   2   3
ENDBRANCH   1   2
END_RES LYS A 131
BEGIN_RES LYS A 135
REMARK  4 active torsions:
REMARK  status: ('A' for Active; 'I' for Inactive)
REMARK    5  A    between atoms: CA   and  CB  
REMARK    6  A    between atoms: CB   and  CG  
REMARK    7  A    between atoms: CG   and  CD  
REMARK    8  A    between atoms: CD   and  CE  
ROOT
ATOM      7  CA  LYS A 135      33.193  34.663   9.290  1.00 25.02     0.186 C 
ENDROOT
BRANCH   7   8
ATOM      8  CB  LYS A 135      32.060  35.360  10.034  1.00 26.63     0.034 C 
BRANCH   8   9
ATOM      9  CG  LYS A 135      30.725  34.679   9.874  1.00 29.45     0.005 C 
BRANCH   9  10
ATOM     10  CD  LYS A 135      30.375  34.524   8.402  1.00 32.00     0.041 C 
BRANCH  10  11
ATOM     11  CE  LYS A 135      29.544  35.700   7.926  1.00 34.25     0.338 C 
ATOM     12  NZ  LYS A 135      28.260  35.242   7.326  1.00 35.99     0.618 N 
ENDBRANCH  10  11
ENDBRANCH   9  10
ENDBRANCH   8   9
ENDBRANCH   7   8
END_RES LYS A 135
