REMARK VINA RESULT:    -4.336      2.940      7.900
REMARK INTER + INTRA:         -14.964
REMARK INTER:                  -9.004
REMARK INTRA:                  -5.959
REMARK UNBOUND:                -5.938
REMARK SMILES CCOC(CCn1cc(COC(=O)NC[C@@H](O)C(O)[C@@H]2O[C@@](O)(C(=O)O)C[C@H](O)[C@H]2NC(C)=O)nn1)OCC
REMARK SMILES IDX 11 1 12 2 14 3 13 5 15 6 16 7 18 8 20 9 22 10 27 11 21 12
REMARK SMILES IDX 28 13 30 14 23 15 24 17 25 18 26 19 29 21 31 23 32 24 33 26
REMARK SMILES IDX 34 27 19 28 17 30 10 32 9 33 8 34 35 35 7 36 36 37 6 38 5 39
REMARK SMILES IDX 4 40 3 41 2 42 1 43 37 44 38 45 39 46
REMARK H PARENT 14 4 23 16 26 20 29 22 31 25 19 29 17 31
REMARK Flexibility Score: inf
ROOT
ATOM      1  O   UNL     1      27.940  29.948  19.999  1.00  0.00    -0.443 OA
ENDROOT
BRANCH   1   2
ATOM      2  C   UNL     1      29.169  30.380  19.480  1.00  0.00     0.407 C 
ATOM      3  N   UNL     1      29.243  31.246  18.369  1.00  0.00    -0.319 N 
ATOM      4  H   UNL     1      28.300  31.553  17.969  1.00  0.00     0.167 HD
ATOM      5  O   UNL     1      30.195  29.973  20.030  1.00  0.00    -0.225 OA
BRANCH   3   6
ATOM      6  C   UNL     1      30.419  31.751  17.734  1.00  0.00     0.154 C 
BRANCH   6   7
ATOM      7  C   UNL     1      30.385  31.518  16.250  1.00  0.00     0.165 C 
BRANCH   7   8
ATOM      8  C   UNL     1      29.556  32.659  15.665  1.00  0.00     0.176 C 
BRANCH   8   9
ATOM      9  C   UNL     1      30.285  33.376  14.573  1.00  0.00     0.178 C 
ATOM     10  C   UNL     1      31.983  34.936  14.324  1.00  0.00     0.269 C 
ATOM     11  C   UNL     1      31.487  35.181  12.937  1.00  0.00     0.112 C 
ATOM     12  O   UNL     1      31.558  33.745  14.893  1.00  0.00    -0.332 OA
ATOM     13  C   UNL     1      30.022  34.925  12.735  1.00  0.00     0.145 C 
ATOM     14  C   UNL     1      29.438  34.544  14.077  1.00  0.00     0.142 C 
BRANCH  10  15
ATOM     15  O   UNL     1      31.704  36.032  15.145  1.00  0.00    -0.357 OA
ATOM     16  H   UNL     1      30.763  35.912  15.471  1.00  0.00     0.214 HD
ENDBRANCH  10  15
BRANCH  10  17
ATOM     17  C   UNL     1      33.468  34.833  14.230  1.00  0.00     0.364 C 
ATOM     18  O   UNL     1      34.203  35.247  15.150  1.00  0.00    -0.246 OA
BRANCH  17  19
ATOM     19  O   UNL     1      34.033  34.258  13.076  1.00  0.00    -0.477 OA
ATOM     20  H   UNL     1      33.726  33.310  12.865  1.00  0.00     0.296 HD
ENDBRANCH  17  19
ENDBRANCH  10  17
BRANCH  13  21
ATOM     21  O   UNL     1      29.352  35.990  12.145  1.00  0.00    -0.391 OA
ATOM     22  H   UNL     1      29.924  36.299  11.396  1.00  0.00     0.211 HD
ENDBRANCH  13  21
BRANCH  14  23
ATOM     23  N   UNL     1      28.072  34.076  13.967  1.00  0.00    -0.348 N 
ATOM     24  C   UNL     1      27.004  34.979  14.218  1.00  0.00     0.217 C 
ATOM     25  H   UNL     1      27.813  33.108  13.712  1.00  0.00     0.163 HD
ATOM     26  C   UNL     1      25.583  34.591  14.128  1.00  0.00     0.114 C 
ATOM     27  O   UNL     1      27.284  36.169  14.531  1.00  0.00    -0.275 OA
ENDBRANCH  14  23
ENDBRANCH   8   9
BRANCH   8  28
ATOM     28  O   UNL     1      29.183  33.505  16.697  1.00  0.00    -0.388 OA
ATOM     29  H   UNL     1      28.406  34.081  16.462  1.00  0.00     0.211 HD
ENDBRANCH   8  28
ENDBRANCH   7   8
BRANCH   7  30
ATOM     30  O   UNL     1      29.727  30.353  15.952  1.00  0.00    -0.388 OA
ATOM     31  H   UNL     1      29.033  30.464  15.252  1.00  0.00     0.211 HD
ENDBRANCH   7  30
ENDBRANCH   6   7
ENDBRANCH   3   6
ENDBRANCH   1   2
BRANCH   1  32
ATOM     32  C   UNL     1      27.230  28.883  19.372  1.00  0.00     0.294 C 
BRANCH  32  33
ATOM     33  C   UNL     1      26.899  29.266  17.988  1.00  0.00     0.120 A 
ATOM     34  C   UNL     1      25.816  30.097  17.686  1.00  0.00     0.138 A 
ATOM     35  N   UNL     1      27.449  28.977  16.817  1.00  0.00    -0.132 NA
ATOM     36  N   UNL     1      25.766  30.268  16.349  1.00  0.00    -0.252 N 
ATOM     37  N   UNL     1      26.756  29.587  15.847  1.00  0.00    -0.067 NA
BRANCH  36  38
ATOM     38  C   UNL     1      24.775  31.062  15.680  1.00  0.00     0.151 C 
BRANCH  38  39
ATOM     39  C   UNL     1      24.671  30.759  14.204  1.00  0.00     0.086 C 
BRANCH  39  40
ATOM     40  C   UNL     1      23.794  29.582  13.908  1.00  0.00     0.251 C 
BRANCH  40  41
ATOM     41  O   UNL     1      23.180  29.795  12.678  1.00  0.00    -0.353 OA
BRANCH  41  42
ATOM     42  C   UNL     1      22.384  30.946  12.728  1.00  0.00     0.160 C 
ATOM     43  C   UNL     1      20.964  30.657  12.316  1.00  0.00     0.035 C 
ENDBRANCH  41  42
ENDBRANCH  40  41
BRANCH  40  44
ATOM     44  O   UNL     1      22.828  29.384  14.860  1.00  0.00    -0.353 OA
BRANCH  44  45
ATOM     45  C   UNL     1      22.594  28.031  15.104  1.00  0.00     0.160 C 
ATOM     46  C   UNL     1      23.200  27.666  16.455  1.00  0.00     0.035 C 
ENDBRANCH  44  45
ENDBRANCH  40  44
ENDBRANCH  39  40
ENDBRANCH  38  39
ENDBRANCH  36  38
ENDBRANCH  32  33
ENDBRANCH   1  32
TORSDOF 21
BEGIN_RES LYS A 131
REMARK  4 active torsions:
REMARK  status: ('A' for Active; 'I' for Inactive)
REMARK    1  A    between atoms: CA   and  CB  
REMARK    2  A    between atoms: CB   and  CG  
REMARK    3  A    between atoms: CG   and  CD  
REMARK    4  A    between atoms: CD   and  CE  
ROOT
ATOM      1  CA  LYS A 131      29.867  25.555  16.977  1.00 20.52     0.186 C 
ENDROOT
BRANCH   1   2
ATOM      2  CB  LYS A 131      28.345  25.722  17.026  1.00 20.94     0.034 C 
BRANCH   2   3
ATOM      3  CG  LYS A 131      27.601  24.401  16.898  1.00 22.96     0.005 C 
BRANCH   3   4
ATOM      4  CD  LYS A 131      26.500  24.271  17.913  1.00 24.33     0.041 C 
BRANCH   4   5
ATOM      5  CE  LYS A 131      25.150  24.448  17.225  1.00 26.91     0.338 C 
ATOM      6  NZ  LYS A 131      24.406  23.166  17.205  1.00 27.40     0.618 N 
ENDBRANCH   4   5
ENDBRANCH   3   4
ENDBRANCH   2   3
ENDBRANCH   1   2
END_RES LYS A 131
BEGIN_RES LYS A 135
REMARK  4 active torsions:
REMARK  status: ('A' for Active; 'I' for Inactive)
REMARK    5  A    between atoms: CA   and  CB  
REMARK    6  A    between atoms: CB   and  CG  
REMARK    7  A    between atoms: CG   and  CD  
REMARK    8  A    between atoms: CD   and  CE  
ROOT
ATOM      7  CA  LYS A 135      33.193  34.663   9.290  1.00 25.02     0.186 C 
ENDROOT
BRANCH   7   8
ATOM      8  CB  LYS A 135      32.060  35.360  10.034  1.00 26.63     0.034 C 
BRANCH   8   9
ATOM      9  CG  LYS A 135      30.917  35.771   9.142  1.00 29.45     0.005 C 
BRANCH   9  10
ATOM     10  CD  LYS A 135      30.438  34.593   8.307  1.00 32.00     0.041 C 
BRANCH  10  11
ATOM     11  CE  LYS A 135      29.231  34.985   7.477  1.00 34.25     0.338 C 
ATOM     12  NZ  LYS A 135      28.053  35.269   8.343  1.00 35.99     0.618 N 
ENDBRANCH  10  11
ENDBRANCH   9  10
ENDBRANCH   8   9
ENDBRANCH   7   8
END_RES LYS A 135
