REMARK VINA RESULT:    -3.711      6.900     11.864
REMARK INTER + INTRA:         -16.999
REMARK INTER:                 -10.494
REMARK INTRA:                  -6.505
REMARK UNBOUND:                -8.298
REMARK SMILES CC(=O)N[C@@H]1[C@@H](O)C[C@](O)(C(=O)O)O[C@H]1C(O)[C@H](O)CNC(=O)OCc1cn(CCCCCCCCCCC(=O)O)nn1
REMARK SMILES IDX 29 1 28 2 26 3 27 4 43 5 42 6 25 7 24 8 22 9 21 10 23 12
REMARK SMILES IDX 20 13 18 14 16 15 15 16 9 17 8 18 14 19 6 20 5 21 10 22
REMARK SMILES IDX 11 24 12 25 13 26 7 28 4 30 2 31 1 33 3 34 17 35 19 37 30 39
REMARK SMILES IDX 31 40 32 41 33 42 34 43 35 44 36 45 37 46 38 47 39 48 40 49
REMARK SMILES IDX 41 50
REMARK H PARENT 21 11 10 23 13 27 7 29 4 32 17 36 19 38 41 51
REMARK Flexibility Score: inf
ROOT
ATOM      1  C   UNL     1      28.024  38.533  11.600  1.00  0.00     0.146 C 
ENDROOT
BRANCH   1   2
ATOM      2  N   UNL     1      27.304  39.412  10.720  1.00  0.00    -0.252 N 
ATOM      3  C   UNL     1      26.665  40.735   9.090  1.00  0.00     0.120 A 
ATOM      4  C   UNL     1      27.711  39.981   9.549  1.00  0.00     0.138 A 
ATOM      5  N   UNL     1      25.656  40.609   9.979  1.00  0.00    -0.132 NA
ATOM      6  N   UNL     1      26.069  39.818  10.932  1.00  0.00    -0.067 NA
BRANCH   3   7
ATOM      7  C   UNL     1      26.671  41.530   7.844  1.00  0.00     0.294 C 
BRANCH   7   8
ATOM      8  O   UNL     1      26.215  40.756   6.756  1.00  0.00    -0.443 OA
BRANCH   8   9
ATOM      9  C   UNL     1      24.975  40.134   6.799  1.00  0.00     0.407 C 
ATOM     10  N   UNL     1      24.834  38.779   7.202  1.00  0.00    -0.319 N 
ATOM     11  H   UNL     1      25.671  38.220   7.474  1.00  0.00     0.167 HD
ATOM     12  O   UNL     1      23.946  40.817   6.465  1.00  0.00    -0.225 OA
BRANCH  10  13
ATOM     13  C   UNL     1      23.538  38.177   7.234  1.00  0.00     0.154 C 
BRANCH  13  14
ATOM     14  C   UNL     1      23.085  37.840   8.638  1.00  0.00     0.165 C 
BRANCH  14  15
ATOM     15  C   UNL     1      21.932  38.714   9.030  1.00  0.00     0.176 C 
BRANCH  15  16
ATOM     16  C   UNL     1      20.717  37.862   9.326  1.00  0.00     0.178 C 
ATOM     17  C   UNL     1      20.016  35.653   9.305  1.00  0.00     0.269 C 
ATOM     18  C   UNL     1      18.643  36.277   9.203  1.00  0.00     0.112 C 
ATOM     19  O   UNL     1      21.030  36.560   9.042  1.00  0.00    -0.332 OA
ATOM     20  C   UNL     1      18.658  37.267   8.070  1.00  0.00     0.145 C 
ATOM     21  C   UNL     1      19.569  38.418   8.521  1.00  0.00     0.142 C 
BRANCH  17  22
ATOM     22  O   UNL     1      20.082  34.672   8.320  1.00  0.00    -0.357 OA
ATOM     23  H   UNL     1      21.008  34.369   8.177  1.00  0.00     0.214 HD
ENDBRANCH  17  22
BRANCH  17  24
ATOM     24  C   UNL     1      20.125  35.020  10.619  1.00  0.00     0.364 C 
ATOM     25  O   UNL     1      19.193  35.159  11.448  1.00  0.00    -0.246 OA
BRANCH  24  26
ATOM     26  O   UNL     1      21.212  34.258  11.029  1.00  0.00    -0.477 OA
ATOM     27  H   UNL     1      22.132  34.446  10.600  1.00  0.00     0.296 HD
ENDBRANCH  24  26
ENDBRANCH  17  24
BRANCH  20  28
ATOM     28  O   UNL     1      19.103  36.683   6.904  1.00  0.00    -0.391 OA
ATOM     29  H   UNL     1      19.938  36.190   7.106  1.00  0.00     0.211 HD
ENDBRANCH  20  28
BRANCH  21  30
ATOM     30  N   UNL     1      18.733  39.281   9.328  1.00  0.00    -0.348 N 
ATOM     31  C   UNL     1      18.538  40.618   8.906  1.00  0.00     0.217 C 
ATOM     32  H   UNL     1      18.269  38.946  10.209  1.00  0.00     0.163 HD
ATOM     33  C   UNL     1      17.681  41.542   9.711  1.00  0.00     0.114 C 
ATOM     34  O   UNL     1      19.080  41.030   7.863  1.00  0.00    -0.275 OA
ENDBRANCH  21  30
ENDBRANCH  15  16
BRANCH  15  35
ATOM     35  O   UNL     1      21.701  39.615   7.985  1.00  0.00    -0.388 OA
ATOM     36  H   UNL     1      20.848  39.477   7.537  1.00  0.00     0.211 HD
ENDBRANCH  15  35
ENDBRANCH  14  15
BRANCH  14  37
ATOM     37  O   UNL     1      24.110  38.035   9.565  1.00  0.00    -0.388 OA
ATOM     38  H   UNL     1      24.988  37.920   9.156  1.00  0.00     0.211 HD
ENDBRANCH  14  37
ENDBRANCH  13  14
ENDBRANCH  10  13
ENDBRANCH   8   9
ENDBRANCH   7   8
ENDBRANCH   3   7
ENDBRANCH   1   2
BRANCH   1  39
ATOM     39  C   UNL     1      28.308  37.242  10.880  1.00  0.00     0.024 C 
BRANCH  39  40
ATOM     40  C   UNL     1      27.060  36.504  10.486  1.00  0.00     0.002 C 
BRANCH  40  41
ATOM     41  C   UNL     1      27.033  35.093  11.017  1.00  0.00     0.000 C 
BRANCH  41  42
ATOM     42  C   UNL     1      28.427  34.482  10.917  1.00  0.00     0.000 C 
BRANCH  42  43
ATOM     43  C   UNL     1      28.629  33.960   9.519  1.00  0.00     0.000 C 
BRANCH  43  44
ATOM     44  C   UNL     1      30.075  34.000   9.116  1.00  0.00     0.000 C 
BRANCH  44  45
ATOM     45  C   UNL     1      30.293  35.011   8.039  1.00  0.00     0.001 C 
BRANCH  45  46
ATOM     46  C   UNL     1      29.043  35.176   7.180  1.00  0.00     0.012 C 
BRANCH  46  47
ATOM     47  C   UNL     1      28.888  36.583   6.669  1.00  0.00     0.122 C 
BRANCH  47  48
ATOM     48  C   UNL     1      27.427  36.785   6.415  1.00  0.00     0.303 C 
ATOM     49  O   UNL     1      26.531  36.327   7.155  1.00  0.00    -0.252 OA
BRANCH  48  50
ATOM     50  O   UNL     1      27.028  37.522   5.299  1.00  0.00    -0.481 OA
ATOM     51  H   UNL     1      26.579  38.411   5.438  1.00  0.00     0.296 HD
ENDBRANCH  48  50
ENDBRANCH  47  48
ENDBRANCH  46  47
ENDBRANCH  45  46
ENDBRANCH  44  45
ENDBRANCH  43  44
ENDBRANCH  42  43
ENDBRANCH  41  42
ENDBRANCH  40  41
ENDBRANCH  39  40
ENDBRANCH   1  39
TORSDOF 26
BEGIN_RES LYS A 131
REMARK  4 active torsions:
REMARK  status: ('A' for Active; 'I' for Inactive)
REMARK    1  A    between atoms: CA   and  CB  
REMARK    2  A    between atoms: CB   and  CG  
REMARK    3  A    between atoms: CG   and  CD  
REMARK    4  A    between atoms: CD   and  CE  
ROOT
ATOM      1  CA  LYS A 131      29.867  25.555  16.977  1.00 20.52     0.186 C 
ENDROOT
BRANCH   1   2
ATOM      2  CB  LYS A 131      28.345  25.722  17.026  1.00 20.94     0.034 C 
BRANCH   2   3
ATOM      3  CG  LYS A 131      27.602  24.398  16.930  1.00 22.96     0.005 C 
BRANCH   3   4
ATOM      4  CD  LYS A 131      26.200  24.495  17.465  1.00 24.33     0.041 C 
BRANCH   4   5
ATOM      5  CE  LYS A 131      25.921  23.306  18.378  1.00 26.91     0.338 C 
ATOM      6  NZ  LYS A 131      25.363  23.766  19.672  1.00 27.40     0.618 N 
ENDBRANCH   4   5
ENDBRANCH   3   4
ENDBRANCH   2   3
ENDBRANCH   1   2
END_RES LYS A 131
BEGIN_RES LYS A 135
REMARK  4 active torsions:
REMARK  status: ('A' for Active; 'I' for Inactive)
REMARK    5  A    between atoms: CA   and  CB  
REMARK    6  A    between atoms: CB   and  CG  
REMARK    7  A    between atoms: CG   and  CD  
REMARK    8  A    between atoms: CD   and  CE  
ROOT
ATOM      7  CA  LYS A 135      33.193  34.663   9.290  1.00 25.02     0.186 C 
ENDROOT
BRANCH   7   8
ATOM      8  CB  LYS A 135      32.060  35.360  10.034  1.00 26.63     0.034 C 
BRANCH   8   9
ATOM      9  CG  LYS A 135      32.413  35.742  11.448  1.00 29.45     0.005 C 
BRANCH   9  10
ATOM     10  CD  LYS A 135      32.037  37.190  11.723  1.00 32.00     0.041 C 
BRANCH  10  11
ATOM     11  CE  LYS A 135      31.494  37.341  13.131  1.00 34.25     0.338 C 
ATOM     12  NZ  LYS A 135      30.629  36.187  13.499  1.00 35.99     0.618 N 
ENDBRANCH  10  11
ENDBRANCH   9  10
ENDBRANCH   8   9
ENDBRANCH   7   8
END_RES LYS A 135
