REMARK VINA RESULT:    -5.649      2.344      5.088
REMARK INTER + INTRA:         -15.929
REMARK INTER:                 -10.256
REMARK INTRA:                  -5.673
REMARK UNBOUND:                -5.490
REMARK SMILES CC(=O)N[C@@H]1[C@@H](O)C[C@](O)(C(=O)O)O[C@H]1C(O)[C@H](O)CNC(=O)OCc1cn(C(c2ccccc2)c2ccccc2)nn1
REMARK SMILES IDX 21 1 22 2 23 3 20 5 18 6 16 7 15 8 9 9 8 10 14 11 6 12 5 13
REMARK SMILES IDX 10 14 11 16 12 17 13 18 7 20 4 22 2 23 1 25 3 26 17 27 19 29
REMARK SMILES IDX 24 31 25 32 26 33 27 34 43 35 28 36 42 37 29 38 30 39 31 40
REMARK SMILES IDX 35 41 32 42 34 43 33 44 36 45 37 46 41 47 38 48 40 49 39 50
REMARK H PARENT 21 4 10 15 13 19 7 21 4 24 17 28 19 30
REMARK Flexibility Score: inf
ROOT
ATOM      1  N   UNL     1      25.184  32.284  17.192  1.00  0.00    -0.319 N 
ATOM      2  C   UNL     1      23.903  32.482  16.632  1.00  0.00     0.407 C 
ATOM      3  O   UNL     1      22.882  32.419  17.356  1.00  0.00    -0.225 OA
ATOM      4  H   UNL     1      26.011  32.340  16.563  1.00  0.00     0.167 HD
ENDROOT
BRANCH   1   5
ATOM      5  C   UNL     1      25.360  32.013  18.584  1.00  0.00     0.154 C 
BRANCH   5   6
ATOM      6  C   UNL     1      26.473  32.913  19.123  1.00  0.00     0.165 C 
BRANCH   6   7
ATOM      7  C   UNL     1      27.536  32.941  18.037  1.00  0.00     0.176 C 
BRANCH   7   8
ATOM      8  C   UNL     1      28.856  32.343  18.432  1.00  0.00     0.178 C 
ATOM      9  C   UNL     1      30.031  32.533  16.400  1.00  0.00     0.269 C 
ATOM     10  C   UNL     1      29.969  31.036  16.190  1.00  0.00     0.112 C 
ATOM     11  O   UNL     1      29.823  32.964  17.666  1.00  0.00    -0.332 OA
ATOM     12  C   UNL     1      28.829  30.391  16.918  1.00  0.00     0.145 C 
ATOM     13  C   UNL     1      28.876  30.869  18.339  1.00  0.00     0.142 C 
BRANCH   9  14
ATOM     14  O   UNL     1      29.035  33.067  15.581  1.00  0.00    -0.357 OA
ATOM     15  H   UNL     1      28.326  32.368  15.503  1.00  0.00     0.214 HD
ENDBRANCH   9  14
BRANCH   9  16
ATOM     16  C   UNL     1      31.345  33.031  15.851  1.00  0.00     0.364 C 
ATOM     17  O   UNL     1      31.928  33.999  16.346  1.00  0.00    -0.246 OA
BRANCH  16  18
ATOM     18  O   UNL     1      31.888  32.373  14.772  1.00  0.00    -0.477 OA
ATOM     19  H   UNL     1      32.844  32.602  14.478  1.00  0.00     0.296 HD
ENDBRANCH  16  18
ENDBRANCH   9  16
BRANCH  12  20
ATOM     20  O   UNL     1      27.670  30.680  16.256  1.00  0.00    -0.391 OA
ATOM     21  H   UNL     1      27.088  31.292  16.785  1.00  0.00     0.211 HD
ENDBRANCH  12  20
BRANCH  13  22
ATOM     22  N   UNL     1      30.109  30.316  18.934  1.00  0.00    -0.348 N 
ATOM     23  C   UNL     1      30.202  29.990  20.298  1.00  0.00     0.217 C 
ATOM     24  H   UNL     1      30.930  30.171  18.308  1.00  0.00     0.163 HD
ATOM     25  C   UNL     1      31.463  29.436  20.856  1.00  0.00     0.114 C 
ATOM     26  O   UNL     1      29.216  30.162  21.065  1.00  0.00    -0.275 OA
ENDBRANCH  13  22
ENDBRANCH   7   8
BRANCH   7  27
ATOM     27  O   UNL     1      27.756  34.347  17.798  1.00  0.00    -0.388 OA
ATOM     28  H   UNL     1      28.634  34.498  17.414  1.00  0.00     0.211 HD
ENDBRANCH   7  27
ENDBRANCH   6   7
BRANCH   6  29
ATOM     29  O   UNL     1      26.916  32.292  20.281  1.00  0.00    -0.388 OA
ATOM     30  H   UNL     1      27.847  32.000  20.232  1.00  0.00     0.211 HD
ENDBRANCH   6  29
ENDBRANCH   5   6
ENDBRANCH   1   5
BRANCH   2  31
ATOM     31  O   UNL     1      23.727  32.750  15.280  1.00  0.00    -0.443 OA
BRANCH  31  32
ATOM     32  C   UNL     1      23.800  34.078  14.837  1.00  0.00     0.294 C 
BRANCH  32  33
ATOM     33  C   UNL     1      25.211  34.400  14.507  1.00  0.00     0.120 A 
ATOM     34  C   UNL     1      25.798  34.252  13.247  1.00  0.00     0.139 A 
ATOM     35  N   UNL     1      26.203  34.876  15.280  1.00  0.00    -0.132 NA
ATOM     36  N   UNL     1      27.076  34.632  13.316  1.00  0.00    -0.240 N 
ATOM     37  N   UNL     1      27.303  35.005  14.548  1.00  0.00    -0.066 NA
BRANCH  36  38
ATOM     38  C   UNL     1      28.065  34.645  12.248  1.00  0.00     0.169 C 
BRANCH  38  39
ATOM     39  C   UNL     1      27.445  34.877  10.943  1.00  0.00    -0.019 A 
ATOM     40  C   UNL     1      26.750  36.056  10.648  1.00  0.00     0.006 A 
ATOM     41  C   UNL     1      27.554  33.925   9.949  1.00  0.00     0.006 A 
ATOM     42  C   UNL     1      26.192  36.254   9.404  1.00  0.00     0.000 A 
ATOM     43  C   UNL     1      26.985  34.148   8.711  1.00  0.00     0.000 A 
ATOM     44  C   UNL     1      26.297  35.305   8.408  1.00  0.00     0.000 A 
ENDBRANCH  38  39
BRANCH  38  45
ATOM     45  C   UNL     1      29.249  35.450  12.558  1.00  0.00    -0.019 A 
ATOM     46  C   UNL     1      29.150  36.847  12.676  1.00  0.00     0.006 A 
ATOM     47  C   UNL     1      30.473  34.853  12.745  1.00  0.00     0.006 A 
ATOM     48  C   UNL     1      30.254  37.604  12.974  1.00  0.00     0.000 A 
ATOM     49  C   UNL     1      31.593  35.636  13.047  1.00  0.00     0.000 A 
ATOM     50  C   UNL     1      31.479  37.002  13.160  1.00  0.00     0.000 A 
ENDBRANCH  38  45
ENDBRANCH  36  38
ENDBRANCH  32  33
ENDBRANCH  31  32
ENDBRANCH   2  31
TORSDOF 17
BEGIN_RES LYS A 131
REMARK  4 active torsions:
REMARK  status: ('A' for Active; 'I' for Inactive)
REMARK    1  A    between atoms: CA   and  CB  
REMARK    2  A    between atoms: CB   and  CG  
REMARK    3  A    between atoms: CG   and  CD  
REMARK    4  A    between atoms: CD   and  CE  
ROOT
ATOM      1  CA  LYS A 131      29.867  25.555  16.977  1.00 20.52     0.186 C 
ENDROOT
BRANCH   1   2
ATOM      2  CB  LYS A 131      28.345  25.722  17.026  1.00 20.94     0.034 C 
BRANCH   2   3
ATOM      3  CG  LYS A 131      27.612  24.404  17.221  1.00 22.96     0.005 C 
BRANCH   3   4
ATOM      4  CD  LYS A 131      26.123  24.592  17.314  1.00 24.33     0.041 C 
BRANCH   4   5
ATOM      5  CE  LYS A 131      25.448  23.235  17.483  1.00 26.91     0.338 C 
ATOM      6  NZ  LYS A 131      25.240  22.934  18.919  1.00 27.40     0.618 N 
ENDBRANCH   4   5
ENDBRANCH   3   4
ENDBRANCH   2   3
ENDBRANCH   1   2
END_RES LYS A 131
BEGIN_RES LYS A 135
REMARK  4 active torsions:
REMARK  status: ('A' for Active; 'I' for Inactive)
REMARK    5  A    between atoms: CA   and  CB  
REMARK    6  A    between atoms: CB   and  CG  
REMARK    7  A    between atoms: CG   and  CD  
REMARK    8  A    between atoms: CD   and  CE  
ROOT
ATOM      7  CA  LYS A 135      33.193  34.663   9.290  1.00 25.02     0.186 C 
ENDROOT
BRANCH   7   8
ATOM      8  CB  LYS A 135      32.060  35.360  10.034  1.00 26.63     0.034 C 
BRANCH   8   9
ATOM      9  CG  LYS A 135      30.784  35.453   9.238  1.00 29.45     0.005 C 
BRANCH   9  10
ATOM     10  CD  LYS A 135      30.279  36.887   9.199  1.00 32.00     0.041 C 
BRANCH  10  11
ATOM     11  CE  LYS A 135      29.482  37.138   7.933  1.00 34.25     0.338 C 
ATOM     12  NZ  LYS A 135      29.464  35.929   7.063  1.00 35.99     0.618 N 
ENDBRANCH  10  11
ENDBRANCH   9  10
ENDBRANCH   8   9
ENDBRANCH   7   8
END_RES LYS A 135
