REMARK VINA RESULT:    -5.056      8.611     14.923
REMARK INTER + INTRA:         -14.989
REMARK INTER:                 -10.018
REMARK INTRA:                  -4.971
REMARK UNBOUND:                -5.794
REMARK SMILES CC(=O)N[C@@H]1[C@@H](O)C[C@](O)(C(=O)O)O[C@H]1C(O)[C@H](O)CNC(=O)OCc1cn(Cc2cc(Br)cc(Br)c2O)nn1
REMARK SMILES IDX 21 1 22 2 23 3 20 5 18 6 16 7 15 8 9 9 8 10 14 11 6 12 5 13
REMARK SMILES IDX 10 14 11 16 12 17 13 18 7 20 4 22 2 23 1 25 3 26 17 27 19 29
REMARK SMILES IDX 24 31 25 32 26 33 27 34 40 35 28 36 39 37 29 38 30 39 31 40
REMARK SMILES IDX 37 41 32 42 35 43 33 44 34 45 36 46 38 47
REMARK H PARENT 21 4 10 15 13 19 7 21 4 24 17 28 19 30 38 48
REMARK Flexibility Score: inf
ROOT
ATOM      1  N   UNL     1      29.963  41.154   8.158  1.00  0.00    -0.319 N 
ATOM      2  C   UNL     1      28.611  41.140   8.604  1.00  0.00     0.407 C 
ATOM      3  O   UNL     1      28.357  40.717   9.755  1.00  0.00    -0.225 OA
ATOM      4  H   UNL     1      30.147  41.508   7.203  1.00  0.00     0.167 HD
ENDROOT
BRANCH   1   5
ATOM      5  C   UNL     1      31.046  40.696   8.986  1.00  0.00     0.154 C 
BRANCH   5   6
ATOM      6  C   UNL     1      32.284  40.454   8.172  1.00  0.00     0.165 C 
BRANCH   6   7
ATOM      7  C   UNL     1      31.976  40.273   6.701  1.00  0.00     0.176 C 
BRANCH   7   8
ATOM      8  C   UNL     1      33.243  40.563   5.876  1.00  0.00     0.178 C 
ATOM      9  C   UNL     1      35.201  39.258   5.916  1.00  0.00     0.269 C 
ATOM     10  C   UNL     1      35.944  40.574   5.638  1.00  0.00     0.112 C 
ATOM     11  O   UNL     1      33.872  39.397   5.694  1.00  0.00    -0.332 OA
ATOM     12  C   UNL     1      35.424  41.506   6.721  1.00  0.00     0.145 C 
ATOM     13  C   UNL     1      33.965  41.713   6.440  1.00  0.00     0.142 C 
BRANCH   9  14
ATOM     14  O   UNL     1      35.544  38.903   7.205  1.00  0.00    -0.357 OA
ATOM     15  H   UNL     1      35.774  39.670   7.784  1.00  0.00     0.214 HD
ENDBRANCH   9  14
BRANCH   9  16
ATOM     16  C   UNL     1      35.711  38.215   4.992  1.00  0.00     0.364 C 
ATOM     17  O   UNL     1      35.516  38.353   3.758  1.00  0.00    -0.246 OA
BRANCH  16  18
ATOM     18  O   UNL     1      36.396  37.091   5.443  1.00  0.00    -0.477 OA
ATOM     19  H   UNL     1      36.373  36.278   4.810  1.00  0.00     0.296 HD
ENDBRANCH  16  18
ENDBRANCH   9  16
BRANCH  12  20
ATOM     20  O   UNL     1      35.650  40.969   7.987  1.00  0.00    -0.391 OA
ATOM     21  H   UNL     1      35.219  40.090   8.016  1.00  0.00     0.211 HD
ENDBRANCH  12  20
BRANCH  13  22
ATOM     22  N   UNL     1      33.859  42.918   5.618  1.00  0.00    -0.348 N 
ATOM     23  C   UNL     1      32.900  43.935   5.850  1.00  0.00     0.217 C 
ATOM     24  H   UNL     1      34.512  43.077   4.801  1.00  0.00     0.163 HD
ATOM     25  C   UNL     1      32.828  45.151   4.984  1.00  0.00     0.114 C 
ATOM     26  O   UNL     1      32.089  43.816   6.804  1.00  0.00    -0.275 OA
ENDBRANCH  13  22
ENDBRANCH   7   8
BRANCH   7  27
ATOM     27  O   UNL     1      31.415  39.060   6.390  1.00  0.00    -0.388 OA
ATOM     28  H   UNL     1      30.489  39.139   6.079  1.00  0.00     0.211 HD
ENDBRANCH   7  27
ENDBRANCH   6   7
BRANCH   6  29
ATOM     29  O   UNL     1      33.025  39.430   8.721  1.00  0.00    -0.388 OA
ATOM     30  H   UNL     1      33.990  39.531   8.624  1.00  0.00     0.211 HD
ENDBRANCH   6  29
ENDBRANCH   5   6
ENDBRANCH   1   5
BRANCH   2  31
ATOM     31  O   UNL     1      27.598  41.582   7.790  1.00  0.00    -0.443 OA
BRANCH  31  32
ATOM     32  C   UNL     1      27.653  41.445   6.382  1.00  0.00     0.294 C 
BRANCH  32  33
ATOM     33  C   UNL     1      27.861  40.011   6.051  1.00  0.00     0.120 A 
ATOM     34  C   UNL     1      27.031  38.949   6.387  1.00  0.00     0.138 A 
ATOM     35  N   UNL     1      28.868  39.433   5.371  1.00  0.00    -0.132 NA
ATOM     36  N   UNL     1      27.554  37.809   5.912  1.00  0.00    -0.248 N 
ATOM     37  N   UNL     1      28.696  38.133   5.284  1.00  0.00    -0.067 NA
BRANCH  36  38
ATOM     38  C   UNL     1      27.026  36.478   6.029  1.00  0.00     0.185 C 
BRANCH  38  39
ATOM     39  C   UNL     1      27.457  35.788   7.272  1.00  0.00     0.018 A 
ATOM     40  C   UNL     1      26.547  35.679   8.305  1.00  0.00     0.025 A 
ATOM     41  C   UNL     1      28.713  35.256   7.443  1.00  0.00     0.134 A 
ATOM     42  C   UNL     1      26.841  35.061   9.501  1.00  0.00     0.019 A 
ATOM     43  C   UNL     1      29.037  34.625   8.648  1.00  0.00     0.061 A 
ATOM     44  Br  UNL     1      25.568  34.924  10.906  1.00  0.00    -0.051 Br
ATOM     45  C   UNL     1      28.113  34.529   9.661  1.00  0.00     0.035 A 
ATOM     46  Br  UNL     1      30.812  33.910   8.803  1.00  0.00    -0.047 Br
BRANCH  41  47
ATOM     47  O   UNL     1      29.646  35.349   6.428  1.00  0.00    -0.506 OA
ATOM     48  H   UNL     1      30.315  36.107   6.440  1.00  0.00     0.293 HD
ENDBRANCH  41  47
ENDBRANCH  38  39
ENDBRANCH  36  38
ENDBRANCH  32  33
ENDBRANCH  31  32
ENDBRANCH   2  31
TORSDOF 17
BEGIN_RES LYS A 131
REMARK  4 active torsions:
REMARK  status: ('A' for Active; 'I' for Inactive)
REMARK    1  A    between atoms: CA   and  CB  
REMARK    2  A    between atoms: CB   and  CG  
REMARK    3  A    between atoms: CG   and  CD  
REMARK    4  A    between atoms: CD   and  CE  
ROOT
ATOM      1  CA  LYS A 131      29.867  25.555  16.977  1.00 20.52     0.186 C 
ENDROOT
BRANCH   1   2
ATOM      2  CB  LYS A 131      28.345  25.722  17.026  1.00 20.94     0.034 C 
BRANCH   2   3
ATOM      3  CG  LYS A 131      27.602  24.399  16.925  1.00 22.96     0.005 C 
BRANCH   3   4
ATOM      4  CD  LYS A 131      26.596  24.228  18.029  1.00 24.33     0.041 C 
BRANCH   4   5
ATOM      5  CE  LYS A 131      26.057  25.594  18.442  1.00 26.91     0.338 C 
ATOM      6  NZ  LYS A 131      25.792  25.628  19.899  1.00 27.40     0.618 N 
ENDBRANCH   4   5
ENDBRANCH   3   4
ENDBRANCH   2   3
ENDBRANCH   1   2
END_RES LYS A 131
BEGIN_RES LYS A 135
REMARK  4 active torsions:
REMARK  status: ('A' for Active; 'I' for Inactive)
REMARK    5  A    between atoms: CA   and  CB  
REMARK    6  A    between atoms: CB   and  CG  
REMARK    7  A    between atoms: CG   and  CD  
REMARK    8  A    between atoms: CD   and  CE  
ROOT
ATOM      7  CA  LYS A 135      33.193  34.663   9.290  1.00 25.02     0.186 C 
ENDROOT
BRANCH   7   8
ATOM      8  CB  LYS A 135      32.060  35.360  10.034  1.00 26.63     0.034 C 
BRANCH   8   9
ATOM      9  CG  LYS A 135      32.519  36.133  11.243  1.00 29.45     0.005 C 
BRANCH   9  10
ATOM     10  CD  LYS A 135      31.698  37.402  11.413  1.00 32.00     0.041 C 
BRANCH  10  11
ATOM     11  CE  LYS A 135      30.218  37.074  11.477  1.00 34.25     0.338 C 
ATOM     12  NZ  LYS A 135      29.473  37.744  10.375  1.00 35.99     0.618 N 
ENDBRANCH  10  11
ENDBRANCH   9  10
ENDBRANCH   8   9
ENDBRANCH   7   8
END_RES LYS A 135
