REMARK VINA RESULT:    -5.306      3.339      8.175
REMARK INTER + INTRA:         -14.830
REMARK INTER:                  -8.396
REMARK INTRA:                  -6.434
REMARK UNBOUND:                -5.337
REMARK SMILES CC(=O)N[C@@H]1[C@@H](O)C[C@](O)(C(=O)O)O[C@H]1C(O)[C@H](O)CNC(=O)OCc1cn(CC2=CC[C@H]3C[C@@H]2C3(C)C)nn1
REMARK SMILES IDX 21 1 22 2 23 3 20 5 18 6 16 7 15 8 9 9 8 10 14 11 6 12 5 13
REMARK SMILES IDX 10 14 11 16 12 17 13 18 7 20 4 22 2 23 1 25 3 26 17 27 19 29
REMARK SMILES IDX 24 31 25 32 26 33 27 34 40 35 28 36 39 37 29 38 30 39 31 40
REMARK SMILES IDX 35 41 32 42 34 43 36 44 33 45 37 46 38 47
REMARK H PARENT 21 4 10 15 13 19 7 21 4 24 17 28 19 30
REMARK Flexibility Score: inf
ROOT
ATOM      1  N   UNL     1      26.170  34.186  13.349  1.00  0.00    -0.319 N 
ATOM      2  C   UNL     1      24.768  33.877  13.302  1.00  0.00     0.407 C 
ATOM      3  O   UNL     1      24.112  34.217  12.284  1.00  0.00    -0.225 OA
ATOM      4  H   UNL     1      26.719  33.906  14.189  1.00  0.00     0.167 HD
ENDROOT
BRANCH   1   5
ATOM      5  C   UNL     1      26.791  34.877  12.238  1.00  0.00     0.154 C 
BRANCH   5   6
ATOM      6  C   UNL     1      28.268  34.953  12.501  1.00  0.00     0.165 C 
BRANCH   6   7
ATOM      7  C   UNL     1      28.612  34.645  13.941  1.00  0.00     0.176 C 
BRANCH   7   8
ATOM      8  C   UNL     1      29.933  33.910  13.939  1.00  0.00     0.178 C 
ATOM      9  C   UNL     1      30.122  32.950  16.039  1.00  0.00     0.269 C 
ATOM     10  C   UNL     1      31.381  33.711  16.387  1.00  0.00     0.112 C 
ATOM     11  O   UNL     1      29.943  32.771  14.689  1.00  0.00    -0.332 OA
ATOM     12  C   UNL     1      32.063  34.096  15.098  1.00  0.00     0.145 C 
ATOM     13  C   UNL     1      31.053  34.868  14.273  1.00  0.00     0.142 C 
BRANCH   9  14
ATOM     14  O   UNL     1      29.025  33.561  16.654  1.00  0.00    -0.357 OA
ATOM     15  H   UNL     1      29.125  33.378  17.628  1.00  0.00     0.214 HD
ENDBRANCH   9  14
BRANCH   9  16
ATOM     16  C   UNL     1      30.256  31.597  16.655  1.00  0.00     0.364 C 
ATOM     17  O   UNL     1      30.614  31.504  17.878  1.00  0.00    -0.246 OA
BRANCH  16  18
ATOM     18  O   UNL     1      30.009  30.431  15.963  1.00  0.00    -0.477 OA
ATOM     19  H   UNL     1      29.083  30.012  15.930  1.00  0.00     0.296 HD
ENDBRANCH  16  18
ENDBRANCH   9  16
BRANCH  12  20
ATOM     20  O   UNL     1      33.166  34.901  15.304  1.00  0.00    -0.391 OA
ATOM     21  H   UNL     1      33.971  34.328  15.228  1.00  0.00     0.211 HD
ENDBRANCH  12  20
BRANCH  13  22
ATOM     22  N   UNL     1      31.657  35.457  13.106  1.00  0.00    -0.348 N 
ATOM     23  C   UNL     1      31.600  36.853  12.859  1.00  0.00     0.217 C 
ATOM     24  H   UNL     1      32.144  34.825  12.434  1.00  0.00     0.163 HD
ATOM     25  C   UNL     1      32.251  37.377  11.627  1.00  0.00     0.114 C 
ATOM     26  O   UNL     1      31.014  37.619  13.664  1.00  0.00    -0.275 OA
ENDBRANCH  13  22
ENDBRANCH   7   8
BRANCH   7  27
ATOM     27  O   UNL     1      28.781  35.818  14.672  1.00  0.00    -0.388 OA
ATOM     28  H   UNL     1      29.038  35.666  15.597  1.00  0.00     0.211 HD
ENDBRANCH   7  27
ENDBRANCH   6   7
BRANCH   6  29
ATOM     29  O   UNL     1      28.656  36.283  12.231  1.00  0.00    -0.388 OA
ATOM     30  H   UNL     1      29.205  36.319  11.398  1.00  0.00     0.211 HD
ENDBRANCH   6  29
ENDBRANCH   5   6
ENDBRANCH   1   5
BRANCH   2  31
ATOM     31  O   UNL     1      24.115  33.227  14.313  1.00  0.00    -0.443 OA
BRANCH  31  32
ATOM     32  C   UNL     1      24.010  31.818  14.414  1.00  0.00     0.294 C 
BRANCH  32  33
ATOM     33  C   UNL     1      25.165  31.273  15.154  1.00  0.00     0.120 A 
ATOM     34  C   UNL     1      25.330  30.017  15.690  1.00  0.00     0.138 A 
ATOM     35  N   UNL     1      26.292  31.943  15.437  1.00  0.00    -0.132 NA
ATOM     36  N   UNL     1      26.555  29.946  16.290  1.00  0.00    -0.248 N 
ATOM     37  N   UNL     1      27.112  31.136  16.116  1.00  0.00    -0.067 NA
BRANCH  36  38
ATOM     38  C   UNL     1      27.083  28.784  16.962  1.00  0.00     0.177 C 
BRANCH  38  39
ATOM     39  C   UNL     1      27.035  28.956  18.456  1.00  0.00    -0.049 C 
ATOM     40  C   UNL     1      28.033  29.536  19.117  1.00  0.00    -0.025 C 
ATOM     41  C   UNL     1      25.878  28.486  19.243  1.00  0.00     0.023 C 
ATOM     42  C   UNL     1      27.825  29.899  20.545  1.00  0.00     0.031 C 
ATOM     43  C   UNL     1      25.414  29.690  20.076  1.00  0.00     0.013 C 
ATOM     44  C   UNL     1      26.369  27.885  20.545  1.00  0.00    -0.026 C 
ATOM     45  C   UNL     1      26.531  29.330  21.041  1.00  0.00    -0.000 C 
ATOM     46  C   UNL     1      25.299  27.190  21.339  1.00  0.00     0.012 C 
ATOM     47  C   UNL     1      27.637  27.104  20.466  1.00  0.00     0.012 C 
ENDBRANCH  38  39
ENDBRANCH  36  38
ENDBRANCH  32  33
ENDBRANCH  31  32
ENDBRANCH   2  31
TORSDOF 16
BEGIN_RES LYS A 131
REMARK  4 active torsions:
REMARK  status: ('A' for Active; 'I' for Inactive)
REMARK    1  A    between atoms: CA   and  CB  
REMARK    2  A    between atoms: CB   and  CG  
REMARK    3  A    between atoms: CG   and  CD  
REMARK    4  A    between atoms: CD   and  CE  
ROOT
ATOM      1  CA  LYS A 131      29.867  25.555  16.977  1.00 20.52     0.186 C 
ENDROOT
BRANCH   1   2
ATOM      2  CB  LYS A 131      28.345  25.722  17.026  1.00 20.94     0.034 C 
BRANCH   2   3
ATOM      3  CG  LYS A 131      27.603  24.395  16.986  1.00 22.96     0.005 C 
BRANCH   3   4
ATOM      4  CD  LYS A 131      26.111  24.579  17.005  1.00 24.33     0.041 C 
BRANCH   4   5
ATOM      5  CE  LYS A 131      25.638  24.753  18.444  1.00 26.91     0.338 C 
ATOM      6  NZ  LYS A 131      25.814  23.492  19.204  1.00 27.40     0.618 N 
ENDBRANCH   4   5
ENDBRANCH   3   4
ENDBRANCH   2   3
ENDBRANCH   1   2
END_RES LYS A 131
BEGIN_RES LYS A 135
REMARK  4 active torsions:
REMARK  status: ('A' for Active; 'I' for Inactive)
REMARK    5  A    between atoms: CA   and  CB  
REMARK    6  A    between atoms: CB   and  CG  
REMARK    7  A    between atoms: CG   and  CD  
REMARK    8  A    between atoms: CD   and  CE  
ROOT
ATOM      7  CA  LYS A 135      33.193  34.663   9.290  1.00 25.02     0.186 C 
ENDROOT
BRANCH   7   8
ATOM      8  CB  LYS A 135      32.060  35.360  10.034  1.00 26.63     0.034 C 
BRANCH   8   9
ATOM      9  CG  LYS A 135      30.700  34.781   9.740  1.00 29.45     0.005 C 
BRANCH   9  10
ATOM     10  CD  LYS A 135      30.544  34.506   8.253  1.00 32.00     0.041 C 
BRANCH  10  11
ATOM     11  CE  LYS A 135      29.153  34.889   7.784  1.00 34.25     0.338 C 
ATOM     12  NZ  LYS A 135      28.470  35.758   8.782  1.00 35.99     0.618 N 
ENDBRANCH  10  11
ENDBRANCH   9  10
ENDBRANCH   8   9
ENDBRANCH   7   8
END_RES LYS A 135
