REMARK VINA RESULT:    -4.712      5.769     12.270
REMARK INTER + INTRA:         -14.072
REMARK INTER:                 -10.345
REMARK INTRA:                  -3.726
REMARK UNBOUND:                -5.917
REMARK SMILES CC(=O)N[C@@H]1[C@@H](O)C[C@](O)(C(=O)O)O[C@H]1C(O)[C@H](O)CNC(=O)OCc1cn(-c2c(C)cc(C)cc2C)nn1
REMARK SMILES IDX 20 1 18 2 16 3 15 4 9 5 8 6 14 7 6 8 5 9 10 10 11 12 12 13
REMARK SMILES IDX 13 14 7 16 4 18 2 19 1 21 3 22 17 23 19 25 21 27 22 28 23 30
REMARK SMILES IDX 24 31 25 32 26 33 27 34 39 35 28 36 38 37 29 38 30 39 36 40
REMARK SMILES IDX 31 41 32 42 35 43 37 44 33 45 34 46
REMARK H PARENT 10 11 13 15 7 17 4 20 17 24 19 26 21 29
REMARK Flexibility Score: inf
ROOT
ATOM      1  C   UNL     1      27.324  37.633  11.870  1.00  0.00     0.154 C 
ENDROOT
BRANCH   1   2
ATOM      2  C   UNL     1      27.116  38.151  10.493  1.00  0.00     0.165 C 
BRANCH   2   3
ATOM      3  C   UNL     1      26.234  37.321   9.617  1.00  0.00     0.176 C 
BRANCH   3   4
ATOM      4  C   UNL     1      26.895  36.644   8.476  1.00  0.00     0.178 C 
ATOM      5  C   UNL     1      29.045  35.872   7.974  1.00  0.00     0.269 C 
ATOM      6  C   UNL     1      28.685  35.750   6.521  1.00  0.00     0.112 C 
ATOM      7  O   UNL     1      27.985  35.905   8.830  1.00  0.00    -0.332 OA
ATOM      8  C   UNL     1      27.471  36.522   6.133  1.00  0.00     0.145 C 
ATOM      9  C   UNL     1      27.137  37.503   7.271  1.00  0.00     0.142 C 
BRANCH   5  10
ATOM     10  O   UNL     1      29.836  37.008   8.123  1.00  0.00    -0.357 OA
ATOM     11  H   UNL     1      30.462  36.841   8.885  1.00  0.00     0.214 HD
ENDBRANCH   5  10
BRANCH   5  12
ATOM     12  C   UNL     1      29.867  34.680   8.314  1.00  0.00     0.364 C 
ATOM     13  O   UNL     1      29.420  33.796   9.072  1.00  0.00    -0.246 OA
BRANCH  12  14
ATOM     14  O   UNL     1      31.158  34.527   7.791  1.00  0.00    -0.477 OA
ATOM     15  H   UNL     1      31.429  33.604   7.421  1.00  0.00     0.296 HD
ENDBRANCH  12  14
ENDBRANCH   5  12
BRANCH   8  16
ATOM     16  O   UNL     1      27.564  37.165   4.914  1.00  0.00    -0.391 OA
ATOM     17  H   UNL     1      26.642  37.481   4.675  1.00  0.00     0.211 HD
ENDBRANCH   8  16
BRANCH   9  18
ATOM     18  N   UNL     1      25.944  38.182   6.838  1.00  0.00    -0.348 N 
ATOM     19  C   UNL     1      25.862  39.587   7.026  1.00  0.00     0.217 C 
ATOM     20  H   UNL     1      25.139  37.680   6.390  1.00  0.00     0.163 HD
ATOM     21  C   UNL     1      24.673  40.380   6.616  1.00  0.00     0.114 C 
ATOM     22  O   UNL     1      26.811  40.215   7.558  1.00  0.00    -0.275 OA
ENDBRANCH   9  18
ENDBRANCH   3   4
BRANCH   3  23
ATOM     23  O   UNL     1      25.604  36.373  10.420  1.00  0.00    -0.388 OA
ATOM     24  H   UNL     1      25.042  36.857  11.074  1.00  0.00     0.211 HD
ENDBRANCH   3  23
ENDBRANCH   2   3
BRANCH   2  25
ATOM     25  O   UNL     1      28.330  38.472   9.882  1.00  0.00    -0.388 OA
ATOM     26  H   UNL     1      29.067  37.890  10.193  1.00  0.00     0.211 HD
ENDBRANCH   2  25
ENDBRANCH   1   2
BRANCH   1  27
ATOM     27  N   UNL     1      28.404  36.672  11.959  1.00  0.00    -0.319 N 
ATOM     28  C   UNL     1      28.200  35.300  12.279  1.00  0.00     0.407 C 
ATOM     29  H   UNL     1      29.419  36.940  11.787  1.00  0.00     0.167 HD
ATOM     30  O   UNL     1      27.053  34.871  12.500  1.00  0.00    -0.225 OA
BRANCH  28  31
ATOM     31  O   UNL     1      29.274  34.409  12.352  1.00  0.00    -0.443 OA
BRANCH  31  32
ATOM     32  C   UNL     1      30.186  34.506  13.458  1.00  0.00     0.294 C 
BRANCH  32  33
ATOM     33  C   UNL     1      29.489  34.025  14.677  1.00  0.00     0.121 A 
ATOM     34  C   UNL     1      29.437  32.710  15.108  1.00  0.00     0.144 A 
ATOM     35  N   UNL     1      28.803  34.725  15.569  1.00  0.00    -0.131 NA
ATOM     36  N   UNL     1      28.729  32.642  16.237  1.00  0.00    -0.220 N 
ATOM     37  N   UNL     1      28.359  33.910  16.484  1.00  0.00    -0.062 NA
BRANCH  36  38
ATOM     38  C   UNL     1      28.403  31.521  17.048  1.00  0.00     0.072 A 
ATOM     39  C   UNL     1      29.199  31.183  18.119  1.00  0.00    -0.025 A 
ATOM     40  C   UNL     1      27.289  30.735  16.796  1.00  0.00    -0.025 A 
ATOM     41  C   UNL     1      30.394  32.007  18.411  1.00  0.00     0.047 C 
ATOM     42  C   UNL     1      28.874  30.077  18.916  1.00  0.00     0.009 A 
ATOM     43  C   UNL     1      26.977  29.647  17.587  1.00  0.00     0.009 A 
ATOM     44  C   UNL     1      26.430  31.120  15.620  1.00  0.00     0.047 C 
ATOM     45  C   UNL     1      27.766  29.298  18.662  1.00  0.00    -0.050 A 
ATOM     46  C   UNL     1      27.441  28.124  19.527  1.00  0.00     0.044 C 
ENDBRANCH  36  38
ENDBRANCH  32  33
ENDBRANCH  31  32
ENDBRANCH  28  31
ENDBRANCH   1  27
TORSDOF 15
BEGIN_RES LYS A 131
REMARK  4 active torsions:
REMARK  status: ('A' for Active; 'I' for Inactive)
REMARK    1  A    between atoms: CA   and  CB  
REMARK    2  A    between atoms: CB   and  CG  
REMARK    3  A    between atoms: CG   and  CD  
REMARK    4  A    between atoms: CD   and  CE  
ROOT
ATOM      1  CA  LYS A 131      29.867  25.555  16.977  1.00 20.52     0.186 C 
ENDROOT
BRANCH   1   2
ATOM      2  CB  LYS A 131      28.345  25.722  17.026  1.00 20.94     0.034 C 
BRANCH   2   3
ATOM      3  CG  LYS A 131      27.601  24.405  16.871  1.00 22.96     0.005 C 
BRANCH   3   4
ATOM      4  CD  LYS A 131      26.539  24.227  17.921  1.00 24.33     0.041 C 
BRANCH   4   5
ATOM      5  CE  LYS A 131      25.162  24.303  17.270  1.00 26.91     0.338 C 
ATOM      6  NZ  LYS A 131      24.109  24.460  18.301  1.00 27.40     0.618 N 
ENDBRANCH   4   5
ENDBRANCH   3   4
ENDBRANCH   2   3
ENDBRANCH   1   2
END_RES LYS A 131
BEGIN_RES LYS A 135
REMARK  4 active torsions:
REMARK  status: ('A' for Active; 'I' for Inactive)
REMARK    5  A    between atoms: CA   and  CB  
REMARK    6  A    between atoms: CB   and  CG  
REMARK    7  A    between atoms: CG   and  CD  
REMARK    8  A    between atoms: CD   and  CE  
ROOT
ATOM      7  CA  LYS A 135      33.193  34.663   9.290  1.00 25.02     0.186 C 
ENDROOT
BRANCH   7   8
ATOM      8  CB  LYS A 135      32.060  35.360  10.034  1.00 26.63     0.034 C 
BRANCH   8   9
ATOM      9  CG  LYS A 135      32.519  36.133  11.243  1.00 29.45     0.005 C 
BRANCH   9  10
ATOM     10  CD  LYS A 135      31.924  37.533  11.243  1.00 32.00     0.041 C 
BRANCH  10  11
ATOM     11  CE  LYS A 135      31.495  37.929  12.643  1.00 34.25     0.338 C 
ATOM     12  NZ  LYS A 135      30.798  39.245  12.638  1.00 35.99     0.618 N 
ENDBRANCH  10  11
ENDBRANCH   9  10
ENDBRANCH   8   9
ENDBRANCH   7   8
END_RES LYS A 135
