REMARK VINA RESULT:    -5.014      5.870     12.130
REMARK INTER + INTRA:         -15.082
REMARK INTER:                 -10.041
REMARK INTRA:                  -5.041
REMARK UNBOUND:                -5.964
REMARK SMILES CC(=O)N[C@@H]1[C@@H](O)C[C@](O)(C(=O)O)O[C@H]1C(O)[C@H](O)CNC(=O)OCc1cn(-c2ccc(S(N)(=O)=O)cc2)nn1
REMARK SMILES IDX 21 1 22 2 23 3 20 5 18 6 16 7 15 8 9 9 8 10 14 11 6 12 5 13
REMARK SMILES IDX 10 14 11 16 12 17 13 18 7 20 4 22 2 23 1 25 3 26 17 27 19 29
REMARK SMILES IDX 24 31 25 32 26 33 27 34 40 35 28 36 39 37 29 38 30 39 38 40
REMARK SMILES IDX 31 41 37 42 32 43 33 44 35 45 36 46 34 47
REMARK H PARENT 21 4 10 15 13 19 7 21 4 24 17 28 19 30 34 48 34 49
REMARK Flexibility Score: inf
ROOT
ATOM      1  N   UNL     1      23.840  38.136  10.591  1.00  0.00    -0.319 N 
ATOM      2  C   UNL     1      23.670  38.277  11.975  1.00  0.00     0.407 C 
ATOM      3  O   UNL     1      24.418  39.016  12.637  1.00  0.00    -0.225 OA
ATOM      4  H   UNL     1      23.169  37.494  10.086  1.00  0.00     0.167 HD
ENDROOT
BRANCH   1   5
ATOM      5  C   UNL     1      24.860  38.815   9.874  1.00  0.00     0.154 C 
BRANCH   5   6
ATOM      6  C   UNL     1      26.116  37.975   9.675  1.00  0.00     0.165 C 
BRANCH   6   7
ATOM      7  C   UNL     1      25.855  36.986   8.575  1.00  0.00     0.176 C 
BRANCH   7   8
ATOM      8  C   UNL     1      27.039  36.646   7.754  1.00  0.00     0.178 C 
ATOM      9  C   UNL     1      29.225  35.887   8.028  1.00  0.00     0.269 C 
ATOM     10  C   UNL     1      29.047  35.713   6.540  1.00  0.00     0.112 C 
ATOM     11  O   UNL     1      28.118  36.403   8.644  1.00  0.00    -0.332 OA
ATOM     12  C   UNL     1      28.508  36.934   5.861  1.00  0.00     0.145 C 
ATOM     13  C   UNL     1      27.543  37.643   6.780  1.00  0.00     0.142 C 
BRANCH   9  14
ATOM     14  O   UNL     1      30.389  36.638   8.316  1.00  0.00    -0.357 OA
ATOM     15  H   UNL     1      30.781  36.359   9.181  1.00  0.00     0.214 HD
ENDBRANCH   9  14
BRANCH   9  16
ATOM     16  C   UNL     1      29.477  34.536   8.595  1.00  0.00     0.364 C 
ATOM     17  O   UNL     1      30.638  34.063   8.502  1.00  0.00    -0.246 OA
BRANCH  16  18
ATOM     18  O   UNL     1      28.514  33.765   9.219  1.00  0.00    -0.477 OA
ATOM     19  H   UNL     1      27.789  34.195   9.789  1.00  0.00     0.296 HD
ENDBRANCH  16  18
ENDBRANCH   9  16
BRANCH  12  20
ATOM     20  O   UNL     1      29.578  37.732   5.480  1.00  0.00    -0.391 OA
ATOM     21  H   UNL     1      29.434  38.616   5.905  1.00  0.00     0.211 HD
ENDBRANCH  12  20
BRANCH  13  22
ATOM     22  N   UNL     1      26.606  38.459   6.105  1.00  0.00    -0.348 N 
ATOM     23  C   UNL     1      26.829  39.832   5.858  1.00  0.00     0.217 C 
ATOM     24  H   UNL     1      25.718  38.053   5.749  1.00  0.00     0.163 HD
ATOM     25  C   UNL     1      25.821  40.686   5.140  1.00  0.00     0.114 C 
ATOM     26  O   UNL     1      27.898  40.328   6.258  1.00  0.00    -0.275 OA
ENDBRANCH  13  22
ENDBRANCH   7   8
BRANCH   7  27
ATOM     27  O   UNL     1      24.977  35.978   8.872  1.00  0.00    -0.388 OA
ATOM     28  H   UNL     1      24.685  35.548   8.037  1.00  0.00     0.211 HD
ENDBRANCH   7  27
ENDBRANCH   6   7
BRANCH   6  29
ATOM     29  O   UNL     1      26.487  37.440  10.880  1.00  0.00    -0.388 OA
ATOM     30  H   UNL     1      26.896  38.140  11.459  1.00  0.00     0.211 HD
ENDBRANCH   6  29
ENDBRANCH   5   6
ENDBRANCH   1   5
BRANCH   2  31
ATOM     31  O   UNL     1      22.664  37.602  12.683  1.00  0.00    -0.443 OA
BRANCH  31  32
ATOM     32  C   UNL     1      22.646  36.211  12.758  1.00  0.00     0.294 C 
BRANCH  32  33
ATOM     33  C   UNL     1      23.999  35.627  12.632  1.00  0.00     0.121 A 
ATOM     34  C   UNL     1      24.995  35.487  13.568  1.00  0.00     0.144 A 
ATOM     35  N   UNL     1      24.502  35.098  11.487  1.00  0.00    -0.131 NA
ATOM     36  N   UNL     1      26.061  34.893  13.002  1.00  0.00    -0.220 N 
ATOM     37  N   UNL     1      25.727  34.674  11.746  1.00  0.00    -0.062 NA
BRANCH  36  38
ATOM     38  C   UNL     1      27.311  34.553  13.595  1.00  0.00     0.066 A 
ATOM     39  C   UNL     1      28.494  34.638  12.894  1.00  0.00     0.030 A 
ATOM     40  C   UNL     1      27.387  34.118  14.906  1.00  0.00     0.030 A 
ATOM     41  C   UNL     1      29.709  34.312  13.452  1.00  0.00     0.024 A 
ATOM     42  C   UNL     1      28.603  33.791  15.469  1.00  0.00     0.024 A 
ATOM     43  C   UNL     1      29.793  33.872  14.778  1.00  0.00     0.082 A 
BRANCH  43  44
ATOM     44  S   UNL     1      31.339  33.458  15.482  1.00  0.00     0.238 S 
ATOM     45  O   UNL     1      31.316  33.924  16.911  1.00  0.00    -0.207 OA
ATOM     46  O   UNL     1      31.462  31.952  15.520  1.00  0.00    -0.207 OA
BRANCH  44  47
ATOM     47  N   UNL     1      32.659  34.157  14.645  1.00  0.00    -0.225 NA
ATOM     48  H   UNL     1      33.428  33.513  14.425  1.00  0.00     0.137 HD
ATOM     49  H   UNL     1      32.354  34.713  13.815  1.00  0.00     0.137 HD
ENDBRANCH  44  47
ENDBRANCH  43  44
ENDBRANCH  36  38
ENDBRANCH  32  33
ENDBRANCH  31  32
ENDBRANCH   2  31
TORSDOF 17
BEGIN_RES LYS A 131
REMARK  4 active torsions:
REMARK  status: ('A' for Active; 'I' for Inactive)
REMARK    1  A    between atoms: CA   and  CB  
REMARK    2  A    between atoms: CB   and  CG  
REMARK    3  A    between atoms: CG   and  CD  
REMARK    4  A    between atoms: CD   and  CE  
ROOT
ATOM      1  CA  LYS A 131      29.867  25.555  16.977  1.00 20.52     0.186 C 
ENDROOT
BRANCH   1   2
ATOM      2  CB  LYS A 131      28.345  25.722  17.026  1.00 20.94     0.034 C 
BRANCH   2   3
ATOM      3  CG  LYS A 131      27.599  24.426  16.748  1.00 22.96     0.005 C 
BRANCH   3   4
ATOM      4  CD  LYS A 131      26.928  23.884  17.979  1.00 24.33     0.041 C 
BRANCH   4   5
ATOM      5  CE  LYS A 131      25.707  23.064  17.574  1.00 26.91     0.338 C 
ATOM      6  NZ  LYS A 131      24.843  22.803  18.750  1.00 27.40     0.618 N 
ENDBRANCH   4   5
ENDBRANCH   3   4
ENDBRANCH   2   3
ENDBRANCH   1   2
END_RES LYS A 131
BEGIN_RES LYS A 135
REMARK  4 active torsions:
REMARK  status: ('A' for Active; 'I' for Inactive)
REMARK    5  A    between atoms: CA   and  CB  
REMARK    6  A    between atoms: CB   and  CG  
REMARK    7  A    between atoms: CG   and  CD  
REMARK    8  A    between atoms: CD   and  CE  
ROOT
ATOM      7  CA  LYS A 135      33.193  34.663   9.290  1.00 25.02     0.186 C 
ENDROOT
BRANCH   7   8
ATOM      8  CB  LYS A 135      32.060  35.360  10.034  1.00 26.63     0.034 C 
BRANCH   8   9
ATOM      9  CG  LYS A 135      32.433  35.797  11.427  1.00 29.45     0.005 C 
BRANCH   9  10
ATOM     10  CD  LYS A 135      32.244  37.298  11.587  1.00 32.00     0.041 C 
BRANCH  10  11
ATOM     11  CE  LYS A 135      31.015  37.593  12.426  1.00 34.25     0.338 C 
ATOM     12  NZ  LYS A 135      29.806  37.747  11.571  1.00 35.99     0.618 N 
ENDBRANCH  10  11
ENDBRANCH   9  10
ENDBRANCH   8   9
ENDBRANCH   7   8
END_RES LYS A 135
