REMARK VINA RESULT:    -4.960      3.661      6.953
REMARK INTER + INTRA:         -14.814
REMARK INTER:                  -8.138
REMARK INTRA:                  -6.676
REMARK UNBOUND:                -5.794
REMARK SMILES CC(=O)N[C@@H]1[C@@H](O)C[C@](O)(C(=O)O)O[C@H]1C(O)[C@H](O)CNC(=O)OCc1cn(Cc2cc(Br)cc(Br)c2O)nn1
REMARK SMILES IDX 21 1 22 2 23 3 20 5 18 6 16 7 15 8 9 9 8 10 14 11 6 12 5 13
REMARK SMILES IDX 10 14 11 16 12 17 13 18 7 20 4 22 2 23 1 25 3 26 17 27 19 29
REMARK SMILES IDX 24 31 25 32 26 33 27 34 40 35 28 36 39 37 29 38 30 39 31 40
REMARK SMILES IDX 37 41 32 42 35 43 33 44 34 45 36 46 38 47
REMARK H PARENT 21 4 10 15 13 19 7 21 4 24 17 28 19 30 38 48
REMARK Flexibility Score: inf
ROOT
ATOM      1  N   UNL     1      32.381  34.715  15.011  1.00  0.00    -0.319 N 
ATOM      2  C   UNL     1      32.425  36.080  14.609  1.00  0.00     0.407 C 
ATOM      3  O   UNL     1      32.357  36.973  15.484  1.00  0.00    -0.225 OA
ATOM      4  H   UNL     1      32.439  33.997  14.268  1.00  0.00     0.167 HD
ENDROOT
BRANCH   1   5
ATOM      5  C   UNL     1      32.259  34.328  16.390  1.00  0.00     0.154 C 
BRANCH   5   6
ATOM      6  C   UNL     1      30.965  33.607  16.637  1.00  0.00     0.165 C 
BRANCH   6   7
ATOM      7  C   UNL     1      30.949  32.231  16.007  1.00  0.00     0.176 C 
BRANCH   7   8
ATOM      8  C   UNL     1      29.801  31.405  16.616  1.00  0.00     0.178 C 
ATOM      9  C   UNL     1      27.523  31.986  16.507  1.00  0.00     0.269 C 
ATOM     10  C   UNL     1      27.398  31.283  17.867  1.00  0.00     0.112 C 
ATOM     11  O   UNL     1      28.699  31.678  15.909  1.00  0.00    -0.332 OA
ATOM     12  C   UNL     1      28.487  31.938  18.702  1.00  0.00     0.145 C 
ATOM     13  C   UNL     1      29.795  31.546  18.079  1.00  0.00     0.142 C 
BRANCH   9  14
ATOM     14  O   UNL     1      27.331  33.329  16.764  1.00  0.00    -0.357 OA
ATOM     15  H   UNL     1      27.511  33.586  17.701  1.00  0.00     0.214 HD
ENDBRANCH   9  14
BRANCH   9  16
ATOM     16  C   UNL     1      26.426  31.519  15.622  1.00  0.00     0.364 C 
ATOM     17  O   UNL     1      26.298  30.285  15.420  1.00  0.00    -0.246 OA
BRANCH  16  18
ATOM     18  O   UNL     1      25.537  32.397  15.011  1.00  0.00    -0.477 OA
ATOM     19  H   UNL     1      25.939  33.301  14.722  1.00  0.00     0.296 HD
ENDBRANCH  16  18
ENDBRANCH   9  16
BRANCH  12  20
ATOM     20  O   UNL     1      28.313  33.320  18.746  1.00  0.00    -0.391 OA
ATOM     21  H   UNL     1      28.549  33.675  17.865  1.00  0.00     0.211 HD
ENDBRANCH  12  20
BRANCH  13  22
ATOM     22  N   UNL     1      30.250  30.343  18.775  1.00  0.00    -0.348 N 
ATOM     23  C   UNL     1      30.991  30.377  19.982  1.00  0.00     0.217 C 
ATOM     24  H   UNL     1      30.036  29.380  18.391  1.00  0.00     0.163 HD
ATOM     25  C   UNL     1      31.437  29.121  20.659  1.00  0.00     0.114 C 
ATOM     26  O   UNL     1      31.284  31.486  20.499  1.00  0.00    -0.275 OA
ENDBRANCH  13  22
ENDBRANCH   7   8
BRANCH   7  27
ATOM     27  O   UNL     1      30.915  32.243  14.635  1.00  0.00    -0.388 OA
ATOM     28  H   UNL     1      31.596  31.664  14.233  1.00  0.00     0.211 HD
ENDBRANCH   7  27
ENDBRANCH   6   7
BRANCH   6  29
ATOM     29  O   UNL     1      29.899  34.402  16.282  1.00  0.00    -0.388 OA
ATOM     30  H   UNL     1      29.024  34.024  16.492  1.00  0.00     0.211 HD
ENDBRANCH   6  29
ENDBRANCH   5   6
ENDBRANCH   1   5
BRANCH   2  31
ATOM     31  O   UNL     1      32.541  36.419  13.283  1.00  0.00    -0.443 OA
BRANCH  31  32
ATOM     32  C   UNL     1      31.425  36.828  12.513  1.00  0.00     0.294 C 
BRANCH  32  33
ATOM     33  C   UNL     1      30.242  36.026  12.925  1.00  0.00     0.120 A 
ATOM     34  C   UNL     1      29.007  36.513  13.333  1.00  0.00     0.138 A 
ATOM     35  N   UNL     1      30.104  34.689  12.994  1.00  0.00    -0.132 NA
ATOM     36  N   UNL     1      28.198  35.483  13.623  1.00  0.00    -0.248 N 
ATOM     37  N   UNL     1      28.900  34.359  13.405  1.00  0.00    -0.067 NA
BRANCH  36  38
ATOM     38  C   UNL     1      26.837  35.530  14.080  1.00  0.00     0.185 C 
BRANCH  38  39
ATOM     39  C   UNL     1      25.957  36.343  13.202  1.00  0.00     0.018 A 
ATOM     40  C   UNL     1      25.530  35.787  12.012  1.00  0.00     0.025 A 
ATOM     41  C   UNL     1      25.550  37.618  13.515  1.00  0.00     0.134 A 
ATOM     42  C   UNL     1      24.714  36.452  11.123  1.00  0.00     0.019 A 
ATOM     43  C   UNL     1      24.722  38.315  12.629  1.00  0.00     0.061 A 
ATOM     44  Br  UNL     1      24.140  35.662   9.493  1.00  0.00    -0.051 Br
ATOM     45  C   UNL     1      24.311  37.740  11.452  1.00  0.00     0.035 A 
ATOM     46  Br  UNL     1      24.200  40.090  13.144  1.00  0.00    -0.047 Br
BRANCH  41  47
ATOM     47  O   UNL     1      25.959  38.203  14.698  1.00  0.00    -0.506 OA
ATOM     48  H   UNL     1      26.757  37.821  15.187  1.00  0.00     0.293 HD
ENDBRANCH  41  47
ENDBRANCH  38  39
ENDBRANCH  36  38
ENDBRANCH  32  33
ENDBRANCH  31  32
ENDBRANCH   2  31
TORSDOF 17
BEGIN_RES LYS A 131
REMARK  4 active torsions:
REMARK  status: ('A' for Active; 'I' for Inactive)
REMARK    1  A    between atoms: CA   and  CB  
REMARK    2  A    between atoms: CB   and  CG  
REMARK    3  A    between atoms: CG   and  CD  
REMARK    4  A    between atoms: CD   and  CE  
ROOT
ATOM      1  CA  LYS A 131      29.867  25.555  16.977  1.00 20.52     0.186 C 
ENDROOT
BRANCH   1   2
ATOM      2  CB  LYS A 131      28.345  25.722  17.026  1.00 20.94     0.034 C 
BRANCH   2   3
ATOM      3  CG  LYS A 131      27.601  24.406  16.864  1.00 22.96     0.005 C 
BRANCH   3   4
ATOM      4  CD  LYS A 131      26.373  24.339  17.729  1.00 24.33     0.041 C 
BRANCH   4   5
ATOM      5  CE  LYS A 131      26.425  25.449  18.774  1.00 26.91     0.338 C 
ATOM      6  NZ  LYS A 131      25.508  25.148  19.898  1.00 27.40     0.618 N 
ENDBRANCH   4   5
ENDBRANCH   3   4
ENDBRANCH   2   3
ENDBRANCH   1   2
END_RES LYS A 131
BEGIN_RES LYS A 135
REMARK  4 active torsions:
REMARK  status: ('A' for Active; 'I' for Inactive)
REMARK    5  A    between atoms: CA   and  CB  
REMARK    6  A    between atoms: CB   and  CG  
REMARK    7  A    between atoms: CG   and  CD  
REMARK    8  A    between atoms: CD   and  CE  
ROOT
ATOM      7  CA  LYS A 135      33.193  34.663   9.290  1.00 25.02     0.186 C 
ENDROOT
BRANCH   7   8
ATOM      8  CB  LYS A 135      32.060  35.360  10.034  1.00 26.63     0.034 C 
BRANCH   8   9
ATOM      9  CG  LYS A 135      30.773  35.420   9.252  1.00 29.45     0.005 C 
BRANCH   9  10
ATOM     10  CD  LYS A 135      30.185  34.028   9.080  1.00 32.00     0.041 C 
BRANCH  10  11
ATOM     11  CE  LYS A 135      28.700  34.035   9.391  1.00 34.25     0.338 C 
ATOM     12  NZ  LYS A 135      28.260  35.372   9.877  1.00 35.99     0.618 N 
ENDBRANCH  10  11
ENDBRANCH   9  10
ENDBRANCH   8   9
ENDBRANCH   7   8
END_RES LYS A 135
