REMARK VINA RESULT:    -4.442      7.412     12.578
REMARK INTER + INTRA:         -13.474
REMARK INTER:                  -8.396
REMARK INTRA:                  -5.078
REMARK UNBOUND:                -5.786
REMARK SMILES CC(=O)N[C@@H]1[C@@H](O)C[C@](O)(C(=O)O)O[C@H]1C(O)[C@H](O)CNC(=O)OCc1cn(C2CCN(C)CC2)nn1
REMARK SMILES IDX 20 1 18 2 16 3 15 4 9 5 8 6 14 7 6 8 5 9 10 10 11 12 12 13
REMARK SMILES IDX 13 14 7 16 4 18 2 19 1 21 3 22 17 23 19 25 21 27 22 28 23 30
REMARK SMILES IDX 24 31 25 32 26 33 27 34 37 35 28 36 36 37 29 38 30 39 35 40
REMARK SMILES IDX 31 41 34 42 32 43 33 44
REMARK H PARENT 10 11 13 15 7 17 4 20 17 24 19 26 21 29
REMARK Flexibility Score: inf
ROOT
ATOM      1  C   UNL     1      23.326  37.878   7.715  1.00  0.00     0.154 C 
ENDROOT
BRANCH   1   2
ATOM      2  C   UNL     1      21.985  37.325   8.065  1.00  0.00     0.165 C 
BRANCH   2   3
ATOM      3  C   UNL     1      22.002  36.526   9.352  1.00  0.00     0.176 C 
BRANCH   3   4
ATOM      4  C   UNL     1      20.777  35.639   9.416  1.00  0.00     0.178 C 
ATOM      5  C   UNL     1      18.475  35.569   9.031  1.00  0.00     0.269 C 
ATOM      6  C   UNL     1      18.253  34.873  10.339  1.00  0.00     0.112 C 
ATOM      7  O   UNL     1      19.665  36.221   8.894  1.00  0.00    -0.332 OA
ATOM      8  C   UNL     1      19.480  34.122  10.780  1.00  0.00     0.145 C 
ATOM      9  C   UNL     1      20.625  35.130  10.814  1.00  0.00     0.142 C 
BRANCH   5  10
ATOM     10  O   UNL     1      17.383  36.461   8.833  1.00  0.00    -0.357 OA
ATOM     11  H   UNL     1      17.253  37.043   9.622  1.00  0.00     0.214 HD
ENDBRANCH   5  10
BRANCH   5  12
ATOM     12  C   UNL     1      18.398  34.556   7.948  1.00  0.00     0.364 C 
ATOM     13  O   UNL     1      17.644  33.559   8.076  1.00  0.00    -0.246 OA
BRANCH  12  14
ATOM     14  O   UNL     1      19.116  34.621   6.764  1.00  0.00    -0.477 OA
ATOM     15  H   UNL     1      18.736  35.034   5.912  1.00  0.00     0.296 HD
ENDBRANCH  12  14
ENDBRANCH   5  12
BRANCH   8  16
ATOM     16  O   UNL     1      19.315  33.566  12.051  1.00  0.00    -0.391 OA
ATOM     17  H   UNL     1      18.452  33.803  12.457  1.00  0.00     0.211 HD
ENDBRANCH   8  16
BRANCH   9  18
ATOM     18  N   UNL     1      21.805  34.338  11.188  1.00  0.00    -0.348 N 
ATOM     19  C   UNL     1      22.603  34.660  12.303  1.00  0.00     0.217 C 
ATOM     20  H   UNL     1      22.022  33.529  10.591  1.00  0.00     0.163 HD
ATOM     21  C   UNL     1      23.808  33.838  12.672  1.00  0.00     0.114 C 
ATOM     22  O   UNL     1      22.287  35.662  12.996  1.00  0.00    -0.275 OA
ENDBRANCH   9  18
ENDBRANCH   3   4
BRANCH   3  23
ATOM     23  O   UNL     1      22.083  37.398  10.413  1.00  0.00    -0.388 OA
ATOM     24  H   UNL     1      21.446  38.148  10.302  1.00  0.00     0.211 HD
ENDBRANCH   3  23
ENDBRANCH   2   3
BRANCH   2  25
ATOM     25  O   UNL     1      21.589  36.449   7.027  1.00  0.00    -0.388 OA
ATOM     26  H   UNL     1      22.162  36.571   6.225  1.00  0.00     0.211 HD
ENDBRANCH   2  25
ENDBRANCH   1   2
BRANCH   1  27
ATOM     27  N   UNL     1      24.328  37.202   8.511  1.00  0.00    -0.319 N 
ATOM     28  C   UNL     1      25.644  37.691   8.730  1.00  0.00     0.407 C 
ATOM     29  H   UNL     1      24.128  36.273   8.991  1.00  0.00     0.167 HD
ATOM     30  O   UNL     1      25.983  38.768   8.218  1.00  0.00    -0.225 OA
BRANCH  28  31
ATOM     31  O   UNL     1      26.573  37.004   9.502  1.00  0.00    -0.443 OA
BRANCH  31  32
ATOM     32  C   UNL     1      26.439  36.948  10.908  1.00  0.00     0.294 C 
BRANCH  32  33
ATOM     33  C   UNL     1      27.740  36.625  11.548  1.00  0.00     0.120 A 
ATOM     34  C   UNL     1      28.171  35.424  12.035  1.00  0.00     0.138 A 
ATOM     35  N   UNL     1      28.748  37.490  11.766  1.00  0.00    -0.132 NA
ATOM     36  N   UNL     1      29.410  35.572  12.532  1.00  0.00    -0.249 N 
ATOM     37  N   UNL     1      29.732  36.856  12.349  1.00  0.00    -0.067 NA
BRANCH  36  38
ATOM     38  C   UNL     1      30.215  34.536  13.139  1.00  0.00     0.111 C 
ATOM     39  C   UNL     1      29.481  33.856  14.273  1.00  0.00     0.043 C 
ATOM     40  C   UNL     1      31.559  35.056  13.555  1.00  0.00     0.043 C 
ATOM     41  C   UNL     1      29.602  34.611  15.575  1.00  0.00     0.086 C 
ATOM     42  C   UNL     1      31.546  35.817  14.845  1.00  0.00     0.086 C 
ATOM     43  N   UNL     1      30.948  35.010  15.865  1.00  0.00    -0.306 NA
ATOM     44  C   UNL     1      31.810  33.909  16.184  1.00  0.00     0.105 C 
ENDBRANCH  36  38
ENDBRANCH  32  33
ENDBRANCH  31  32
ENDBRANCH  28  31
ENDBRANCH   1  27
TORSDOF 15
BEGIN_RES LYS A 131
REMARK  4 active torsions:
REMARK  status: ('A' for Active; 'I' for Inactive)
REMARK    1  A    between atoms: CA   and  CB  
REMARK    2  A    between atoms: CB   and  CG  
REMARK    3  A    between atoms: CG   and  CD  
REMARK    4  A    between atoms: CD   and  CE  
ROOT
ATOM      1  CA  LYS A 131      29.867  25.555  16.977  1.00 20.52     0.186 C 
ENDROOT
BRANCH   1   2
ATOM      2  CB  LYS A 131      28.345  25.722  17.026  1.00 20.94     0.034 C 
BRANCH   2   3
ATOM      3  CG  LYS A 131      27.599  24.462  16.616  1.00 22.96     0.005 C 
BRANCH   3   4
ATOM      4  CD  LYS A 131      27.033  23.728  17.801  1.00 24.33     0.041 C 
BRANCH   4   5
ATOM      5  CE  LYS A 131      25.670  24.313  18.157  1.00 26.91     0.338 C 
ATOM      6  NZ  LYS A 131      24.774  24.298  16.977  1.00 27.40     0.618 N 
ENDBRANCH   4   5
ENDBRANCH   3   4
ENDBRANCH   2   3
ENDBRANCH   1   2
END_RES LYS A 131
BEGIN_RES LYS A 135
REMARK  4 active torsions:
REMARK  status: ('A' for Active; 'I' for Inactive)
REMARK    5  A    between atoms: CA   and  CB  
REMARK    6  A    between atoms: CB   and  CG  
REMARK    7  A    between atoms: CG   and  CD  
REMARK    8  A    between atoms: CD   and  CE  
ROOT
ATOM      7  CA  LYS A 135      33.193  34.663   9.290  1.00 25.02     0.186 C 
ENDROOT
BRANCH   7   8
ATOM      8  CB  LYS A 135      32.060  35.360  10.034  1.00 26.63     0.034 C 
BRANCH   8   9
ATOM      9  CG  LYS A 135      30.812  35.531   9.207  1.00 29.45     0.005 C 
BRANCH   9  10
ATOM     10  CD  LYS A 135      30.079  34.206   9.062  1.00 32.00     0.041 C 
BRANCH  10  11
ATOM     11  CE  LYS A 135      28.692  34.424   8.488  1.00 34.25     0.338 C 
ATOM     12  NZ  LYS A 135      27.667  33.670   9.260  1.00 35.99     0.618 N 
ENDBRANCH  10  11
ENDBRANCH   9  10
ENDBRANCH   8   9
ENDBRANCH   7   8
END_RES LYS A 135
