REMARK VINA RESULT:    -5.638      2.796      6.213
REMARK INTER + INTRA:         -15.378
REMARK INTER:                 -10.038
REMARK INTRA:                  -5.340
REMARK UNBOUND:                -5.290
REMARK SMILES CC(=O)N[C@@H]1[C@@H](O)C[C@](O)(C(=O)O)O[C@H]1C(O)[C@H](O)CNC(=O)OCc1cn(Cc2ccccc2)nn1
REMARK SMILES IDX 21 1 22 2 23 3 20 5 18 6 16 7 15 8 9 9 8 10 14 11 6 12 5 13
REMARK SMILES IDX 10 14 11 16 12 17 13 18 7 20 4 22 2 23 1 25 3 26 17 27 19 29
REMARK SMILES IDX 24 31 25 32 26 33 27 34 37 35 28 36 36 37 29 38 30 39 31 40
REMARK SMILES IDX 35 41 32 42 34 43 33 44
REMARK H PARENT 21 4 10 15 13 19 7 21 4 24 17 28 19 30
REMARK Flexibility Score: inf
ROOT
ATOM      1  N   UNL     1      26.561  39.812   7.293  1.00  0.00    -0.319 N 
ATOM      2  C   UNL     1      25.203  39.832   7.672  1.00  0.00     0.407 C 
ATOM      3  O   UNL     1      24.281  39.762   6.844  1.00  0.00    -0.225 OA
ATOM      4  H   UNL     1      27.253  39.874   8.085  1.00  0.00     0.167 HD
ENDROOT
BRANCH   1   5
ATOM      5  C   UNL     1      26.993  39.715   5.933  1.00  0.00     0.154 C 
BRANCH   5   6
ATOM      6  C   UNL     1      27.908  38.523   5.771  1.00  0.00     0.165 C 
BRANCH   6   7
ATOM      7  C   UNL     1      29.352  38.934   5.757  1.00  0.00     0.176 C 
BRANCH   7   8
ATOM      8  C   UNL     1      30.032  38.792   7.099  1.00  0.00     0.178 C 
ATOM      9  C   UNL     1      29.403  39.367   9.275  1.00  0.00     0.269 C 
ATOM     10  C   UNL     1      30.879  39.124   9.629  1.00  0.00     0.112 C 
ATOM     11  O   UNL     1      29.158  38.662   8.135  1.00  0.00    -0.332 OA
ATOM     12  C   UNL     1      31.633  40.003   8.634  1.00  0.00     0.145 C 
ATOM     13  C   UNL     1      31.106  39.813   7.229  1.00  0.00     0.142 C 
BRANCH   9  14
ATOM     14  O   UNL     1      29.137  40.719   9.213  1.00  0.00    -0.357 OA
ATOM     15  H   UNL     1      29.776  41.190   9.788  1.00  0.00     0.214 HD
ENDBRANCH   9  14
BRANCH   9  16
ATOM     16  C   UNL     1      28.599  38.723  10.375  1.00  0.00     0.364 C 
ATOM     17  O   UNL     1      27.918  39.403  11.171  1.00  0.00    -0.246 OA
BRANCH  16  18
ATOM     18  O   UNL     1      28.605  37.350  10.523  1.00  0.00    -0.477 OA
ATOM     19  H   UNL     1      27.849  36.916  11.028  1.00  0.00     0.296 HD
ENDBRANCH  16  18
ENDBRANCH   9  16
BRANCH  12  20
ATOM     20  O   UNL     1      31.457  41.314   9.078  1.00  0.00    -0.391 OA
ATOM     21  H   UNL     1      30.826  41.316   9.831  1.00  0.00     0.211 HD
ENDBRANCH  12  20
BRANCH  13  22
ATOM     22  N   UNL     1      32.208  39.382   6.350  1.00  0.00    -0.348 N 
ATOM     23  C   UNL     1      32.787  40.233   5.377  1.00  0.00     0.217 C 
ATOM     24  H   UNL     1      32.587  38.395   6.443  1.00  0.00     0.163 HD
ATOM     25  C   UNL     1      33.895  39.844   4.470  1.00  0.00     0.114 C 
ATOM     26  O   UNL     1      32.334  41.400   5.271  1.00  0.00    -0.275 OA
ENDBRANCH  13  22
ENDBRANCH   7   8
BRANCH   7  27
ATOM     27  O   UNL     1      29.458  40.209   5.237  1.00  0.00    -0.388 OA
ATOM     28  H   UNL     1      29.977  40.161   4.399  1.00  0.00     0.211 HD
ENDBRANCH   7  27
ENDBRANCH   6   7
BRANCH   6  29
ATOM     29  O   UNL     1      27.518  37.907   4.582  1.00  0.00    -0.388 OA
ATOM     30  H   UNL     1      27.841  36.982   4.506  1.00  0.00     0.211 HD
ENDBRANCH   6  29
ENDBRANCH   5   6
ENDBRANCH   1   5
BRANCH   2  31
ATOM     31  O   UNL     1      24.846  39.932   9.016  1.00  0.00    -0.443 OA
BRANCH  31  32
ATOM     32  C   UNL     1      24.052  38.928   9.601  1.00  0.00     0.294 C 
BRANCH  32  33
ATOM     33  C   UNL     1      24.806  37.662   9.767  1.00  0.00     0.120 A 
ATOM     34  C   UNL     1      25.018  36.715   8.802  1.00  0.00     0.138 A 
ATOM     35  N   UNL     1      25.400  37.232  10.885  1.00  0.00    -0.132 NA
ATOM     36  N   UNL     1      25.740  35.730   9.361  1.00  0.00    -0.248 N 
ATOM     37  N   UNL     1      25.957  36.073  10.635  1.00  0.00    -0.067 NA
BRANCH  36  38
ATOM     38  C   UNL     1      26.220  34.510   8.763  1.00  0.00     0.181 C 
BRANCH  38  39
ATOM     39  C   UNL     1      27.695  34.548   8.579  1.00  0.00    -0.026 A 
ATOM     40  C   UNL     1      28.552  33.939   9.488  1.00  0.00     0.005 A 
ATOM     41  C   UNL     1      28.279  35.181   7.509  1.00  0.00     0.005 A 
ATOM     42  C   UNL     1      29.913  33.978   9.313  1.00  0.00     0.000 A 
ATOM     43  C   UNL     1      29.649  35.225   7.323  1.00  0.00     0.000 A 
ATOM     44  C   UNL     1      30.484  34.617   8.232  1.00  0.00     0.000 A 
ENDBRANCH  38  39
ENDBRANCH  36  38
ENDBRANCH  32  33
ENDBRANCH  31  32
ENDBRANCH   2  31
TORSDOF 16
BEGIN_RES LYS A 131
REMARK  4 active torsions:
REMARK  status: ('A' for Active; 'I' for Inactive)
REMARK    1  A    between atoms: CA   and  CB  
REMARK    2  A    between atoms: CB   and  CG  
REMARK    3  A    between atoms: CG   and  CD  
REMARK    4  A    between atoms: CD   and  CE  
ROOT
ATOM      1  CA  LYS A 131      29.867  25.555  16.977  1.00 20.52     0.186 C 
ENDROOT
BRANCH   1   2
ATOM      2  CB  LYS A 131      28.345  25.722  17.026  1.00 20.94     0.034 C 
BRANCH   2   3
ATOM      3  CG  LYS A 131      27.602  24.399  16.921  1.00 22.96     0.005 C 
BRANCH   3   4
ATOM      4  CD  LYS A 131      26.558  24.250  17.993  1.00 24.33     0.041 C 
BRANCH   4   5
ATOM      5  CE  LYS A 131      25.276  23.694  17.381  1.00 26.91     0.338 C 
ATOM      6  NZ  LYS A 131      24.395  24.797  16.930  1.00 27.40     0.618 N 
ENDBRANCH   4   5
ENDBRANCH   3   4
ENDBRANCH   2   3
ENDBRANCH   1   2
END_RES LYS A 131
BEGIN_RES LYS A 135
REMARK  4 active torsions:
REMARK  status: ('A' for Active; 'I' for Inactive)
REMARK    5  A    between atoms: CA   and  CB  
REMARK    6  A    between atoms: CB   and  CG  
REMARK    7  A    between atoms: CG   and  CD  
REMARK    8  A    between atoms: CD   and  CE  
ROOT
ATOM      7  CA  LYS A 135      33.193  34.663   9.290  1.00 25.02     0.186 C 
ENDROOT
BRANCH   7   8
ATOM      8  CB  LYS A 135      32.060  35.360  10.034  1.00 26.63     0.034 C 
BRANCH   8   9
ATOM      9  CG  LYS A 135      32.503  36.046  11.301  1.00 29.45     0.005 C 
BRANCH   9  10
ATOM     10  CD  LYS A 135      31.718  35.526  12.495  1.00 32.00     0.041 C 
BRANCH  10  11
ATOM     11  CE  LYS A 135      31.675  36.566  13.598  1.00 34.25     0.338 C 
ATOM     12  NZ  LYS A 135      31.167  37.869  13.086  1.00 35.99     0.618 N 
ENDBRANCH  10  11
ENDBRANCH   9  10
ENDBRANCH   8   9
ENDBRANCH   7   8
END_RES LYS A 135
