REMARK VINA RESULT:    -5.167      4.742      8.766
REMARK INTER + INTRA:         -14.759
REMARK INTER:                  -8.370
REMARK INTRA:                  -6.390
REMARK UNBOUND:                -5.212
REMARK SMILES CC(=O)N[C@@H]1[C@@H](O)C[C@](O)(C(=O)O)O[C@H]1C(O)[C@H](O)CNC(=O)OCc1cn(Cc2cccc(C#N)c2)nn1
REMARK SMILES IDX 21 1 22 2 23 3 20 5 18 6 16 7 15 8 9 9 8 10 14 11 6 12 5 13
REMARK SMILES IDX 10 14 11 16 12 17 13 18 7 20 4 22 2 23 1 25 3 26 17 27 19 29
REMARK SMILES IDX 24 31 25 32 26 33 27 34 39 35 28 36 38 37 29 38 30 39 31 40
REMARK SMILES IDX 37 41 32 42 34 43 33 44 35 45 36 46
REMARK H PARENT 21 4 10 15 13 19 7 21 4 24 17 28 19 30
REMARK Flexibility Score: inf
ROOT
ATOM      1  N   UNL     1      28.941  31.139  20.071  1.00  0.00    -0.319 N 
ATOM      2  C   UNL     1      27.930  30.286  19.616  1.00  0.00     0.407 C 
ATOM      3  O   UNL     1      26.789  30.320  20.122  1.00  0.00    -0.225 OA
ATOM      4  H   UNL     1      29.886  31.055  19.588  1.00  0.00     0.167 HD
ENDROOT
BRANCH   1   5
ATOM      5  C   UNL     1      28.768  32.099  21.129  1.00  0.00     0.154 C 
BRANCH   5   6
ATOM      6  C   UNL     1      29.618  31.807  22.334  1.00  0.00     0.165 C 
BRANCH   6   7
ATOM      7  C   UNL     1      29.283  30.572  23.076  1.00  0.00     0.176 C 
BRANCH   7   8
ATOM      8  C   UNL     1      30.164  29.356  22.748  1.00  0.00     0.178 C 
ATOM      9  C   UNL     1      32.130  28.796  21.743  1.00  0.00     0.269 C 
ATOM     10  C   UNL     1      31.406  27.993  20.682  1.00  0.00     0.112 C 
ATOM     11  O   UNL     1      31.283  29.790  22.158  1.00  0.00    -0.332 OA
ATOM     12  C   UNL     1      30.168  27.344  21.239  1.00  0.00     0.145 C 
ATOM     13  C   UNL     1      29.382  28.260  22.132  1.00  0.00     0.142 C 
BRANCH   9  14
ATOM     14  O   UNL     1      33.268  29.380  21.132  1.00  0.00    -0.357 OA
ATOM     15  H   UNL     1      33.118  29.238  20.153  1.00  0.00     0.214 HD
ENDBRANCH   9  14
BRANCH   9  16
ATOM     16  C   UNL     1      32.637  27.891  22.780  1.00  0.00     0.364 C 
ATOM     17  O   UNL     1      32.516  28.144  24.001  1.00  0.00    -0.246 OA
BRANCH  16  18
ATOM     18  O   UNL     1      33.296  26.678  22.493  1.00  0.00    -0.477 OA
ATOM     19  H   UNL     1      33.155  25.939  23.185  1.00  0.00     0.296 HD
ENDBRANCH  16  18
ENDBRANCH   9  16
BRANCH  12  20
ATOM     20  O   UNL     1      29.386  26.932  20.161  1.00  0.00    -0.391 OA
ATOM     21  H   UNL     1      29.368  25.957  20.060  1.00  0.00     0.211 HD
ENDBRANCH  12  20
BRANCH  13  22
ATOM     22  N   UNL     1      28.714  27.464  23.144  1.00  0.00    -0.348 N 
ATOM     23  C   UNL     1      27.363  26.983  22.983  1.00  0.00     0.217 C 
ATOM     24  H   UNL     1      29.152  27.183  24.057  1.00  0.00     0.163 HD
ATOM     25  C   UNL     1      26.715  26.167  24.057  1.00  0.00     0.114 C 
ATOM     26  O   UNL     1      26.726  27.246  21.944  1.00  0.00    -0.275 OA
ENDBRANCH  13  22
ENDBRANCH   7   8
BRANCH   7  27
ATOM     27  O   UNL     1      27.963  30.159  22.892  1.00  0.00    -0.388 OA
ATOM     28  H   UNL     1      27.861  29.509  22.155  1.00  0.00     0.211 HD
ENDBRANCH   7  27
ENDBRANCH   6   7
BRANCH   6  29
ATOM     29  O   UNL     1      29.692  32.970  23.099  1.00  0.00    -0.388 OA
ATOM     30  H   UNL     1      29.825  33.730  22.481  1.00  0.00     0.211 HD
ENDBRANCH   6  29
ENDBRANCH   5   6
ENDBRANCH   1   5
BRANCH   2  31
ATOM     31  O   UNL     1      28.129  29.359  18.593  1.00  0.00    -0.443 OA
BRANCH  31  32
ATOM     32  C   UNL     1      27.500  29.580  17.356  1.00  0.00     0.294 C 
BRANCH  32  33
ATOM     33  C   UNL     1      28.203  30.669  16.649  1.00  0.00     0.120 A 
ATOM     34  C   UNL     1      29.532  30.735  16.293  1.00  0.00     0.138 A 
ATOM     35  N   UNL     1      27.647  31.815  16.217  1.00  0.00    -0.132 NA
ATOM     36  N   UNL     1      29.743  31.905  15.662  1.00  0.00    -0.248 N 
ATOM     37  N   UNL     1      28.571  32.529  15.638  1.00  0.00    -0.067 NA
BRANCH  36  38
ATOM     38  C   UNL     1      30.941  32.455  15.087  1.00  0.00     0.181 C 
BRANCH  38  39
ATOM     39  C   UNL     1      31.545  33.481  16.000  1.00  0.00    -0.025 A 
ATOM     40  C   UNL     1      32.343  34.476  15.481  1.00  0.00     0.006 A 
ATOM     41  C   UNL     1      31.321  33.464  17.351  1.00  0.00     0.025 A 
ATOM     42  C   UNL     1      32.903  35.440  16.327  1.00  0.00     0.002 A 
ATOM     43  C   UNL     1      31.855  34.398  18.214  1.00  0.00     0.052 A 
ATOM     44  C   UNL     1      32.652  35.393  17.694  1.00  0.00     0.019 A 
BRANCH  43  45
ATOM     45  C   UNL     1      31.635  34.401  19.630  1.00  0.00     0.099 C 
ATOM     46  N   UNL     1      31.469  34.391  20.785  1.00  0.00    -0.192 NA
ENDBRANCH  43  45
ENDBRANCH  38  39
ENDBRANCH  36  38
ENDBRANCH  32  33
ENDBRANCH  31  32
ENDBRANCH   2  31
TORSDOF 17
BEGIN_RES LYS A 131
REMARK  4 active torsions:
REMARK  status: ('A' for Active; 'I' for Inactive)
REMARK    1  A    between atoms: CA   and  CB  
REMARK    2  A    between atoms: CB   and  CG  
REMARK    3  A    between atoms: CG   and  CD  
REMARK    4  A    between atoms: CD   and  CE  
ROOT
ATOM      1  CA  LYS A 131      29.867  25.555  16.977  1.00 20.52     0.186 C 
ENDROOT
BRANCH   1   2
ATOM      2  CB  LYS A 131      28.345  25.722  17.026  1.00 20.94     0.034 C 
BRANCH   2   3
ATOM      3  CG  LYS A 131      27.599  24.429  16.735  1.00 22.96     0.005 C 
BRANCH   3   4
ATOM      4  CD  LYS A 131      26.953  23.858  17.967  1.00 24.33     0.041 C 
BRANCH   4   5
ATOM      5  CE  LYS A 131      25.567  23.327  17.616  1.00 26.91     0.338 C 
ATOM      6  NZ  LYS A 131      24.777  24.365  16.913  1.00 27.40     0.618 N 
ENDBRANCH   4   5
ENDBRANCH   3   4
ENDBRANCH   2   3
ENDBRANCH   1   2
END_RES LYS A 131
BEGIN_RES LYS A 135
REMARK  4 active torsions:
REMARK  status: ('A' for Active; 'I' for Inactive)
REMARK    5  A    between atoms: CA   and  CB  
REMARK    6  A    between atoms: CB   and  CG  
REMARK    7  A    between atoms: CG   and  CD  
REMARK    8  A    between atoms: CD   and  CE  
ROOT
ATOM      7  CA  LYS A 135      33.193  34.663   9.290  1.00 25.02     0.186 C 
ENDROOT
BRANCH   7   8
ATOM      8  CB  LYS A 135      32.060  35.360  10.034  1.00 26.63     0.034 C 
BRANCH   8   9
ATOM      9  CG  LYS A 135      30.798  35.492   9.222  1.00 29.45     0.005 C 
BRANCH   9  10
ATOM     10  CD  LYS A 135      30.046  34.171   9.179  1.00 32.00     0.041 C 
BRANCH  10  11
ATOM     11  CE  LYS A 135      28.612  34.388   8.735  1.00 34.25     0.338 C 
ATOM     12  NZ  LYS A 135      27.662  33.633   9.598  1.00 35.99     0.618 N 
ENDBRANCH  10  11
ENDBRANCH   9  10
ENDBRANCH   8   9
ENDBRANCH   7   8
END_RES LYS A 135
