REMARK VINA RESULT:    -3.657      2.354      3.561
REMARK INTER + INTRA:         -16.871
REMARK INTER:                 -10.066
REMARK INTRA:                  -6.805
REMARK UNBOUND:                -8.298
REMARK SMILES CC(=O)N[C@@H]1[C@@H](O)C[C@](O)(C(=O)O)O[C@H]1C(O)[C@H](O)CNC(=O)OCc1cn(CCCCCCCCCCC(=O)O)nn1
REMARK SMILES IDX 29 1 28 2 26 3 27 4 43 5 42 6 25 7 24 8 22 9 21 10 23 12
REMARK SMILES IDX 20 13 18 14 16 15 15 16 9 17 8 18 14 19 6 20 5 21 10 22
REMARK SMILES IDX 11 24 12 25 13 26 7 28 4 30 2 31 1 33 3 34 17 35 19 37 30 39
REMARK SMILES IDX 31 40 32 41 33 42 34 43 35 44 36 45 37 46 38 47 39 48 40 49
REMARK SMILES IDX 41 50
REMARK H PARENT 21 11 10 23 13 27 7 29 4 32 17 36 19 38 41 51
REMARK Flexibility Score: inf
ROOT
ATOM      1  C   UNL     1      30.394  31.343  16.746  1.00  0.00     0.146 C 
ENDROOT
BRANCH   1   2
ATOM      2  N   UNL     1      29.038  31.156  16.306  1.00  0.00    -0.252 N 
ATOM      3  C   UNL     1      26.918  31.386  15.790  1.00  0.00     0.120 A 
ATOM      4  C   UNL     1      28.002  32.042  16.309  1.00  0.00     0.138 A 
ATOM      5  N   UNL     1      27.314  30.131  15.485  1.00  0.00    -0.132 NA
ATOM      6  N   UNL     1      28.576  30.029  15.803  1.00  0.00    -0.067 NA
BRANCH   3   7
ATOM      7  C   UNL     1      25.574  31.974  15.611  1.00  0.00     0.294 C 
BRANCH   7   8
ATOM      8  O   UNL     1      24.600  31.205  16.283  1.00  0.00    -0.443 OA
BRANCH   8   9
ATOM      9  C   UNL     1      24.880  30.623  17.512  1.00  0.00     0.407 C 
ATOM     10  N   UNL     1      25.341  29.284  17.615  1.00  0.00    -0.319 N 
ATOM     11  H   UNL     1      25.477  28.705  16.759  1.00  0.00     0.167 HD
ATOM     12  O   UNL     1      24.712  31.330  18.565  1.00  0.00    -0.225 OA
BRANCH  10  13
ATOM     13  C   UNL     1      25.618  28.724  18.901  1.00  0.00     0.154 C 
BRANCH  13  14
ATOM     14  C   UNL     1      27.095  28.483  19.126  1.00  0.00     0.165 C 
BRANCH  14  15
ATOM     15  C   UNL     1      27.727  29.700  19.732  1.00  0.00     0.176 C 
BRANCH  15  16
ATOM     16  C   UNL     1      28.796  29.287  20.722  1.00  0.00     0.178 C 
ATOM     17  C   UNL     1      30.339  27.602  21.108  1.00  0.00     0.269 C 
ATOM     18  C   UNL     1      30.238  28.084  22.538  1.00  0.00     0.112 C 
ATOM     19  O   UNL     1      29.314  28.088  20.313  1.00  0.00    -0.332 OA
ATOM     20  C   UNL     1      28.783  28.128  22.918  1.00  0.00     0.145 C 
ATOM     21  C   UNL     1      28.160  29.260  22.088  1.00  0.00     0.142 C 
BRANCH  17  22
ATOM     22  O   UNL     1      30.206  26.217  21.144  1.00  0.00    -0.357 OA
ATOM     23  H   UNL     1      31.067  25.779  21.333  1.00  0.00     0.214 HD
ENDBRANCH  17  22
BRANCH  17  24
ATOM     24  C   UNL     1      31.673  27.943  20.613  1.00  0.00     0.364 C 
ATOM     25  O   UNL     1      32.309  28.879  21.155  1.00  0.00    -0.246 OA
BRANCH  24  26
ATOM     26  O   UNL     1      32.304  27.290  19.563  1.00  0.00    -0.477 OA
ATOM     27  H   UNL     1      33.100  27.757  19.102  1.00  0.00     0.296 HD
ENDBRANCH  24  26
ENDBRANCH  17  24
BRANCH  20  28
ATOM     28  O   UNL     1      28.168  26.917  22.683  1.00  0.00    -0.391 OA
ATOM     29  H   UNL     1      28.856  26.281  22.363  1.00  0.00     0.211 HD
ENDBRANCH  20  28
BRANCH  21  30
ATOM     30  N   UNL     1      28.438  30.477  22.821  1.00  0.00    -0.348 N 
ATOM     31  C   UNL     1      27.359  31.155  23.436  1.00  0.00     0.217 C 
ATOM     32  H   UNL     1      29.409  30.866  22.909  1.00  0.00     0.163 HD
ATOM     33  C   UNL     1      27.604  32.416  24.202  1.00  0.00     0.114 C 
ATOM     34  O   UNL     1      26.201  30.705  23.341  1.00  0.00    -0.275 OA
ENDBRANCH  21  30
ENDBRANCH  15  16
BRANCH  15  35
ATOM     35  O   UNL     1      26.716  30.455  20.335  1.00  0.00    -0.388 OA
ATOM     36  H   UNL     1      25.987  30.679  19.731  1.00  0.00     0.211 HD
ENDBRANCH  15  35
ENDBRANCH  14  15
BRANCH  14  37
ATOM     37  O   UNL     1      27.755  28.204  17.929  1.00  0.00    -0.388 OA
ATOM     38  H   UNL     1      27.139  27.864  17.253  1.00  0.00     0.211 HD
ENDBRANCH  14  37
ENDBRANCH  13  14
ENDBRANCH  10  13
ENDBRANCH   8   9
ENDBRANCH   7   8
ENDBRANCH   3   7
ENDBRANCH   1   2
BRANCH   1  39
ATOM     39  C   UNL     1      31.134  32.160  15.722  1.00  0.00     0.024 C 
BRANCH  39  40
ATOM     40  C   UNL     1      31.579  33.495  16.249  1.00  0.00     0.002 C 
BRANCH  40  41
ATOM     41  C   UNL     1      31.288  33.661  17.719  1.00  0.00     0.000 C 
BRANCH  41  42
ATOM     42  C   UNL     1      30.456  34.922  17.936  1.00  0.00     0.000 C 
BRANCH  42  43
ATOM     43  C   UNL     1      29.930  35.391  16.605  1.00  0.00     0.000 C 
BRANCH  43  44
ATOM     44  C   UNL     1      30.287  36.825  16.343  1.00  0.00     0.000 C 
BRANCH  44  45
ATOM     45  C   UNL     1      29.882  37.225  14.963  1.00  0.00     0.001 C 
BRANCH  45  46
ATOM     46  C   UNL     1      30.587  36.368  13.915  1.00  0.00     0.012 C 
BRANCH  46  47
ATOM     47  C   UNL     1      32.071  36.618  13.882  1.00  0.00     0.122 C 
BRANCH  47  48
ATOM     48  C   UNL     1      32.706  35.347  13.414  1.00  0.00     0.303 C 
ATOM     49  O   UNL     1      33.812  34.939  13.824  1.00  0.00    -0.252 OA
BRANCH  48  50
ATOM     50  O   UNL     1      32.039  34.564  12.470  1.00  0.00    -0.481 OA
ATOM     51  H   UNL     1      31.034  34.589  12.440  1.00  0.00     0.296 HD
ENDBRANCH  48  50
ENDBRANCH  47  48
ENDBRANCH  46  47
ENDBRANCH  45  46
ENDBRANCH  44  45
ENDBRANCH  43  44
ENDBRANCH  42  43
ENDBRANCH  41  42
ENDBRANCH  40  41
ENDBRANCH  39  40
ENDBRANCH   1  39
TORSDOF 26
BEGIN_RES LYS A 131
REMARK  4 active torsions:
REMARK  status: ('A' for Active; 'I' for Inactive)
REMARK    1  A    between atoms: CA   and  CB  
REMARK    2  A    between atoms: CB   and  CG  
REMARK    3  A    between atoms: CG   and  CD  
REMARK    4  A    between atoms: CD   and  CE  
ROOT
ATOM      1  CA  LYS A 131      29.867  25.555  16.977  1.00 20.52     0.186 C 
ENDROOT
BRANCH   1   2
ATOM      2  CB  LYS A 131      28.345  25.722  17.026  1.00 20.94     0.034 C 
BRANCH   2   3
ATOM      3  CG  LYS A 131      27.602  24.399  16.920  1.00 22.96     0.005 C 
BRANCH   3   4
ATOM      4  CD  LYS A 131      26.158  24.527  17.319  1.00 24.33     0.041 C 
BRANCH   4   5
ATOM      5  CE  LYS A 131      25.894  23.676  18.557  1.00 26.91     0.338 C 
ATOM      6  NZ  LYS A 131      24.957  22.573  18.238  1.00 27.40     0.618 N 
ENDBRANCH   4   5
ENDBRANCH   3   4
ENDBRANCH   2   3
ENDBRANCH   1   2
END_RES LYS A 131
BEGIN_RES LYS A 135
REMARK  4 active torsions:
REMARK  status: ('A' for Active; 'I' for Inactive)
REMARK    5  A    between atoms: CA   and  CB  
REMARK    6  A    between atoms: CB   and  CG  
REMARK    7  A    between atoms: CG   and  CD  
REMARK    8  A    between atoms: CD   and  CE  
ROOT
ATOM      7  CA  LYS A 135      33.193  34.663   9.290  1.00 25.02     0.186 C 
ENDROOT
BRANCH   7   8
ATOM      8  CB  LYS A 135      32.060  35.360  10.034  1.00 26.63     0.034 C 
BRANCH   8   9
ATOM      9  CG  LYS A 135      30.730  35.267   9.331  1.00 29.45     0.005 C 
BRANCH   9  10
ATOM     10  CD  LYS A 135      29.619  35.820  10.209  1.00 32.00     0.041 C 
BRANCH  10  11
ATOM     11  CE  LYS A 135      28.262  35.392   9.684  1.00 34.25     0.338 C 
ATOM     12  NZ  LYS A 135      28.143  33.907   9.652  1.00 35.99     0.618 N 
ENDBRANCH  10  11
ENDBRANCH   9  10
ENDBRANCH   8   9
ENDBRANCH   7   8
END_RES LYS A 135
