REMARK VINA RESULT:    -5.193      4.550      8.468
REMARK INTER + INTRA:         -14.152
REMARK INTER:                  -8.955
REMARK INTRA:                  -5.198
REMARK UNBOUND:                -5.164
REMARK SMILES CC(=O)N[C@@H]1[C@@H](O)C[C@](O)(C(=O)O)O[C@H]1C(O)[C@H](O)CNC(=O)OCc1cn(-c2cccnc2)nn1
REMARK SMILES IDX 20 1 18 2 16 3 15 4 9 5 8 6 14 7 6 8 5 9 10 10 11 12 12 13
REMARK SMILES IDX 13 14 7 16 4 18 2 19 1 21 3 22 17 23 19 25 21 27 22 28 23 30
REMARK SMILES IDX 24 31 25 32 26 33 27 34 36 35 28 36 35 37 29 38 30 39 34 40
REMARK SMILES IDX 31 41 33 42 32 43
REMARK H PARENT 10 11 13 15 7 17 4 20 17 24 19 26 21 29
REMARK Flexibility Score: inf
ROOT
ATOM      1  C   UNL     1      32.547  36.133  15.125  1.00  0.00     0.154 C 
ENDROOT
BRANCH   1   2
ATOM      2  C   UNL     1      32.670  35.279  13.918  1.00  0.00     0.165 C 
BRANCH   2   3
ATOM      3  C   UNL     1      31.375  34.964  13.271  1.00  0.00     0.176 C 
BRANCH   3   4
ATOM      4  C   UNL     1      30.312  34.319  14.089  1.00  0.00     0.178 C 
ATOM      5  C   UNL     1      29.718  32.604  15.447  1.00  0.00     0.269 C 
ATOM      6  C   UNL     1      28.289  33.011  15.375  1.00  0.00     0.112 C 
ATOM      7  O   UNL     1      30.531  33.018  14.410  1.00  0.00    -0.332 OA
ATOM      8  C   UNL     1      27.989  34.314  14.722  1.00  0.00     0.145 C 
ATOM      9  C   UNL     1      28.939  34.502  13.504  1.00  0.00     0.142 C 
BRANCH   5  10
ATOM     10  O   UNL     1      29.705  31.175  15.359  1.00  0.00    -0.357 OA
ATOM     11  H   UNL     1      28.818  30.966  14.985  1.00  0.00     0.214 HD
ENDBRANCH   5  10
BRANCH   5  12
ATOM     12  C   UNL     1      30.343  32.911  16.754  1.00  0.00     0.364 C 
ATOM     13  O   UNL     1      31.575  33.146  16.813  1.00  0.00    -0.246 OA
BRANCH  12  14
ATOM     14  O   UNL     1      29.662  32.965  17.963  1.00  0.00    -0.477 OA
ATOM     15  H   UNL     1      28.673  32.695  17.930  1.00  0.00     0.296 HD
ENDBRANCH  12  14
ENDBRANCH   5  12
BRANCH   8  16
ATOM     16  O   UNL     1      26.704  34.316  14.178  1.00  0.00    -0.391 OA
ATOM     17  H   UNL     1      26.378  33.386  14.103  1.00  0.00     0.211 HD
ENDBRANCH   8  16
BRANCH   9  18
ATOM     18  N   UNL     1      28.780  35.877  13.115  1.00  0.00    -0.348 N 
ATOM     19  C   UNL     1      27.974  36.304  12.035  1.00  0.00     0.217 C 
ATOM     20  H   UNL     1      29.288  36.624  13.660  1.00  0.00     0.163 HD
ATOM     21  C   UNL     1      27.875  37.745  11.713  1.00  0.00     0.114 C 
ATOM     22  O   UNL     1      27.349  35.454  11.360  1.00  0.00    -0.275 OA
ENDBRANCH   9  18
ENDBRANCH   3   4
BRANCH   3  23
ATOM     23  O   UNL     1      31.476  34.503  11.972  1.00  0.00    -0.388 OA
ATOM     24  H   UNL     1      30.967  34.981  11.299  1.00  0.00     0.211 HD
ENDBRANCH   3  23
ENDBRANCH   2   3
BRANCH   2  25
ATOM     25  O   UNL     1      33.245  34.033  14.272  1.00  0.00    -0.388 OA
ATOM     26  H   UNL     1      34.059  34.229  14.778  1.00  0.00     0.211 HD
ENDBRANCH   2  25
ENDBRANCH   1   2
BRANCH   1  27
ATOM     27  N   UNL     1      33.243  35.699  16.299  1.00  0.00    -0.319 N 
ATOM     28  C   UNL     1      33.529  36.470  17.420  1.00  0.00     0.407 C 
ATOM     29  H   UNL     1      33.579  34.687  16.329  1.00  0.00     0.167 HD
ATOM     30  O   UNL     1      33.195  37.659  17.493  1.00  0.00    -0.225 OA
BRANCH  28  31
ATOM     31  O   UNL     1      34.210  35.965  18.541  1.00  0.00    -0.443 OA
BRANCH  31  32
ATOM     32  C   UNL     1      35.499  36.431  18.870  1.00  0.00     0.294 C 
BRANCH  32  33
ATOM     33  C   UNL     1      36.548  35.710  18.127  1.00  0.00     0.121 A 
ATOM     34  C   UNL     1      36.741  35.850  16.762  1.00  0.00     0.144 A 
ATOM     35  N   UNL     1      37.474  34.839  18.530  1.00  0.00    -0.131 NA
ATOM     36  N   UNL     1      37.767  35.066  16.389  1.00  0.00    -0.219 N 
ATOM     37  N   UNL     1      38.199  34.463  17.466  1.00  0.00    -0.062 NA
BRANCH  36  38
ATOM     38  C   UNL     1      38.300  34.909  15.070  1.00  0.00     0.085 A 
ATOM     39  C   UNL     1      39.240  35.788  14.563  1.00  0.00     0.031 A 
ATOM     40  C   UNL     1      37.876  33.862  14.276  1.00  0.00     0.139 A 
ATOM     41  C   UNL     1      39.731  35.594  13.270  1.00  0.00     0.022 A 
ATOM     42  N   UNL     1      38.371  33.697  13.018  1.00  0.00    -0.262 NA
ATOM     43  C   UNL     1      39.286  34.535  12.500  1.00  0.00     0.111 A 
ENDBRANCH  36  38
ENDBRANCH  32  33
ENDBRANCH  31  32
ENDBRANCH  28  31
ENDBRANCH   1  27
TORSDOF 15
BEGIN_RES LYS A 131
REMARK  4 active torsions:
REMARK  status: ('A' for Active; 'I' for Inactive)
REMARK    1  A    between atoms: CA   and  CB  
REMARK    2  A    between atoms: CB   and  CG  
REMARK    3  A    between atoms: CG   and  CD  
REMARK    4  A    between atoms: CD   and  CE  
ROOT
ATOM      1  CA  LYS A 131      29.867  25.555  16.977  1.00 20.52     0.186 C 
ENDROOT
BRANCH   1   2
ATOM      2  CB  LYS A 131      28.345  25.722  17.026  1.00 20.94     0.034 C 
BRANCH   2   3
ATOM      3  CG  LYS A 131      27.601  24.402  16.890  1.00 22.96     0.005 C 
BRANCH   3   4
ATOM      4  CD  LYS A 131      26.166  24.514  17.324  1.00 24.33     0.041 C 
BRANCH   4   5
ATOM      5  CE  LYS A 131      25.625  23.127  17.654  1.00 26.91     0.338 C 
ATOM      6  NZ  LYS A 131      25.353  23.008  19.106  1.00 27.40     0.618 N 
ENDBRANCH   4   5
ENDBRANCH   3   4
ENDBRANCH   2   3
ENDBRANCH   1   2
END_RES LYS A 131
BEGIN_RES LYS A 135
REMARK  4 active torsions:
REMARK  status: ('A' for Active; 'I' for Inactive)
REMARK    5  A    between atoms: CA   and  CB  
REMARK    6  A    between atoms: CB   and  CG  
REMARK    7  A    between atoms: CG   and  CD  
REMARK    8  A    between atoms: CD   and  CE  
ROOT
ATOM      7  CA  LYS A 135      33.193  34.663   9.290  1.00 25.02     0.186 C 
ENDROOT
BRANCH   7   8
ATOM      8  CB  LYS A 135      32.060  35.360  10.034  1.00 26.63     0.034 C 
BRANCH   8   9
ATOM      9  CG  LYS A 135      30.899  35.734   9.149  1.00 29.45     0.005 C 
BRANCH   9  10
ATOM     10  CD  LYS A 135      30.439  34.537   8.332  1.00 32.00     0.041 C 
BRANCH  10  11
ATOM     11  CE  LYS A 135      28.991  34.207   8.640  1.00 34.25     0.338 C 
ATOM     12  NZ  LYS A 135      28.065  35.052   7.836  1.00 35.99     0.618 N 
ENDBRANCH  10  11
ENDBRANCH   9  10
ENDBRANCH   8   9
ENDBRANCH   7   8
END_RES LYS A 135
