REMARK VINA RESULT:    -5.922      5.523     11.913
REMARK INTER + INTRA:         -15.107
REMARK INTER:                  -9.769
REMARK INTRA:                  -5.339
REMARK UNBOUND:                -3.993
REMARK SMILES CC(=O)N[C@@H]1[C@@H](O)C[C@](O)(C(=O)O)O[C@H]1C(O)[C@H](O)CNC(=O)OCc1cn(Cc2ccc(C(=O)O)cc2)nn1
REMARK SMILES IDX 21 1 22 2 23 3 20 5 18 6 16 7 15 8 9 9 8 10 14 11 6 12 5 13
REMARK SMILES IDX 10 14 11 16 12 17 13 18 7 20 4 22 2 23 1 25 3 26 17 27 19 29
REMARK SMILES IDX 24 31 25 32 26 33 27 34 40 35 28 36 39 37 29 38 30 39 31 40
REMARK SMILES IDX 38 41 32 42 37 43 33 44 34 45 35 46 36 47
REMARK H PARENT 21 4 10 15 13 19 7 21 4 24 17 28 19 30 36 48
REMARK Flexibility Score: inf
ROOT
ATOM      1  N   UNL     1      26.658  36.345  12.592  1.00  0.00    -0.319 N 
ATOM      2  C   UNL     1      27.736  35.906  11.805  1.00  0.00     0.407 C 
ATOM      3  O   UNL     1      27.659  34.826  11.197  1.00  0.00    -0.225 OA
ATOM      4  H   UNL     1      26.805  37.279  13.084  1.00  0.00     0.167 HD
ENDROOT
BRANCH   1   5
ATOM      5  C   UNL     1      25.427  35.616  12.748  1.00  0.00     0.154 C 
BRANCH   5   6
ATOM      6  C   UNL     1      24.329  36.316  11.992  1.00  0.00     0.165 C 
BRANCH   6   7
ATOM      7  C   UNL     1      23.957  35.654  10.703  1.00  0.00     0.176 C 
BRANCH   7   8
ATOM      8  C   UNL     1      22.694  36.307  10.113  1.00  0.00     0.178 C 
ATOM      9  C   UNL     1      20.597  35.686   9.362  1.00  0.00     0.269 C 
ATOM     10  C   UNL     1      20.916  35.961   7.900  1.00  0.00     0.112 C 
ATOM     11  O   UNL     1      21.772  35.294   9.958  1.00  0.00    -0.332 OA
ATOM     12  C   UNL     1      21.977  37.007   7.788  1.00  0.00     0.145 C 
ATOM     13  C   UNL     1      23.088  36.861   8.791  1.00  0.00     0.142 C 
BRANCH   9  14
ATOM     14  O   UNL     1      19.751  34.541   9.317  1.00  0.00    -0.357 OA
ATOM     15  H   UNL     1      19.078  34.691   8.582  1.00  0.00     0.214 HD
ENDBRANCH   9  14
BRANCH   9  16
ATOM     16  C   UNL     1      19.888  36.804   9.991  1.00  0.00     0.364 C 
ATOM     17  O   UNL     1      19.416  36.650  11.169  1.00  0.00    -0.246 OA
BRANCH  16  18
ATOM     18  O   UNL     1      19.658  38.048   9.439  1.00  0.00    -0.477 OA
ATOM     19  H   UNL     1      19.727  38.126   8.434  1.00  0.00     0.296 HD
ENDBRANCH  16  18
ENDBRANCH   9  16
BRANCH  12  20
ATOM     20  O   UNL     1      22.561  36.856   6.507  1.00  0.00    -0.391 OA
ATOM     21  H   UNL     1      22.832  37.765   6.228  1.00  0.00     0.211 HD
ENDBRANCH  12  20
BRANCH  13  22
ATOM     22  N   UNL     1      23.816  38.110   8.885  1.00  0.00    -0.348 N 
ATOM     23  C   UNL     1      25.037  38.321   8.197  1.00  0.00     0.217 C 
ATOM     24  H   UNL     1      23.458  38.898   9.466  1.00  0.00     0.163 HD
ATOM     25  C   UNL     1      25.778  39.629   8.309  1.00  0.00     0.114 C 
ATOM     26  O   UNL     1      25.493  37.402   7.492  1.00  0.00    -0.275 OA
ENDBRANCH  13  22
ENDBRANCH   7   8
BRANCH   7  27
ATOM     27  O   UNL     1      24.968  35.579   9.777  1.00  0.00    -0.388 OA
ATOM     28  H   UNL     1      25.625  36.305   9.933  1.00  0.00     0.211 HD
ENDBRANCH   7  27
ENDBRANCH   6   7
BRANCH   6  29
ATOM     29  O   UNL     1      24.620  37.668  11.764  1.00  0.00    -0.388 OA
ATOM     30  H   UNL     1      23.969  38.031  11.099  1.00  0.00     0.211 HD
ENDBRANCH   6  29
ENDBRANCH   5   6
ENDBRANCH   1   5
BRANCH   2  31
ATOM     31  O   UNL     1      28.916  36.624  11.659  1.00  0.00    -0.443 OA
BRANCH  31  32
ATOM     32  C   UNL     1      29.541  37.330  12.703  1.00  0.00     0.294 C 
BRANCH  32  33
ATOM     33  C   UNL     1      30.750  36.607  13.146  1.00  0.00     0.120 A 
ATOM     34  C   UNL     1      31.041  36.250  14.464  1.00  0.00     0.138 A 
ATOM     35  N   UNL     1      31.800  36.152  12.436  1.00  0.00    -0.132 NA
ATOM     36  N   UNL     1      32.219  35.614  14.489  1.00  0.00    -0.248 N 
ATOM     37  N   UNL     1      32.656  35.567  13.254  1.00  0.00    -0.067 NA
BRANCH  36  38
ATOM     38  C   UNL     1      32.897  35.080  15.680  1.00  0.00     0.181 C 
BRANCH  38  39
ATOM     39  C   UNL     1      32.015  33.976  16.177  1.00  0.00    -0.026 A 
ATOM     40  C   UNL     1      31.557  34.010  17.464  1.00  0.00     0.006 A 
ATOM     41  C   UNL     1      31.656  32.923  15.373  1.00  0.00     0.006 A 
ATOM     42  C   UNL     1      30.736  32.992  17.959  1.00  0.00     0.016 A 
ATOM     43  C   UNL     1      30.839  31.910  15.864  1.00  0.00     0.016 A 
ATOM     44  C   UNL     1      30.371  31.934  17.162  1.00  0.00     0.059 A 
BRANCH  44  45
ATOM     45  C   UNL     1      29.514  30.869  17.665  1.00  0.00     0.335 C 
ATOM     46  O   UNL     1      29.302  30.682  18.883  1.00  0.00    -0.246 OA
BRANCH  45  47
ATOM     47  O   UNL     1      28.894  30.012  16.762  1.00  0.00    -0.478 OA
ATOM     48  H   UNL     1      29.391  29.631  15.976  1.00  0.00     0.297 HD
ENDBRANCH  45  47
ENDBRANCH  44  45
ENDBRANCH  38  39
ENDBRANCH  36  38
ENDBRANCH  32  33
ENDBRANCH  31  32
ENDBRANCH   2  31
TORSDOF 18
BEGIN_RES LYS A 131
REMARK  4 active torsions:
REMARK  status: ('A' for Active; 'I' for Inactive)
REMARK    1  A    between atoms: CA   and  CB  
REMARK    2  A    between atoms: CB   and  CG  
REMARK    3  A    between atoms: CG   and  CD  
REMARK    4  A    between atoms: CD   and  CE  
ROOT
ATOM      1  CA  LYS A 131      29.867  25.555  16.977  1.00 20.52     0.186 C 
ENDROOT
BRANCH   1   2
ATOM      2  CB  LYS A 131      28.345  25.722  17.026  1.00 20.94     0.034 C 
BRANCH   2   3
ATOM      3  CG  LYS A 131      27.599  24.421  16.769  1.00 22.96     0.005 C 
BRANCH   3   4
ATOM      4  CD  LYS A 131      26.798  23.983  17.963  1.00 24.33     0.041 C 
BRANCH   4   5
ATOM      5  CE  LYS A 131      25.437  23.470  17.503  1.00 26.91     0.338 C 
ATOM      6  NZ  LYS A 131      24.509  24.601  17.267  1.00 27.40     0.618 N 
ENDBRANCH   4   5
ENDBRANCH   3   4
ENDBRANCH   2   3
ENDBRANCH   1   2
END_RES LYS A 131
BEGIN_RES LYS A 135
REMARK  4 active torsions:
REMARK  status: ('A' for Active; 'I' for Inactive)
REMARK    5  A    between atoms: CA   and  CB  
REMARK    6  A    between atoms: CB   and  CG  
REMARK    7  A    between atoms: CG   and  CD  
REMARK    8  A    between atoms: CD   and  CE  
ROOT
ATOM      7  CA  LYS A 135      33.193  34.663   9.290  1.00 25.02     0.186 C 
ENDROOT
BRANCH   7   8
ATOM      8  CB  LYS A 135      32.060  35.360  10.034  1.00 26.63     0.034 C 
BRANCH   8   9
ATOM      9  CG  LYS A 135      30.875  35.684   9.161  1.00 29.45     0.005 C 
BRANCH   9  10
ATOM     10  CD  LYS A 135      30.206  34.410   8.670  1.00 32.00     0.041 C 
BRANCH  10  11
ATOM     11  CE  LYS A 135      28.854  34.720   8.056  1.00 34.25     0.338 C 
ATOM     12  NZ  LYS A 135      29.004  35.489   6.789  1.00 35.99     0.618 N 
ENDBRANCH  10  11
ENDBRANCH   9  10
ENDBRANCH   8   9
ENDBRANCH   7   8
END_RES LYS A 135
