REMARK VINA RESULT:    -4.570      4.944      8.390
REMARK INTER + INTRA:         -14.980
REMARK INTER:                  -7.608
REMARK INTRA:                  -7.373
REMARK UNBOUND:                -6.804
REMARK SMILES CC(=O)N[C@@H]1[C@@H](O)C[C@](O)(C(=O)O)O[C@H]1C(O)[C@H](O)CNC(=O)OCc1cn(-c2ccccc2C(C)=O)nn1
REMARK SMILES IDX 21 1 22 2 23 3 20 5 18 6 16 7 15 8 9 9 8 10 14 11 6 12 5 13
REMARK SMILES IDX 10 14 11 16 12 17 13 18 7 20 4 22 2 23 1 25 3 26 17 27 19 29
REMARK SMILES IDX 24 31 25 32 26 33 27 34 39 35 28 36 38 37 29 38 34 39 30 40
REMARK SMILES IDX 33 41 31 42 32 43 35 44 37 45 36 46
REMARK H PARENT 21 4 10 15 13 19 7 21 4 24 17 28 19 30
REMARK Flexibility Score: inf
ROOT
ATOM      1  N   UNL     1      27.407  28.697  23.974  1.00  0.00    -0.319 N 
ATOM      2  C   UNL     1      27.110  28.468  22.586  1.00  0.00     0.407 C 
ATOM      3  O   UNL     1      27.030  27.287  22.172  1.00  0.00    -0.225 OA
ATOM      4  H   UNL     1      27.457  29.688  24.281  1.00  0.00     0.167 HD
ENDROOT
BRANCH   1   5
ATOM      5  C   UNL     1      27.620  27.584  24.852  1.00  0.00     0.154 C 
BRANCH   5   6
ATOM      6  C   UNL     1      29.038  27.175  25.079  1.00  0.00     0.165 C 
BRANCH   6   7
ATOM      7  C   UNL     1      30.015  28.313  25.091  1.00  0.00     0.176 C 
BRANCH   7   8
ATOM      8  C   UNL     1      30.745  28.525  23.790  1.00  0.00     0.178 C 
ATOM      9  C   UNL     1      32.492  27.762  22.488  1.00  0.00     0.269 C 
ATOM     10  C   UNL     1      33.142  29.128  22.376  1.00  0.00     0.112 C 
ATOM     11  O   UNL     1      31.782  27.673  23.629  1.00  0.00    -0.332 OA
ATOM     12  C   UNL     1      32.646  30.072  23.420  1.00  0.00     0.145 C 
ATOM     13  C   UNL     1      31.189  29.967  23.679  1.00  0.00     0.142 C 
BRANCH   9  14
ATOM     14  O   UNL     1      33.610  26.863  22.555  1.00  0.00    -0.357 OA
ATOM     15  H   UNL     1      33.281  25.978  22.905  1.00  0.00     0.214 HD
ENDBRANCH   9  14
BRANCH   9  16
ATOM     16  C   UNL     1      31.821  27.436  21.224  1.00  0.00     0.364 C 
ATOM     17  O   UNL     1      30.877  26.619  21.133  1.00  0.00    -0.246 OA
BRANCH  16  18
ATOM     18  O   UNL     1      32.209  28.039  20.025  1.00  0.00    -0.477 OA
ATOM     19  H   UNL     1      33.190  28.180  19.815  1.00  0.00     0.296 HD
ENDBRANCH  16  18
ENDBRANCH   9  16
BRANCH  12  20
ATOM     20  O   UNL     1      33.333  29.800  24.616  1.00  0.00    -0.391 OA
ATOM     21  H   UNL     1      33.066  30.401  25.352  1.00  0.00     0.211 HD
ENDBRANCH  12  20
BRANCH  13  22
ATOM     22  N   UNL     1      30.427  30.744  22.754  1.00  0.00    -0.348 N 
ATOM     23  C   UNL     1      29.478  31.723  23.161  1.00  0.00     0.217 C 
ATOM     24  H   UNL     1      30.563  30.602  21.736  1.00  0.00     0.163 HD
ATOM     25  C   UNL     1      28.710  32.505  22.157  1.00  0.00     0.114 C 
ATOM     26  O   UNL     1      29.260  31.957  24.377  1.00  0.00    -0.275 OA
ENDBRANCH  13  22
ENDBRANCH   7   8
BRANCH   7  27
ATOM     27  O   UNL     1      30.791  28.384  26.219  1.00  0.00    -0.388 OA
ATOM     28  H   UNL     1      31.002  29.353  26.369  1.00  0.00     0.211 HD
ENDBRANCH   7  27
ENDBRANCH   6   7
BRANCH   6  29
ATOM     29  O   UNL     1      29.396  26.388  23.908  1.00  0.00    -0.388 OA
ATOM     30  H   UNL     1      28.782  25.608  23.970  1.00  0.00     0.211 HD
ENDBRANCH   6  29
ENDBRANCH   5   6
ENDBRANCH   1   5
BRANCH   2  31
ATOM     31  O   UNL     1      26.912  29.487  21.686  1.00  0.00    -0.443 OA
BRANCH  31  32
ATOM     32  C   UNL     1      27.053  29.287  20.282  1.00  0.00     0.294 C 
BRANCH  32  33
ATOM     33  C   UNL     1      28.313  29.884  19.772  1.00  0.00     0.121 A 
ATOM     34  C   UNL     1      28.469  30.821  18.785  1.00  0.00     0.144 A 
ATOM     35  N   UNL     1      29.572  29.600  20.205  1.00  0.00    -0.131 NA
ATOM     36  N   UNL     1      29.813  31.075  18.650  1.00  0.00    -0.220 N 
ATOM     37  N   UNL     1      30.435  30.313  19.529  1.00  0.00    -0.062 NA
BRANCH  36  38
ATOM     38  C   UNL     1      30.456  31.936  17.727  1.00  0.00     0.077 A 
ATOM     39  C   UNL     1      30.981  33.145  18.028  1.00  0.00     0.043 A 
ATOM     40  C   UNL     1      30.528  31.423  16.413  1.00  0.00     0.029 A 
ATOM     41  C   UNL     1      31.599  33.884  17.014  1.00  0.00     0.014 A 
ATOM     42  C   UNL     1      31.138  32.159  15.427  1.00  0.00     0.002 A 
ATOM     43  C   UNL     1      31.665  33.381  15.749  1.00  0.00     0.001 A 
BRANCH  39  44
ATOM     44  C   UNL     1      30.941  33.745  19.343  1.00  0.00     0.161 C 
ATOM     45  O   UNL     1      29.956  34.556  19.576  1.00  0.00    -0.294 OA
ATOM     46  C   UNL     1      31.878  33.550  20.450  1.00  0.00     0.093 C 
ENDBRANCH  39  44
ENDBRANCH  36  38
ENDBRANCH  32  33
ENDBRANCH  31  32
ENDBRANCH   2  31
TORSDOF 16
BEGIN_RES LYS A 131
REMARK  4 active torsions:
REMARK  status: ('A' for Active; 'I' for Inactive)
REMARK    1  A    between atoms: CA   and  CB  
REMARK    2  A    between atoms: CB   and  CG  
REMARK    3  A    between atoms: CG   and  CD  
REMARK    4  A    between atoms: CD   and  CE  
ROOT
ATOM      1  CA  LYS A 131      29.867  25.555  16.977  1.00 20.52     0.186 C 
ENDROOT
BRANCH   1   2
ATOM      2  CB  LYS A 131      28.345  25.722  17.026  1.00 20.94     0.034 C 
BRANCH   2   3
ATOM      3  CG  LYS A 131      27.601  24.402  16.897  1.00 22.96     0.005 C 
BRANCH   3   4
ATOM      4  CD  LYS A 131      26.156  24.525  17.291  1.00 24.33     0.041 C 
BRANCH   4   5
ATOM      5  CE  LYS A 131      25.801  23.418  18.279  1.00 26.91     0.338 C 
ATOM      6  NZ  LYS A 131      25.058  22.332  17.597  1.00 27.40     0.618 N 
ENDBRANCH   4   5
ENDBRANCH   3   4
ENDBRANCH   2   3
ENDBRANCH   1   2
END_RES LYS A 131
BEGIN_RES LYS A 135
REMARK  4 active torsions:
REMARK  status: ('A' for Active; 'I' for Inactive)
REMARK    5  A    between atoms: CA   and  CB  
REMARK    6  A    between atoms: CB   and  CG  
REMARK    7  A    between atoms: CG   and  CD  
REMARK    8  A    between atoms: CD   and  CE  
ROOT
ATOM      7  CA  LYS A 135      33.193  34.663   9.290  1.00 25.02     0.186 C 
ENDROOT
BRANCH   7   8
ATOM      8  CB  LYS A 135      32.060  35.360  10.034  1.00 26.63     0.034 C 
BRANCH   8   9
ATOM      9  CG  LYS A 135      30.789  35.468   9.232  1.00 29.45     0.005 C 
BRANCH   9  10
ATOM     10  CD  LYS A 135      30.047  34.141   9.221  1.00 32.00     0.041 C 
BRANCH  10  11
ATOM     11  CE  LYS A 135      28.642  34.320   8.677  1.00 34.25     0.338 C 
ATOM     12  NZ  LYS A 135      28.642  35.193   7.470  1.00 35.99     0.618 N 
ENDBRANCH  10  11
ENDBRANCH   9  10
ENDBRANCH   8   9
ENDBRANCH   7   8
END_RES LYS A 135
