REMARK VINA RESULT:    -4.019      4.304      9.880
REMARK INTER + INTRA:         -14.427
REMARK INTER:                  -8.718
REMARK INTRA:                  -5.709
REMARK UNBOUND:                -7.237
REMARK SMILES CC(=O)N[C@@H]1[C@@H](O)C[C@](O)(C(=O)O)O[C@H]1C(O)[C@H](O)CNC(=O)OCc1cn(-c2ccccc2C(C)C)nn1
REMARK SMILES IDX 21 1 22 2 23 3 20 5 18 6 16 7 15 8 9 9 8 10 14 11 6 12 5 13
REMARK SMILES IDX 10 14 11 16 12 17 13 18 7 20 4 22 2 23 1 25 3 26 17 27 19 29
REMARK SMILES IDX 24 31 25 32 26 33 27 34 39 35 28 36 38 37 29 38 34 39 30 40
REMARK SMILES IDX 33 41 31 42 32 43 35 44 36 45 37 46
REMARK H PARENT 21 4 10 15 13 19 7 21 4 24 17 28 19 30
REMARK Flexibility Score: inf
ROOT
ATOM      1  N   UNL     1      27.367  41.472   6.066  1.00  0.00    -0.319 N 
ATOM      2  C   UNL     1      27.779  40.572   5.064  1.00  0.00     0.407 C 
ATOM      3  O   UNL     1      26.951  39.889   4.427  1.00  0.00    -0.225 OA
ATOM      4  H   UNL     1      28.112  42.032   6.562  1.00  0.00     0.167 HD
ENDROOT
BRANCH   1   5
ATOM      5  C   UNL     1      26.002  41.648   6.419  1.00  0.00     0.154 C 
BRANCH   5   6
ATOM      6  C   UNL     1      25.670  41.283   7.865  1.00  0.00     0.165 C 
BRANCH   6   7
ATOM      7  C   UNL     1      24.992  39.916   7.733  1.00  0.00     0.176 C 
BRANCH   7   8
ATOM      8  C   UNL     1      25.837  38.792   8.241  1.00  0.00     0.178 C 
ATOM      9  C   UNL     1      27.235  37.354   7.078  1.00  0.00     0.269 C 
ATOM     10  C   UNL     1      26.926  36.230   8.002  1.00  0.00     0.112 C 
ATOM     11  O   UNL     1      26.943  38.623   7.479  1.00  0.00    -0.332 OA
ATOM     12  C   UNL     1      25.657  36.380   8.813  1.00  0.00     0.145 C 
ATOM     13  C   UNL     1      24.934  37.568   8.252  1.00  0.00     0.142 C 
BRANCH   9  14
ATOM     14  O   UNL     1      26.695  37.076   5.795  1.00  0.00    -0.357 OA
ATOM     15  H   UNL     1      26.570  37.871   5.246  1.00  0.00     0.214 HD
ENDBRANCH   9  14
BRANCH   9  16
ATOM     16  C   UNL     1      28.731  37.336   6.883  1.00  0.00     0.364 C 
ATOM     17  O   UNL     1      29.455  37.150   7.884  1.00  0.00    -0.246 OA
BRANCH  16  18
ATOM     18  O   UNL     1      29.334  37.510   5.644  1.00  0.00    -0.477 OA
ATOM     19  H   UNL     1      29.940  36.825   5.199  1.00  0.00     0.296 HD
ENDBRANCH  16  18
ENDBRANCH   9  16
BRANCH  12  20
ATOM     20  O   UNL     1      24.861  35.212   8.603  1.00  0.00    -0.391 OA
ATOM     21  H   UNL     1      24.523  35.180   7.677  1.00  0.00     0.211 HD
ENDBRANCH  12  20
BRANCH  13  22
ATOM     22  N   UNL     1      23.660  37.891   8.763  1.00  0.00    -0.348 N 
ATOM     23  C   UNL     1      22.425  37.526   8.173  1.00  0.00     0.217 C 
ATOM     24  H   UNL     1      23.593  38.461   9.674  1.00  0.00     0.163 HD
ATOM     25  C   UNL     1      21.109  37.873   8.723  1.00  0.00     0.114 C 
ATOM     26  O   UNL     1      22.519  36.844   7.065  1.00  0.00    -0.275 OA
ENDBRANCH  13  22
ENDBRANCH   7   8
BRANCH   7  27
ATOM     27  O   UNL     1      24.679  39.804   6.375  1.00  0.00    -0.388 OA
ATOM     28  H   UNL     1      25.055  40.604   5.922  1.00  0.00     0.211 HD
ENDBRANCH   7  27
ENDBRANCH   6   7
BRANCH   6  29
ATOM     29  O   UNL     1      24.838  42.157   8.485  1.00  0.00    -0.388 OA
ATOM     30  H   UNL     1      24.259  42.634   7.894  1.00  0.00     0.211 HD
ENDBRANCH   6  29
ENDBRANCH   5   6
ENDBRANCH   1   5
BRANCH   2  31
ATOM     31  O   UNL     1      29.131  40.418   4.752  1.00  0.00    -0.443 OA
BRANCH  31  32
ATOM     32  C   UNL     1      30.016  41.460   5.137  1.00  0.00     0.294 C 
BRANCH  32  33
ATOM     33  C   UNL     1      31.110  40.793   5.887  1.00  0.00     0.121 A 
ATOM     34  C   UNL     1      32.459  41.157   5.782  1.00  0.00     0.144 A 
ATOM     35  N   UNL     1      31.031  39.851   6.839  1.00  0.00    -0.131 NA
ATOM     36  N   UNL     1      33.103  40.406   6.695  1.00  0.00    -0.220 N 
ATOM     37  N   UNL     1      32.248  39.672   7.282  1.00  0.00    -0.062 NA
BRANCH  36  38
ATOM     38  C   UNL     1      34.474  40.559   7.009  1.00  0.00     0.070 A 
ATOM     39  C   UNL     1      35.389  39.724   6.493  1.00  0.00    -0.020 A 
ATOM     40  C   UNL     1      34.839  41.483   7.999  1.00  0.00     0.029 A 
ATOM     41  C   UNL     1      36.704  39.787   6.955  1.00  0.00     0.006 A 
ATOM     42  C   UNL     1      36.102  41.559   8.456  1.00  0.00     0.002 A 
ATOM     43  C   UNL     1      37.072  40.708   7.944  1.00  0.00     0.000 A 
BRANCH  39  44
ATOM     44  C   UNL     1      35.073  38.855   5.377  1.00  0.00     0.015 C 
ATOM     45  C   UNL     1      36.051  37.700   5.236  1.00  0.00     0.012 C 
ATOM     46  C   UNL     1      35.476  39.691   4.082  1.00  0.00     0.012 C 
ENDBRANCH  39  44
ENDBRANCH  36  38
ENDBRANCH  32  33
ENDBRANCH  31  32
ENDBRANCH   2  31
TORSDOF 16
BEGIN_RES LYS A 131
REMARK  4 active torsions:
REMARK  status: ('A' for Active; 'I' for Inactive)
REMARK    1  A    between atoms: CA   and  CB  
REMARK    2  A    between atoms: CB   and  CG  
REMARK    3  A    between atoms: CG   and  CD  
REMARK    4  A    between atoms: CD   and  CE  
ROOT
ATOM      1  CA  LYS A 131      29.867  25.555  16.977  1.00 20.52     0.186 C 
ENDROOT
BRANCH   1   2
ATOM      2  CB  LYS A 131      28.345  25.722  17.026  1.00 20.94     0.034 C 
BRANCH   2   3
ATOM      3  CG  LYS A 131      27.601  24.406  16.857  1.00 22.96     0.005 C 
BRANCH   3   4
ATOM      4  CD  LYS A 131      26.156  24.517  17.261  1.00 24.33     0.041 C 
BRANCH   4   5
ATOM      5  CE  LYS A 131      25.678  23.177  17.810  1.00 26.91     0.338 C 
ATOM      6  NZ  LYS A 131      25.556  23.235  19.286  1.00 27.40     0.618 N 
ENDBRANCH   4   5
ENDBRANCH   3   4
ENDBRANCH   2   3
ENDBRANCH   1   2
END_RES LYS A 131
BEGIN_RES LYS A 135
REMARK  4 active torsions:
REMARK  status: ('A' for Active; 'I' for Inactive)
REMARK    5  A    between atoms: CA   and  CB  
REMARK    6  A    between atoms: CB   and  CG  
REMARK    7  A    between atoms: CG   and  CD  
REMARK    8  A    between atoms: CD   and  CE  
ROOT
ATOM      7  CA  LYS A 135      33.193  34.663   9.290  1.00 25.02     0.186 C 
ENDROOT
BRANCH   7   8
ATOM      8  CB  LYS A 135      32.060  35.360  10.034  1.00 26.63     0.034 C 
BRANCH   8   9
ATOM      9  CG  LYS A 135      30.709  34.736   9.795  1.00 29.45     0.005 C 
BRANCH   9  10
ATOM     10  CD  LYS A 135      29.786  34.988  10.977  1.00 32.00     0.041 C 
BRANCH  10  11
ATOM     11  CE  LYS A 135      29.792  36.457  11.355  1.00 34.25     0.338 C 
ATOM     12  NZ  LYS A 135      28.434  37.053  11.214  1.00 35.99     0.618 N 
ENDBRANCH  10  11
ENDBRANCH   9  10
ENDBRANCH   8   9
ENDBRANCH   7   8
END_RES LYS A 135
