REMARK VINA RESULT:    -5.274      4.725      8.512
REMARK INTER + INTRA:         -14.850
REMARK INTER:                  -9.260
REMARK INTRA:                  -5.591
REMARK UNBOUND:                -5.414
REMARK SMILES CC(=O)N[C@@H]1[C@@H](O)C[C@](O)(C(=O)O)O[C@H]1C(O)[C@H](O)CNC(=O)OCc1cn(-c2ccccc2C(N)=O)nn1
REMARK SMILES IDX 21 1 22 2 23 3 20 5 18 6 16 7 15 8 9 9 8 10 14 11 6 12 5 13
REMARK SMILES IDX 10 14 11 16 12 17 13 18 7 20 4 22 2 23 1 25 3 26 17 27 19 29
REMARK SMILES IDX 24 31 25 32 26 33 27 34 39 35 28 36 38 37 29 38 34 39 30 40
REMARK SMILES IDX 33 41 31 42 32 43 35 44 37 45 36 46
REMARK H PARENT 21 4 10 15 13 19 7 21 4 24 17 28 19 30 36 47 36 48
REMARK Flexibility Score: inf
ROOT
ATOM      1  N   UNL     1      25.453  37.093  15.272  1.00  0.00    -0.319 N 
ATOM      2  C   UNL     1      24.159  37.042  14.690  1.00  0.00     0.407 C 
ATOM      3  O   UNL     1      23.630  35.934  14.490  1.00  0.00    -0.225 OA
ATOM      4  H   UNL     1      25.846  38.068  15.415  1.00  0.00     0.167 HD
ENDROOT
BRANCH   1   5
ATOM      5  C   UNL     1      26.226  35.940  15.663  1.00  0.00     0.154 C 
BRANCH   5   6
ATOM      6  C   UNL     1      27.596  35.910  15.007  1.00  0.00     0.165 C 
BRANCH   6   7
ATOM      7  C   UNL     1      28.703  35.948  16.018  1.00  0.00     0.176 C 
BRANCH   7   8
ATOM      8  C   UNL     1      29.944  35.252  15.608  1.00  0.00     0.178 C 
ATOM      9  C   UNL     1      31.268  35.037  13.690  1.00  0.00     0.269 C 
ATOM     10  C   UNL     1      32.180  34.351  14.664  1.00  0.00     0.112 C 
ATOM     11  O   UNL     1      30.165  35.600  14.248  1.00  0.00    -0.332 OA
ATOM     12  C   UNL     1      31.491  33.403  15.585  1.00  0.00     0.145 C 
ATOM     13  C   UNL     1      30.017  33.781  15.677  1.00  0.00     0.142 C 
BRANCH   9  14
ATOM     14  O   UNL     1      30.949  34.138  12.645  1.00  0.00    -0.357 OA
ATOM     15  H   UNL     1      31.745  34.092  12.038  1.00  0.00     0.214 HD
ENDBRANCH   9  14
BRANCH   9  16
ATOM     16  C   UNL     1      32.063  36.125  13.051  1.00  0.00     0.364 C 
ATOM     17  O   UNL     1      31.867  37.316  13.442  1.00  0.00    -0.246 OA
BRANCH  16  18
ATOM     18  O   UNL     1      32.998  35.910  12.061  1.00  0.00    -0.477 OA
ATOM     19  H   UNL     1      33.877  36.403  12.058  1.00  0.00     0.296 HD
ENDBRANCH  16  18
ENDBRANCH   9  16
BRANCH  12  20
ATOM     20  O   UNL     1      31.654  32.111  15.110  1.00  0.00    -0.391 OA
ATOM     21  H   UNL     1      31.850  32.067  14.141  1.00  0.00     0.211 HD
ENDBRANCH  12  20
BRANCH  13  22
ATOM     22  N   UNL     1      29.337  33.101  16.711  1.00  0.00    -0.348 N 
ATOM     23  C   UNL     1      28.735  31.840  16.515  1.00  0.00     0.217 C 
ATOM     24  H   UNL     1      29.277  33.505  17.667  1.00  0.00     0.163 HD
ATOM     25  C   UNL     1      28.013  31.085  17.560  1.00  0.00     0.114 C 
ATOM     26  O   UNL     1      28.820  31.326  15.378  1.00  0.00    -0.275 OA
ENDBRANCH  13  22
ENDBRANCH   7   8
BRANCH   7  27
ATOM     27  O   UNL     1      28.838  37.131  16.705  1.00  0.00    -0.388 OA
ATOM     28  H   UNL     1      29.794  37.253  16.989  1.00  0.00     0.211 HD
ENDBRANCH   7  27
ENDBRANCH   6   7
BRANCH   6  29
ATOM     29  O   UNL     1      27.702  36.794  13.970  1.00  0.00    -0.388 OA
ATOM     30  H   UNL     1      28.546  36.654  13.460  1.00  0.00     0.211 HD
ENDBRANCH   6  29
ENDBRANCH   5   6
ENDBRANCH   1   5
BRANCH   2  31
ATOM     31  O   UNL     1      23.458  38.189  14.335  1.00  0.00    -0.443 OA
BRANCH  31  32
ATOM     32  C   UNL     1      23.330  38.608  12.987  1.00  0.00     0.294 C 
BRANCH  32  33
ATOM     33  C   UNL     1      24.562  38.259  12.216  1.00  0.00     0.121 A 
ATOM     34  C   UNL     1      24.620  37.378  11.152  1.00  0.00     0.144 A 
ATOM     35  N   UNL     1      25.810  38.715  12.397  1.00  0.00    -0.131 NA
ATOM     36  N   UNL     1      25.918  37.336  10.727  1.00  0.00    -0.220 N 
ATOM     37  N   UNL     1      26.599  38.142  11.488  1.00  0.00    -0.062 NA
BRANCH  36  38
ATOM     38  C   UNL     1      26.399  36.531   9.645  1.00  0.00     0.079 A 
ATOM     39  C   UNL     1      26.918  35.274   9.845  1.00  0.00     0.065 A 
ATOM     40  C   UNL     1      26.329  37.059   8.360  1.00  0.00     0.029 A 
ATOM     41  C   UNL     1      27.367  34.549   8.736  1.00  0.00     0.016 A 
ATOM     42  C   UNL     1      26.776  36.332   7.283  1.00  0.00     0.002 A 
ATOM     43  C   UNL     1      27.294  35.079   7.483  1.00  0.00     0.001 A 
BRANCH  39  44
ATOM     44  C   UNL     1      27.019  34.663  11.162  1.00  0.00     0.250 C 
ATOM     45  O   UNL     1      25.969  34.118  11.635  1.00  0.00    -0.269 OA
ATOM     46  N   UNL     1      28.220  34.655  11.920  1.00  0.00    -0.366 N 
ATOM     47  H   UNL     1      29.032  34.070  11.668  1.00  0.00     0.159 HD
ATOM     48  H   UNL     1      28.240  35.284  12.778  1.00  0.00     0.159 HD
ENDBRANCH  39  44
ENDBRANCH  36  38
ENDBRANCH  32  33
ENDBRANCH  31  32
ENDBRANCH   2  31
TORSDOF 16
BEGIN_RES LYS A 131
REMARK  4 active torsions:
REMARK  status: ('A' for Active; 'I' for Inactive)
REMARK    1  A    between atoms: CA   and  CB  
REMARK    2  A    between atoms: CB   and  CG  
REMARK    3  A    between atoms: CG   and  CD  
REMARK    4  A    between atoms: CD   and  CE  
ROOT
ATOM      1  CA  LYS A 131      29.867  25.555  16.977  1.00 20.52     0.186 C 
ENDROOT
BRANCH   1   2
ATOM      2  CB  LYS A 131      28.345  25.722  17.026  1.00 20.94     0.034 C 
BRANCH   2   3
ATOM      3  CG  LYS A 131      27.599  24.442  16.683  1.00 22.96     0.005 C 
BRANCH   3   4
ATOM      4  CD  LYS A 131      27.015  23.782  17.902  1.00 24.33     0.041 C 
BRANCH   4   5
ATOM      5  CE  LYS A 131      25.618  24.337  18.160  1.00 26.91     0.338 C 
ATOM      6  NZ  LYS A 131      25.595  25.120  19.418  1.00 27.40     0.618 N 
ENDBRANCH   4   5
ENDBRANCH   3   4
ENDBRANCH   2   3
ENDBRANCH   1   2
END_RES LYS A 131
BEGIN_RES LYS A 135
REMARK  4 active torsions:
REMARK  status: ('A' for Active; 'I' for Inactive)
REMARK    5  A    between atoms: CA   and  CB  
REMARK    6  A    between atoms: CB   and  CG  
REMARK    7  A    between atoms: CG   and  CD  
REMARK    8  A    between atoms: CD   and  CE  
ROOT
ATOM      7  CA  LYS A 135      33.193  34.663   9.290  1.00 25.02     0.186 C 
ENDROOT
BRANCH   7   8
ATOM      8  CB  LYS A 135      32.060  35.360  10.034  1.00 26.63     0.034 C 
BRANCH   8   9
ATOM      9  CG  LYS A 135      30.759  35.373   9.274  1.00 29.45     0.005 C 
BRANCH   9  10
ATOM     10  CD  LYS A 135      30.322  36.801   8.983  1.00 32.00     0.041 C 
BRANCH  10  11
ATOM     11  CE  LYS A 135      29.973  37.524  10.270  1.00 34.25     0.338 C 
ATOM     12  NZ  LYS A 135      29.720  38.970  10.022  1.00 35.99     0.618 N 
ENDBRANCH  10  11
ENDBRANCH   9  10
ENDBRANCH   8   9
ENDBRANCH   7   8
END_RES LYS A 135
