REMARK VINA RESULT:    -5.970      2.280      4.554
REMARK INTER + INTRA:         -16.522
REMARK INTER:                 -10.966
REMARK INTRA:                  -5.556
REMARK UNBOUND:                -5.490
REMARK SMILES CC(=O)N[C@@H]1[C@@H](O)C[C@](O)(C(=O)O)O[C@H]1C(O)[C@H](O)CNC(=O)OCc1cn(C(c2ccccc2)c2ccccc2)nn1
REMARK SMILES IDX 21 1 22 2 23 3 20 5 18 6 16 7 15 8 9 9 8 10 14 11 6 12 5 13
REMARK SMILES IDX 10 14 11 16 12 17 13 18 7 20 4 22 2 23 1 25 3 26 17 27 19 29
REMARK SMILES IDX 24 31 25 32 26 33 27 34 43 35 28 36 42 37 29 38 30 39 31 40
REMARK SMILES IDX 35 41 32 42 34 43 33 44 36 45 37 46 41 47 38 48 40 49 39 50
REMARK H PARENT 21 4 10 15 13 19 7 21 4 24 17 28 19 30
REMARK Flexibility Score: inf
ROOT
ATOM      1  N   UNL     1      30.592  37.811  13.120  1.00  0.00    -0.319 N 
ATOM      2  C   UNL     1      30.475  39.027  12.412  1.00  0.00     0.407 C 
ATOM      3  O   UNL     1      31.417  39.428  11.688  1.00  0.00    -0.225 OA
ATOM      4  H   UNL     1      29.794  37.508  13.714  1.00  0.00     0.167 HD
ENDROOT
BRANCH   1   5
ATOM      5  C   UNL     1      31.768  37.004  13.035  1.00  0.00     0.154 C 
BRANCH   5   6
ATOM      6  C   UNL     1      31.357  35.532  13.064  1.00  0.00     0.165 C 
BRANCH   6   7
ATOM      7  C   UNL     1      31.385  35.130  14.530  1.00  0.00     0.176 C 
BRANCH   7   8
ATOM      8  C   UNL     1      30.035  34.872  15.138  1.00  0.00     0.178 C 
ATOM      9  C   UNL     1      30.671  33.866  17.170  1.00  0.00     0.269 C 
ATOM     10  C   UNL     1      30.174  32.520  16.693  1.00  0.00     0.112 C 
ATOM     11  O   UNL     1      30.191  34.945  16.508  1.00  0.00    -0.332 OA
ATOM     12  C   UNL     1      30.139  32.405  15.199  1.00  0.00     0.145 C 
ATOM     13  C   UNL     1      29.421  33.611  14.672  1.00  0.00     0.142 C 
BRANCH   9  14
ATOM     14  O   UNL     1      32.058  33.830  17.010  1.00  0.00    -0.357 OA
ATOM     15  H   UNL     1      32.230  33.771  16.028  1.00  0.00     0.214 HD
ENDBRANCH   9  14
BRANCH   9  16
ATOM     16  C   UNL     1      30.417  33.964  18.653  1.00  0.00     0.364 C 
ATOM     17  O   UNL     1      30.716  33.045  19.422  1.00  0.00    -0.246 OA
BRANCH  16  18
ATOM     18  O   UNL     1      29.838  35.113  19.139  1.00  0.00    -0.477 OA
ATOM     19  H   UNL     1      29.378  35.090  20.056  1.00  0.00     0.296 HD
ENDBRANCH  16  18
ENDBRANCH   9  16
BRANCH  12  20
ATOM     20  O   UNL     1      31.418  32.257  14.744  1.00  0.00    -0.391 OA
ATOM     21  H   UNL     1      31.814  31.391  15.036  1.00  0.00     0.211 HD
ENDBRANCH  12  20
BRANCH  13  22
ATOM     22  N   UNL     1      28.020  33.504  15.125  1.00  0.00    -0.348 N 
ATOM     23  C   UNL     1      26.950  34.033  14.382  1.00  0.00     0.217 C 
ATOM     24  H   UNL     1      27.836  33.020  16.030  1.00  0.00     0.163 HD
ATOM     25  C   UNL     1      25.554  33.904  14.874  1.00  0.00     0.114 C 
ATOM     26  O   UNL     1      27.161  34.623  13.287  1.00  0.00    -0.275 OA
ENDBRANCH  13  22
ENDBRANCH   7   8
BRANCH   7  27
ATOM     27  O   UNL     1      31.943  36.281  15.199  1.00  0.00    -0.388 OA
ATOM     28  H   UNL     1      31.241  36.858  15.537  1.00  0.00     0.211 HD
ENDBRANCH   7  27
ENDBRANCH   6   7
BRANCH   6  29
ATOM     29  O   UNL     1      32.320  34.869  12.317  1.00  0.00    -0.388 OA
ATOM     30  H   UNL     1      33.229  35.010  12.644  1.00  0.00     0.211 HD
ENDBRANCH   6  29
ENDBRANCH   5   6
ENDBRANCH   1   5
BRANCH   2  31
ATOM     31  O   UNL     1      29.331  39.813  12.488  1.00  0.00    -0.443 OA
BRANCH  31  32
ATOM     32  C   UNL     1      28.151  39.245  12.985  1.00  0.00     0.294 C 
BRANCH  32  33
ATOM     33  C   UNL     1      27.272  38.883  11.843  1.00  0.00     0.120 A 
ATOM     34  C   UNL     1      27.398  37.730  11.064  1.00  0.00     0.139 A 
ATOM     35  N   UNL     1      26.218  39.528  11.314  1.00  0.00    -0.132 NA
ATOM     36  N   UNL     1      26.444  37.733  10.129  1.00  0.00    -0.240 N 
ATOM     37  N   UNL     1      25.742  38.823  10.294  1.00  0.00    -0.066 NA
BRANCH  36  38
ATOM     38  C   UNL     1      26.196  36.733   9.100  1.00  0.00     0.169 C 
BRANCH  38  39
ATOM     39  C   UNL     1      24.768  36.600   8.812  1.00  0.00    -0.019 A 
ATOM     40  C   UNL     1      24.124  37.399   7.860  1.00  0.00     0.006 A 
ATOM     41  C   UNL     1      24.016  35.649   9.473  1.00  0.00     0.006 A 
ATOM     42  C   UNL     1      22.781  37.240   7.597  1.00  0.00     0.000 A 
ATOM     43  C   UNL     1      22.672  35.509   9.190  1.00  0.00     0.000 A 
ATOM     44  C   UNL     1      22.025  36.291   8.256  1.00  0.00     0.000 A 
ENDBRANCH  38  39
BRANCH  38  45
ATOM     45  C   UNL     1      27.085  36.853   7.942  1.00  0.00    -0.019 A 
ATOM     46  C   UNL     1      27.320  35.747   7.106  1.00  0.00     0.006 A 
ATOM     47  C   UNL     1      27.697  38.048   7.648  1.00  0.00     0.006 A 
ATOM     48  C   UNL     1      28.144  35.856   6.016  1.00  0.00     0.000 A 
ATOM     49  C   UNL     1      28.537  38.147   6.534  1.00  0.00     0.000 A 
ATOM     50  C   UNL     1      28.756  37.056   5.726  1.00  0.00     0.000 A 
ENDBRANCH  38  45
ENDBRANCH  36  38
ENDBRANCH  32  33
ENDBRANCH  31  32
ENDBRANCH   2  31
TORSDOF 17
BEGIN_RES LYS A 131
REMARK  4 active torsions:
REMARK  status: ('A' for Active; 'I' for Inactive)
REMARK    1  A    between atoms: CA   and  CB  
REMARK    2  A    between atoms: CB   and  CG  
REMARK    3  A    between atoms: CG   and  CD  
REMARK    4  A    between atoms: CD   and  CE  
ROOT
ATOM      1  CA  LYS A 131      29.867  25.555  16.977  1.00 20.52     0.186 C 
ENDROOT
BRANCH   1   2
ATOM      2  CB  LYS A 131      28.345  25.722  17.026  1.00 20.94     0.034 C 
BRANCH   2   3
ATOM      3  CG  LYS A 131      27.599  24.437  16.701  1.00 22.96     0.005 C 
BRANCH   3   4
ATOM      4  CD  LYS A 131      27.001  23.803  17.926  1.00 24.33     0.041 C 
BRANCH   4   5
ATOM      5  CE  LYS A 131      25.616  23.258  17.593  1.00 26.91     0.338 C 
ATOM      6  NZ  LYS A 131      24.794  24.299  16.932  1.00 27.40     0.618 N 
ENDBRANCH   4   5
ENDBRANCH   3   4
ENDBRANCH   2   3
ENDBRANCH   1   2
END_RES LYS A 131
BEGIN_RES LYS A 135
REMARK  4 active torsions:
REMARK  status: ('A' for Active; 'I' for Inactive)
REMARK    5  A    between atoms: CA   and  CB  
REMARK    6  A    between atoms: CB   and  CG  
REMARK    7  A    between atoms: CG   and  CD  
REMARK    8  A    between atoms: CD   and  CE  
ROOT
ATOM      7  CA  LYS A 135      33.193  34.663   9.290  1.00 25.02     0.186 C 
ENDROOT
BRANCH   7   8
ATOM      8  CB  LYS A 135      32.060  35.360  10.034  1.00 26.63     0.034 C 
BRANCH   8   9
ATOM      9  CG  LYS A 135      30.831  35.580   9.190  1.00 29.45     0.005 C 
BRANCH   9  10
ATOM     10  CD  LYS A 135      29.979  34.321   9.145  1.00 32.00     0.041 C 
BRANCH  10  11
ATOM     11  CE  LYS A 135      28.872  34.389  10.179  1.00 34.25     0.338 C 
ATOM     12  NZ  LYS A 135      27.701  33.567   9.766  1.00 35.99     0.618 N 
ENDBRANCH  10  11
ENDBRANCH   9  10
ENDBRANCH   8   9
ENDBRANCH   7   8
END_RES LYS A 135
