REMARK VINA RESULT:    -4.218      6.984     12.258
REMARK INTER + INTRA:         -14.409
REMARK INTER:                  -8.660
REMARK INTRA:                  -5.749
REMARK UNBOUND:                -5.875
REMARK SMILES CC[N+](C)(CC)CCCn1cc(COC(=O)NC[C@@H](O)C(O)[C@@H]2O[C@@](O)(C(=O)O)C[C@H](O)[C@H]2NC(C)=O)nn1
REMARK SMILES IDX 14 1 15 2 17 3 16 5 18 6 19 7 21 8 23 9 25 10 30 11 24 12
REMARK SMILES IDX 31 13 33 14 26 15 27 17 28 18 29 19 32 21 34 23 35 24 36 26
REMARK SMILES IDX 37 27 22 28 20 30 13 32 12 33 11 34 38 35 10 36 39 37 9 38
REMARK SMILES IDX 8 39 7 40 3 41 4 42 2 43 1 44 5 45 6 46
REMARK H PARENT 17 4 26 16 29 20 32 22 34 25 22 29 20 31
REMARK Flexibility Score: inf
ROOT
ATOM      1  O   UNL     1      30.582  38.379  14.682  1.00  0.00    -0.443 OA
ENDROOT
BRANCH   1   2
ATOM      2  C   UNL     1      29.936  39.163  13.748  1.00  0.00     0.407 C 
ATOM      3  N   UNL     1      30.263  39.114  12.355  1.00  0.00    -0.319 N 
ATOM      4  H   UNL     1      31.001  38.453  12.089  1.00  0.00     0.167 HD
ATOM      5  O   UNL     1      29.036  39.943  14.135  1.00  0.00    -0.225 OA
BRANCH   3   6
ATOM      6  C   UNL     1      29.555  39.949  11.457  1.00  0.00     0.154 C 
BRANCH   6   7
ATOM      7  C   UNL     1      29.049  39.315  10.204  1.00  0.00     0.165 C 
BRANCH   7   8
ATOM      8  C   UNL     1      27.991  38.272  10.386  1.00  0.00     0.176 C 
BRANCH   8   9
ATOM      9  C   UNL     1      27.388  37.752   9.116  1.00  0.00     0.178 C 
ATOM     10  C   UNL     1      27.273  38.164   6.857  1.00  0.00     0.269 C 
ATOM     11  C   UNL     1      26.678  36.770   6.921  1.00  0.00     0.112 C 
ATOM     12  O   UNL     1      27.742  38.581   8.079  1.00  0.00    -0.332 OA
ATOM     13  C   UNL     1      25.540  36.724   7.893  1.00  0.00     0.145 C 
ATOM     14  C   UNL     1      25.915  37.533   9.136  1.00  0.00     0.142 C 
BRANCH  10  15
ATOM     15  O   UNL     1      26.242  39.033   6.458  1.00  0.00    -0.357 OA
ATOM     16  H   UNL     1      25.694  38.519   5.809  1.00  0.00     0.214 HD
ENDBRANCH  10  15
BRANCH  10  17
ATOM     17  C   UNL     1      28.339  38.205   5.843  1.00  0.00     0.364 C 
ATOM     18  O   UNL     1      28.049  38.248   4.614  1.00  0.00    -0.246 OA
BRANCH  17  19
ATOM     19  O   UNL     1      29.673  38.200   6.194  1.00  0.00    -0.477 OA
ATOM     20  H   UNL     1      29.961  38.315   7.147  1.00  0.00     0.296 HD
ENDBRANCH  17  19
ENDBRANCH  10  17
BRANCH  13  21
ATOM     21  O   UNL     1      24.405  37.270   7.279  1.00  0.00    -0.391 OA
ATOM     22  H   UNL     1      23.846  36.546   6.923  1.00  0.00     0.211 HD
ENDBRANCH  13  21
BRANCH  14  23
ATOM     23  N   UNL     1      25.507  36.679  10.257  1.00  0.00    -0.348 N 
ATOM     24  C   UNL     1      24.171  36.699  10.724  1.00  0.00     0.217 C 
ATOM     25  H   UNL     1      26.218  36.057  10.705  1.00  0.00     0.163 HD
ATOM     26  C   UNL     1      23.770  35.824  11.871  1.00  0.00     0.114 C 
ATOM     27  O   UNL     1      23.268  37.432  10.216  1.00  0.00    -0.275 OA
ENDBRANCH  14  23
ENDBRANCH   8   9
BRANCH   8  28
ATOM     28  O   UNL     1      28.521  37.216  11.143  1.00  0.00    -0.388 OA
ATOM     29  H   UNL     1      29.510  37.232  11.015  1.00  0.00     0.211 HD
ENDBRANCH   8  28
ENDBRANCH   7   8
BRANCH   7  30
ATOM     30  O   UNL     1      30.170  38.755   9.554  1.00  0.00    -0.388 OA
ATOM     31  H   UNL     1      29.918  38.096   8.876  1.00  0.00     0.211 HD
ENDBRANCH   7  30
ENDBRANCH   6   7
ENDBRANCH   3   6
ENDBRANCH   1   2
BRANCH   1  32
ATOM     32  C   UNL     1      31.618  37.508  14.251  1.00  0.00     0.294 C 
BRANCH  32  33
ATOM     33  C   UNL     1      31.073  36.150  14.023  1.00  0.00     0.120 A 
ATOM     34  C   UNL     1      31.085  35.044  14.844  1.00  0.00     0.138 A 
ATOM     35  N   UNL     1      30.436  35.737  12.907  1.00  0.00    -0.132 NA
ATOM     36  N   UNL     1      30.475  34.010  14.233  1.00  0.00    -0.252 N 
ATOM     37  N   UNL     1      30.097  34.473  13.060  1.00  0.00    -0.067 NA
BRANCH  36  38
ATOM     38  C   UNL     1      30.263  32.680  14.704  1.00  0.00     0.152 C 
BRANCH  38  39
ATOM     39  C   UNL     1      30.853  32.403  16.033  1.00  0.00     0.085 C 
BRANCH  39  40
ATOM     40  C   UNL     1      30.260  31.343  16.865  1.00  0.00     0.265 C 
BRANCH  40  41
ATOM     41  N   UNL     1      29.599  31.650  18.066  1.00  0.00    -0.326 N 
ATOM     42  C   UNL     1      28.771  32.826  18.076  1.00  0.00     0.334 C 
BRANCH  41  43
ATOM     43  C   UNL     1      28.660  30.536  18.305  1.00  0.00     0.260 C 
ATOM     44  C   UNL     1      27.921  30.090  17.104  1.00  0.00     0.071 C 
ENDBRANCH  41  43
BRANCH  41  45
ATOM     45  C   UNL     1      30.461  31.696  19.214  1.00  0.00     0.260 C 
ATOM     46  C   UNL     1      30.742  30.381  19.846  1.00  0.00     0.071 C 
ENDBRANCH  41  45
ENDBRANCH  40  41
ENDBRANCH  39  40
ENDBRANCH  38  39
ENDBRANCH  36  38
ENDBRANCH  32  33
ENDBRANCH   1  32
TORSDOF 20
BEGIN_RES LYS A 131
REMARK  4 active torsions:
REMARK  status: ('A' for Active; 'I' for Inactive)
REMARK    1  A    between atoms: CA   and  CB  
REMARK    2  A    between atoms: CB   and  CG  
REMARK    3  A    between atoms: CG   and  CD  
REMARK    4  A    between atoms: CD   and  CE  
ROOT
ATOM      1  CA  LYS A 131      29.867  25.555  16.977  1.00 20.52     0.186 C 
ENDROOT
BRANCH   1   2
ATOM      2  CB  LYS A 131      28.345  25.722  17.026  1.00 20.94     0.034 C 
BRANCH   2   3
ATOM      3  CG  LYS A 131      27.602  24.399  16.919  1.00 22.96     0.005 C 
BRANCH   3   4
ATOM      4  CD  LYS A 131      26.148  24.536  17.279  1.00 24.33     0.041 C 
BRANCH   4   5
ATOM      5  CE  LYS A 131      26.015  24.754  18.782  1.00 26.91     0.338 C 
ATOM      6  NZ  LYS A 131      25.033  25.827  19.066  1.00 27.40     0.618 N 
ENDBRANCH   4   5
ENDBRANCH   3   4
ENDBRANCH   2   3
ENDBRANCH   1   2
END_RES LYS A 131
BEGIN_RES LYS A 135
REMARK  4 active torsions:
REMARK  status: ('A' for Active; 'I' for Inactive)
REMARK    5  A    between atoms: CA   and  CB  
REMARK    6  A    between atoms: CB   and  CG  
REMARK    7  A    between atoms: CG   and  CD  
REMARK    8  A    between atoms: CD   and  CE  
ROOT
ATOM      7  CA  LYS A 135      33.193  34.663   9.290  1.00 25.02     0.186 C 
ENDROOT
BRANCH   7   8
ATOM      8  CB  LYS A 135      32.060  35.360  10.034  1.00 26.63     0.034 C 
BRANCH   8   9
ATOM      9  CG  LYS A 135      30.797  35.490   9.223  1.00 29.45     0.005 C 
BRANCH   9  10
ATOM     10  CD  LYS A 135      30.115  34.139   9.072  1.00 32.00     0.041 C 
BRANCH  10  11
ATOM     11  CE  LYS A 135      28.655  34.317   8.700  1.00 34.25     0.338 C 
ATOM     12  NZ  LYS A 135      27.762  33.838   9.791  1.00 35.99     0.618 N 
ENDBRANCH  10  11
ENDBRANCH   9  10
ENDBRANCH   8   9
ENDBRANCH   7   8
END_RES LYS A 135
