REMARK VINA RESULT:    -4.432      4.713     11.505
REMARK INTER + INTRA:         -15.163
REMARK INTER:                 -10.713
REMARK INTRA:                  -4.449
REMARK UNBOUND:                -5.938
REMARK SMILES CCOC(CCn1cc(COC(=O)NC[C@@H](O)C(O)[C@@H]2O[C@@](O)(C(=O)O)C[C@H](O)[C@H]2NC(C)=O)nn1)OCC
REMARK SMILES IDX 11 1 12 2 14 3 13 5 15 6 16 7 18 8 20 9 22 10 27 11 21 12
REMARK SMILES IDX 28 13 30 14 23 15 24 17 25 18 26 19 29 21 31 23 32 24 33 26
REMARK SMILES IDX 34 27 19 28 17 30 10 32 9 33 8 34 35 35 7 36 36 37 6 38 5 39
REMARK SMILES IDX 4 40 3 41 2 42 1 43 37 44 38 45 39 46
REMARK H PARENT 14 4 23 16 26 20 29 22 31 25 19 29 17 31
REMARK Flexibility Score: inf
ROOT
ATOM      1  O   UNL     1      27.795  34.990  12.209  1.00  0.00    -0.443 OA
ENDROOT
BRANCH   1   2
ATOM      2  C   UNL     1      26.482  35.192  11.757  1.00  0.00     0.407 C 
ATOM      3  N   UNL     1      26.115  36.347  11.034  1.00  0.00    -0.319 N 
ATOM      4  H   UNL     1      26.910  37.039  10.850  1.00  0.00     0.167 HD
ATOM      5  O   UNL     1      25.649  34.321  12.014  1.00  0.00    -0.225 OA
BRANCH   3   6
ATOM      6  C   UNL     1      24.823  36.686  10.529  1.00  0.00     0.154 C 
BRANCH   6   7
ATOM      7  C   UNL     1      24.618  36.152   9.140  1.00  0.00     0.165 C 
BRANCH   7   8
ATOM      8  C   UNL     1      25.422  37.064   8.217  1.00  0.00     0.176 C 
BRANCH   8   9
ATOM      9  C   UNL     1      26.618  36.368   7.646  1.00  0.00     0.178 C 
ATOM     10  C   UNL     1      28.679  35.563   8.341  1.00  0.00     0.269 C 
ATOM     11  C   UNL     1      29.101  35.553   6.908  1.00  0.00     0.112 C 
ATOM     12  O   UNL     1      27.308  35.607   8.543  1.00  0.00    -0.332 OA
ATOM     13  C   UNL     1      28.413  36.565   6.039  1.00  0.00     0.145 C 
ATOM     14  C   UNL     1      27.502  37.382   6.928  1.00  0.00     0.142 C 
BRANCH  10  15
ATOM     15  O   UNL     1      29.339  36.576   9.040  1.00  0.00    -0.357 OA
ATOM     16  H   UNL     1      29.935  36.122   9.707  1.00  0.00     0.214 HD
ENDBRANCH  10  15
BRANCH  10  17
ATOM     17  C   UNL     1      29.133  34.268   8.924  1.00  0.00     0.364 C 
ATOM     18  O   UNL     1      30.331  33.917   8.864  1.00  0.00    -0.246 OA
BRANCH  17  19
ATOM     19  O   UNL     1      28.183  33.437   9.548  1.00  0.00    -0.477 OA
ATOM     20  H   UNL     1      28.555  32.793  10.244  1.00  0.00     0.296 HD
ENDBRANCH  17  19
ENDBRANCH  10  17
BRANCH  13  21
ATOM     21  O   UNL     1      29.293  37.353   5.308  1.00  0.00    -0.391 OA
ATOM     22  H   UNL     1      30.033  37.591   5.923  1.00  0.00     0.211 HD
ENDBRANCH  13  21
BRANCH  14  23
ATOM     23  N   UNL     1      26.634  38.255   6.165  1.00  0.00    -0.348 N 
ATOM     24  C   UNL     1      27.006  39.612   5.972  1.00  0.00     0.217 C 
ATOM     25  H   UNL     1      25.740  37.952   5.741  1.00  0.00     0.163 HD
ATOM     26  C   UNL     1      26.184  40.573   5.209  1.00  0.00     0.114 C 
ATOM     27  O   UNL     1      28.091  40.016   6.476  1.00  0.00    -0.275 OA
ENDBRANCH  14  23
ENDBRANCH   8   9
BRANCH   8  28
ATOM     28  O   UNL     1      25.761  38.210   8.918  1.00  0.00    -0.388 OA
ATOM     29  H   UNL     1      25.017  38.549   9.486  1.00  0.00     0.211 HD
ENDBRANCH   8  28
ENDBRANCH   7   8
BRANCH   7  30
ATOM     30  O   UNL     1      23.305  36.259   8.762  1.00  0.00    -0.388 OA
ATOM     31  H   UNL     1      23.189  36.626   7.848  1.00  0.00     0.211 HD
ENDBRANCH   7  30
ENDBRANCH   6   7
ENDBRANCH   3   6
ENDBRANCH   1   2
BRANCH   1  32
ATOM     32  C   UNL     1      28.155  35.329  13.545  1.00  0.00     0.294 C 
BRANCH  32  33
ATOM     33  C   UNL     1      29.003  34.263  14.107  1.00  0.00     0.120 A 
ATOM     34  C   UNL     1      28.516  33.340  15.037  1.00  0.00     0.138 A 
ATOM     35  N   UNL     1      30.272  33.928  13.919  1.00  0.00    -0.132 NA
ATOM     36  N   UNL     1      29.514  32.494  15.365  1.00  0.00    -0.252 N 
ATOM     37  N   UNL     1      30.559  32.865  14.682  1.00  0.00    -0.067 NA
BRANCH  36  38
ATOM     38  C   UNL     1      29.374  31.415  16.302  1.00  0.00     0.151 C 
BRANCH  38  39
ATOM     39  C   UNL     1      28.638  30.226  15.731  1.00  0.00     0.086 C 
BRANCH  39  40
ATOM     40  C   UNL     1      27.274  30.043  16.320  1.00  0.00     0.251 C 
BRANCH  40  41
ATOM     41  O   UNL     1      27.208  28.770  16.875  1.00  0.00    -0.353 OA
BRANCH  41  42
ATOM     42  C   UNL     1      27.404  28.834  18.260  1.00  0.00     0.160 C 
ATOM     43  C   UNL     1      26.336  29.656  18.933  1.00  0.00     0.035 C 
ENDBRANCH  41  42
ENDBRANCH  40  41
BRANCH  40  44
ATOM     44  O   UNL     1      26.271  30.180  15.396  1.00  0.00    -0.353 OA
BRANCH  44  45
ATOM     45  C   UNL     1      25.497  31.318  15.619  1.00  0.00     0.160 C 
ATOM     46  C   UNL     1      24.776  31.679  14.325  1.00  0.00     0.035 C 
ENDBRANCH  44  45
ENDBRANCH  40  44
ENDBRANCH  39  40
ENDBRANCH  38  39
ENDBRANCH  36  38
ENDBRANCH  32  33
ENDBRANCH   1  32
TORSDOF 21
BEGIN_RES LYS A 131
REMARK  4 active torsions:
REMARK  status: ('A' for Active; 'I' for Inactive)
REMARK    1  A    between atoms: CA   and  CB  
REMARK    2  A    between atoms: CB   and  CG  
REMARK    3  A    between atoms: CG   and  CD  
REMARK    4  A    between atoms: CD   and  CE  
ROOT
ATOM      1  CA  LYS A 131      29.867  25.555  16.977  1.00 20.52     0.186 C 
ENDROOT
BRANCH   1   2
ATOM      2  CB  LYS A 131      28.345  25.722  17.026  1.00 20.94     0.034 C 
BRANCH   2   3
ATOM      3  CG  LYS A 131      27.601  24.403  16.883  1.00 22.96     0.005 C 
BRANCH   3   4
ATOM      4  CD  LYS A 131      26.676  24.146  18.040  1.00 24.33     0.041 C 
BRANCH   4   5
ATOM      5  CE  LYS A 131      26.113  25.470  18.546  1.00 26.91     0.338 C 
ATOM      6  NZ  LYS A 131      24.844  25.793  17.852  1.00 27.40     0.618 N 
ENDBRANCH   4   5
ENDBRANCH   3   4
ENDBRANCH   2   3
ENDBRANCH   1   2
END_RES LYS A 131
BEGIN_RES LYS A 135
REMARK  4 active torsions:
REMARK  status: ('A' for Active; 'I' for Inactive)
REMARK    5  A    between atoms: CA   and  CB  
REMARK    6  A    between atoms: CB   and  CG  
REMARK    7  A    between atoms: CG   and  CD  
REMARK    8  A    between atoms: CD   and  CE  
ROOT
ATOM      7  CA  LYS A 135      33.193  34.663   9.290  1.00 25.02     0.186 C 
ENDROOT
BRANCH   7   8
ATOM      8  CB  LYS A 135      32.060  35.360  10.034  1.00 26.63     0.034 C 
BRANCH   8   9
ATOM      9  CG  LYS A 135      32.497  36.019  11.317  1.00 29.45     0.005 C 
BRANCH   9  10
ATOM     10  CD  LYS A 135      31.984  37.449  11.387  1.00 32.00     0.041 C 
BRANCH  10  11
ATOM     11  CE  LYS A 135      30.955  37.592  12.493  1.00 34.25     0.338 C 
ATOM     12  NZ  LYS A 135      31.552  37.286  13.823  1.00 35.99     0.618 N 
ENDBRANCH  10  11
ENDBRANCH   9  10
ENDBRANCH   8   9
ENDBRANCH   7   8
END_RES LYS A 135
