REMARK VINA RESULT:    -6.982      4.713      8.126
REMARK INTER + INTRA:         -16.661
REMARK INTER:                  -9.846
REMARK INTRA:                  -6.815
REMARK UNBOUND:                -4.578
REMARK SMILES CC(=O)N[C@@H]1[C@@H](O)C[C@](O)(C(=O)O)O[C@H]1C(O)[C@H](O)CNC(=O)OCc1cn(C2c3ccccc3-c3ccccc32)nn1
REMARK SMILES IDX 20 1 18 2 16 3 15 4 9 5 8 6 14 7 6 8 5 9 10 10 11 12 12 13
REMARK SMILES IDX 13 14 7 16 4 18 2 19 1 21 3 22 17 23 19 25 21 27 22 28 23 30
REMARK SMILES IDX 24 31 25 32 26 33 27 34 43 35 28 36 42 37 29 38 30 39 41 40
REMARK SMILES IDX 31 41 35 42 36 43 40 44 32 45 34 46 37 47 39 48 33 49 38 50
REMARK H PARENT 10 11 13 15 7 17 4 20 17 24 19 26 21 29
REMARK Flexibility Score: inf
ROOT
ATOM      1  C   UNL     1      24.185  42.262   6.578  1.00  0.00     0.154 C 
ENDROOT
BRANCH   1   2
ATOM      2  C   UNL     1      23.409  41.487   7.577  1.00  0.00     0.165 C 
BRANCH   2   3
ATOM      3  C   UNL     1      24.248  40.566   8.404  1.00  0.00     0.176 C 
BRANCH   3   4
ATOM      4  C   UNL     1      23.911  40.503   9.868  1.00  0.00     0.178 C 
ATOM      5  C   UNL     1      25.726  39.737  11.134  1.00  0.00     0.269 C 
ATOM      6  C   UNL     1      24.886  39.250  12.296  1.00  0.00     0.112 C 
ATOM      7  O   UNL     1      25.100  40.787  10.542  1.00  0.00    -0.332 OA
ATOM      8  C   UNL     1      23.491  39.041  11.834  1.00  0.00     0.145 C 
ATOM      9  C   UNL     1      23.322  39.193  10.314  1.00  0.00     0.142 C 
BRANCH   5  10
ATOM     10  O   UNL     1      26.010  38.650  10.352  1.00  0.00    -0.357 OA
ATOM     11  H   UNL     1      25.579  37.830  10.682  1.00  0.00     0.214 HD
ENDBRANCH   5  10
BRANCH   5  12
ATOM     12  C   UNL     1      26.995  40.253  11.732  1.00  0.00     0.364 C 
ATOM     13  O   UNL     1      27.637  41.147  11.134  1.00  0.00    -0.246 OA
BRANCH  12  14
ATOM     14  O   UNL     1      27.502  39.780  12.934  1.00  0.00    -0.477 OA
ATOM     15  H   UNL     1      26.875  39.367  13.638  1.00  0.00     0.296 HD
ENDBRANCH  12  14
ENDBRANCH   5  12
BRANCH   8  16
ATOM     16  O   UNL     1      22.960  37.808  12.180  1.00  0.00    -0.391 OA
ATOM     17  H   UNL     1      23.641  37.142  12.426  1.00  0.00     0.211 HD
ENDBRANCH   8  16
BRANCH   9  18
ATOM     18  N   UNL     1      21.889  39.210  10.124  1.00  0.00    -0.348 N 
ATOM     19  C   UNL     1      21.203  38.560   9.065  1.00  0.00     0.217 C 
ATOM     20  H   UNL     1      21.316  39.736  10.816  1.00  0.00     0.163 HD
ATOM     21  C   UNL     1      19.711  38.626   8.936  1.00  0.00     0.114 C 
ATOM     22  O   UNL     1      21.893  37.921   8.231  1.00  0.00    -0.275 OA
ENDBRANCH   9  18
ENDBRANCH   3   4
BRANCH   3  23
ATOM     23  O   UNL     1      24.396  39.288   7.878  1.00  0.00    -0.388 OA
ATOM     24  H   UNL     1      24.429  38.573   8.534  1.00  0.00     0.211 HD
ENDBRANCH   3  23
ENDBRANCH   2   3
BRANCH   2  25
ATOM     25  O   UNL     1      22.466  40.697   6.924  1.00  0.00    -0.388 OA
ATOM     26  H   UNL     1      22.062  41.138   6.153  1.00  0.00     0.211 HD
ENDBRANCH   2  25
ENDBRANCH   1   2
BRANCH   1  27
ATOM     27  N   UNL     1      25.495  41.798   6.310  1.00  0.00    -0.319 N 
ATOM     28  C   UNL     1      25.958  41.426   5.036  1.00  0.00     0.407 C 
ATOM     29  H   UNL     1      26.197  41.718   7.117  1.00  0.00     0.167 HD
ATOM     30  O   UNL     1      25.250  41.485   4.035  1.00  0.00    -0.225 OA
BRANCH  28  31
ATOM     31  O   UNL     1      27.272  40.961   4.846  1.00  0.00    -0.443 OA
BRANCH  31  32
ATOM     32  C   UNL     1      27.581  39.635   4.541  1.00  0.00     0.294 C 
BRANCH  32  33
ATOM     33  C   UNL     1      27.408  38.703   5.682  1.00  0.00     0.120 A 
ATOM     34  C   UNL     1      27.373  37.331   5.690  1.00  0.00     0.139 A 
ATOM     35  N   UNL     1      27.255  39.109   6.944  1.00  0.00    -0.132 NA
ATOM     36  N   UNL     1      27.198  36.954   6.952  1.00  0.00    -0.240 N 
ATOM     37  N   UNL     1      27.130  38.039   7.695  1.00  0.00    -0.066 NA
BRANCH  36  38
ATOM     38  C   UNL     1      27.098  35.595   7.462  1.00  0.00     0.170 C 
ATOM     39  C   UNL     1      26.126  35.494   8.564  1.00  0.00    -0.011 A 
ATOM     40  C   UNL     1      28.358  35.097   7.993  1.00  0.00    -0.011 A 
ATOM     41  C   UNL     1      24.762  35.836   8.604  1.00  0.00     0.007 A 
ATOM     42  C   UNL     1      26.776  34.978   9.648  1.00  0.00    -0.012 A 
ATOM     43  C   UNL     1      28.173  34.728   9.298  1.00  0.00    -0.012 A 
ATOM     44  C   UNL     1      29.643  34.942   7.434  1.00  0.00     0.007 A 
ATOM     45  C   UNL     1      24.078  35.638   9.777  1.00  0.00     0.000 A 
ATOM     46  C   UNL     1      26.047  34.793  10.823  1.00  0.00     0.009 A 
ATOM     47  C   UNL     1      29.195  34.205  10.098  1.00  0.00     0.009 A 
ATOM     48  C   UNL     1      30.659  34.433   8.199  1.00  0.00     0.000 A 
ATOM     49  C   UNL     1      24.711  35.118  10.889  1.00  0.00     0.001 A 
ATOM     50  C   UNL     1      30.435  34.070   9.517  1.00  0.00     0.001 A 
ENDBRANCH  36  38
ENDBRANCH  32  33
ENDBRANCH  31  32
ENDBRANCH  28  31
ENDBRANCH   1  27
TORSDOF 15
BEGIN_RES LYS A 131
REMARK  4 active torsions:
REMARK  status: ('A' for Active; 'I' for Inactive)
REMARK    1  A    between atoms: CA   and  CB  
REMARK    2  A    between atoms: CB   and  CG  
REMARK    3  A    between atoms: CG   and  CD  
REMARK    4  A    between atoms: CD   and  CE  
ROOT
ATOM      1  CA  LYS A 131      29.867  25.555  16.977  1.00 20.52     0.186 C 
ENDROOT
BRANCH   1   2
ATOM      2  CB  LYS A 131      28.345  25.722  17.026  1.00 20.94     0.034 C 
BRANCH   2   3
ATOM      3  CG  LYS A 131      27.599  24.430  16.731  1.00 22.96     0.005 C 
BRANCH   3   4
ATOM      4  CD  LYS A 131      26.879  23.902  17.941  1.00 24.33     0.041 C 
BRANCH   4   5
ATOM      5  CE  LYS A 131      25.548  23.292  17.515  1.00 26.91     0.338 C 
ATOM      6  NZ  LYS A 131      24.708  24.304  16.832  1.00 27.40     0.618 N 
ENDBRANCH   4   5
ENDBRANCH   3   4
ENDBRANCH   2   3
ENDBRANCH   1   2
END_RES LYS A 131
BEGIN_RES LYS A 135
REMARK  4 active torsions:
REMARK  status: ('A' for Active; 'I' for Inactive)
REMARK    5  A    between atoms: CA   and  CB  
REMARK    6  A    between atoms: CB   and  CG  
REMARK    7  A    between atoms: CG   and  CD  
REMARK    8  A    between atoms: CD   and  CE  
ROOT
ATOM      7  CA  LYS A 135      33.193  34.663   9.290  1.00 25.02     0.186 C 
ENDROOT
BRANCH   7   8
ATOM      8  CB  LYS A 135      32.060  35.360  10.034  1.00 26.63     0.034 C 
BRANCH   8   9
ATOM      9  CG  LYS A 135      32.528  36.197  11.196  1.00 29.45     0.005 C 
BRANCH   9  10
ATOM     10  CD  LYS A 135      31.657  37.435  11.351  1.00 32.00     0.041 C 
BRANCH  10  11
ATOM     11  CE  LYS A 135      30.942  37.749  10.051  1.00 34.25     0.338 C 
ATOM     12  NZ  LYS A 135      29.480  37.929  10.273  1.00 35.99     0.618 N 
ENDBRANCH  10  11
ENDBRANCH   9  10
ENDBRANCH   8   9
ENDBRANCH   7   8
END_RES LYS A 135
