REMARK VINA RESULT:    -5.168      6.871     12.328
REMARK INTER + INTRA:         -14.229
REMARK INTER:                  -8.259
REMARK INTRA:                  -5.970
REMARK UNBOUND:                -5.134
REMARK SMILES CC(=O)N[C@@H]1[C@@H](O)C[C@](O)(C(=O)O)O[C@H]1C(O)[C@H](O)CNC(=O)OCc1cn(-c2nc(C)nc(N)n2)nn1
REMARK SMILES IDX 21 1 22 2 23 3 20 5 18 6 16 7 15 8 9 9 8 10 14 11 6 12 5 13
REMARK SMILES IDX 10 14 11 16 12 17 13 18 7 20 4 22 2 23 1 25 3 26 17 27 19 29
REMARK SMILES IDX 24 31 25 32 26 33 27 34 38 35 28 36 37 37 29 38 36 39 30 40
REMARK SMILES IDX 34 41 31 42 33 43 32 44 35 45
REMARK H PARENT 21 4 10 15 13 19 7 21 4 24 17 28 19 30 35 46 35 47
REMARK Flexibility Score: inf
ROOT
ATOM      1  N   UNL     1      26.344  38.520   8.683  1.00  0.00    -0.319 N 
ATOM      2  C   UNL     1      27.753  38.533   8.662  1.00  0.00     0.407 C 
ATOM      3  O   UNL     1      28.436  38.904   7.682  1.00  0.00    -0.225 OA
ATOM      4  H   UNL     1      25.795  38.203   9.538  1.00  0.00     0.167 HD
ENDROOT
BRANCH   1   5
ATOM      5  C   UNL     1      25.605  38.946   7.514  1.00  0.00     0.154 C 
BRANCH   5   6
ATOM      6  C   UNL     1      24.258  39.435   7.945  1.00  0.00     0.165 C 
BRANCH   6   7
ATOM      7  C   UNL     1      23.223  38.342   7.768  1.00  0.00     0.176 C 
BRANCH   7   8
ATOM      8  C   UNL     1      22.700  37.968   9.146  1.00  0.00     0.178 C 
ATOM      9  C   UNL     1      24.012  36.350  10.247  1.00  0.00     0.269 C 
ATOM     10  C   UNL     1      23.030  35.271   9.915  1.00  0.00     0.112 C 
ATOM     11  O   UNL     1      23.727  37.604   9.912  1.00  0.00    -0.332 OA
ATOM     12  C   UNL     1      21.636  35.876  10.016  1.00  0.00     0.145 C 
ATOM     13  C   UNL     1      21.623  36.941   8.920  1.00  0.00     0.142 C 
BRANCH   9  14
ATOM     14  O   UNL     1      25.222  35.985   9.610  1.00  0.00    -0.357 OA
ATOM     15  H   UNL     1      25.115  35.163   9.078  1.00  0.00     0.214 HD
ENDBRANCH   9  14
BRANCH   9  16
ATOM     16  C   UNL     1      24.273  36.272  11.707  1.00  0.00     0.364 C 
ATOM     17  O   UNL     1      24.134  37.285  12.439  1.00  0.00    -0.246 OA
BRANCH  16  18
ATOM     18  O   UNL     1      24.678  35.098  12.321  1.00  0.00    -0.477 OA
ATOM     19  H   UNL     1      24.302  34.787  13.219  1.00  0.00     0.296 HD
ENDBRANCH  16  18
ENDBRANCH   9  16
BRANCH  12  20
ATOM     20  O   UNL     1      20.653  34.950   9.728  1.00  0.00    -0.391 OA
ATOM     21  H   UNL     1      20.612  34.861   8.733  1.00  0.00     0.211 HD
ENDBRANCH  12  20
BRANCH  13  22
ATOM     22  N   UNL     1      20.321  37.562   8.817  1.00  0.00    -0.348 N 
ATOM     23  C   UNL     1      19.347  37.076   7.908  1.00  0.00     0.217 C 
ATOM     24  H   UNL     1      20.151  38.378   9.447  1.00  0.00     0.163 HD
ATOM     25  C   UNL     1      18.035  37.756   7.851  1.00  0.00     0.114 C 
ATOM     26  O   UNL     1      19.563  36.097   7.159  1.00  0.00    -0.275 OA
ENDBRANCH  13  22
ENDBRANCH   7   8
BRANCH   7  27
ATOM     27  O   UNL     1      23.866  37.210   7.200  1.00  0.00    -0.388 OA
ATOM     28  H   UNL     1      24.378  36.818   7.964  1.00  0.00     0.211 HD
ENDBRANCH   7  27
ENDBRANCH   6   7
BRANCH   6  29
ATOM     29  O   UNL     1      23.925  40.572   7.195  1.00  0.00    -0.388 OA
ATOM     30  H   UNL     1      24.510  41.320   7.410  1.00  0.00     0.211 HD
ENDBRANCH   6  29
ENDBRANCH   5   6
ENDBRANCH   1   5
BRANCH   2  31
ATOM     31  O   UNL     1      28.444  38.107   9.809  1.00  0.00    -0.443 OA
BRANCH  31  32
ATOM     32  C   UNL     1      27.703  37.964  11.002  1.00  0.00     0.294 C 
BRANCH  32  33
ATOM     33  C   UNL     1      28.112  36.685  11.669  1.00  0.00     0.121 A 
ATOM     34  C   UNL     1      29.173  36.491  12.533  1.00  0.00     0.148 A 
ATOM     35  N   UNL     1      27.533  35.467  11.565  1.00  0.00    -0.131 NA
ATOM     36  N   UNL     1      29.215  35.201  12.923  1.00  0.00    -0.185 N 
ATOM     37  N   UNL     1      28.209  34.607  12.321  1.00  0.00    -0.059 NA
BRANCH  36  38
ATOM     38  C   UNL     1      30.167  34.611  13.815  1.00  0.00     0.257 A 
ATOM     39  N   UNL     1      29.995  33.375  14.321  1.00  0.00    -0.175 NA
ATOM     40  N   UNL     1      31.277  35.280  14.182  1.00  0.00    -0.196 NA
ATOM     41  C   UNL     1      30.862  32.787  15.159  1.00  0.00     0.225 A 
ATOM     42  C   UNL     1      32.192  34.739  15.027  1.00  0.00     0.133 A 
ATOM     43  N   UNL     1      31.966  33.508  15.496  1.00  0.00    -0.198 NA
ATOM     44  C   UNL     1      33.421  35.468  15.439  1.00  0.00     0.090 C 
BRANCH  41  45
ATOM     45  N   UNL     1      30.685  31.493  15.690  1.00  0.00    -0.368 N 
ATOM     46  H   UNL     1      31.311  31.149  16.430  1.00  0.00     0.159 HD
ATOM     47  H   UNL     1      29.927  30.893  15.334  1.00  0.00     0.159 HD
ENDBRANCH  41  45
ENDBRANCH  36  38
ENDBRANCH  32  33
ENDBRANCH  31  32
ENDBRANCH   2  31
TORSDOF 16
BEGIN_RES LYS A 131
REMARK  4 active torsions:
REMARK  status: ('A' for Active; 'I' for Inactive)
REMARK    1  A    between atoms: CA   and  CB  
REMARK    2  A    between atoms: CB   and  CG  
REMARK    3  A    between atoms: CG   and  CD  
REMARK    4  A    between atoms: CD   and  CE  
ROOT
ATOM      1  CA  LYS A 131      29.867  25.555  16.977  1.00 20.52     0.186 C 
ENDROOT
BRANCH   1   2
ATOM      2  CB  LYS A 131      28.345  25.722  17.026  1.00 20.94     0.034 C 
BRANCH   2   3
ATOM      3  CG  LYS A 131      27.600  24.414  16.806  1.00 22.96     0.005 C 
BRANCH   3   4
ATOM      4  CD  LYS A 131      26.635  24.118  17.921  1.00 24.33     0.041 C 
BRANCH   4   5
ATOM      5  CE  LYS A 131      25.233  23.939  17.347  1.00 26.91     0.338 C 
ATOM      6  NZ  LYS A 131      24.438  23.023  18.197  1.00 27.40     0.618 N 
ENDBRANCH   4   5
ENDBRANCH   3   4
ENDBRANCH   2   3
ENDBRANCH   1   2
END_RES LYS A 131
BEGIN_RES LYS A 135
REMARK  4 active torsions:
REMARK  status: ('A' for Active; 'I' for Inactive)
REMARK    5  A    between atoms: CA   and  CB  
REMARK    6  A    between atoms: CB   and  CG  
REMARK    7  A    between atoms: CG   and  CD  
REMARK    8  A    between atoms: CD   and  CE  
ROOT
ATOM      7  CA  LYS A 135      33.193  34.663   9.290  1.00 25.02     0.186 C 
ENDROOT
BRANCH   7   8
ATOM      8  CB  LYS A 135      32.060  35.360  10.034  1.00 26.63     0.034 C 
BRANCH   8   9
ATOM      9  CG  LYS A 135      30.707  34.745   9.784  1.00 29.45     0.005 C 
BRANCH   9  10
ATOM     10  CD  LYS A 135      30.452  34.596   8.293  1.00 32.00     0.041 C 
BRANCH  10  11
ATOM     11  CE  LYS A 135      29.003  34.904   7.967  1.00 34.25     0.338 C 
ATOM     12  NZ  LYS A 135      28.885  35.610   6.660  1.00 35.99     0.618 N 
ENDBRANCH  10  11
ENDBRANCH   9  10
ENDBRANCH   8   9
ENDBRANCH   7   8
END_RES LYS A 135
