REMARK VINA RESULT:    -5.465      7.781     13.467
REMARK INTER + INTRA:         -13.955
REMARK INTER:                  -8.501
REMARK INTRA:                  -5.454
REMARK UNBOUND:                -4.497
REMARK SMILES CC(=O)N[C@@H]1[C@@H](O)C[C@](O)(C(=O)O)O[C@H]1C(O)[C@H](O)CNC(=O)OCc1cn(-c2cccc(Cl)c2)nn1
REMARK SMILES IDX 20 1 18 2 16 3 15 4 9 5 8 6 14 7 6 8 5 9 10 10 11 12 12 13
REMARK SMILES IDX 13 14 7 16 4 18 2 19 1 21 3 22 17 23 19 25 21 27 22 28 23 30
REMARK SMILES IDX 24 31 25 32 26 33 27 34 37 35 28 36 36 37 29 38 30 39 35 40
REMARK SMILES IDX 31 41 33 42 32 43 34 44
REMARK H PARENT 10 11 13 15 7 17 4 20 17 24 19 26 21 29
REMARK Flexibility Score: inf
ROOT
ATOM      1  C   UNL     1      22.588  34.518  12.668  1.00  0.00     0.154 C 
ENDROOT
BRANCH   1   2
ATOM      2  C   UNL     1      21.533  34.493  11.600  1.00  0.00     0.165 C 
BRANCH   2   3
ATOM      3  C   UNL     1      21.743  35.534  10.539  1.00  0.00     0.176 C 
BRANCH   3   4
ATOM      4  C   UNL     1      20.406  36.124  10.082  1.00  0.00     0.178 C 
ATOM      5  C   UNL     1      19.516  34.995   8.222  1.00  0.00     0.269 C 
ATOM      6  C   UNL     1      19.247  36.344   7.567  1.00  0.00     0.112 C 
ATOM      7  O   UNL     1      19.667  35.141   9.557  1.00  0.00    -0.332 OA
ATOM      8  C   UNL     1      20.551  37.113   7.769  1.00  0.00     0.145 C 
ATOM      9  C   UNL     1      20.696  37.324   9.251  1.00  0.00     0.142 C 
BRANCH   5  10
ATOM     10  O   UNL     1      20.624  34.470   7.569  1.00  0.00    -0.357 OA
ATOM     11  H   UNL     1      20.899  33.643   8.035  1.00  0.00     0.214 HD
ENDBRANCH   5  10
BRANCH   5  12
ATOM     12  C   UNL     1      18.363  34.097   7.979  1.00  0.00     0.364 C 
ATOM     13  O   UNL     1      17.711  33.667   8.958  1.00  0.00    -0.246 OA
BRANCH  12  14
ATOM     14  O   UNL     1      17.968  33.708   6.708  1.00  0.00    -0.477 OA
ATOM     15  H   UNL     1      17.046  34.009   6.374  1.00  0.00     0.296 HD
ENDBRANCH  12  14
ENDBRANCH   5  12
BRANCH   8  16
ATOM     16  O   UNL     1      21.649  36.381   7.330  1.00  0.00    -0.391 OA
ATOM     17  H   UNL     1      22.076  36.787   6.523  1.00  0.00     0.211 HD
ENDBRANCH   8  16
BRANCH   9  18
ATOM     18  N   UNL     1      19.823  38.423   9.606  1.00  0.00    -0.348 N 
ATOM     19  C   UNL     1      20.339  39.517  10.347  1.00  0.00     0.217 C 
ATOM     20  H   UNL     1      18.800  38.429   9.325  1.00  0.00     0.163 HD
ATOM     21  C   UNL     1      19.437  40.641  10.709  1.00  0.00     0.114 C 
ATOM     22  O   UNL     1      21.549  39.527  10.690  1.00  0.00    -0.275 OA
ENDBRANCH   9  18
ENDBRANCH   3   4
BRANCH   3  23
ATOM     23  O   UNL     1      22.358  34.873   9.454  1.00  0.00    -0.388 OA
ATOM     24  H   UNL     1      23.322  34.910   9.523  1.00  0.00     0.211 HD
ENDBRANCH   3  23
ENDBRANCH   2   3
BRANCH   2  25
ATOM     25  O   UNL     1      20.279  34.707  12.200  1.00  0.00    -0.388 OA
ATOM     26  H   UNL     1      20.079  33.954  12.784  1.00  0.00     0.211 HD
ENDBRANCH   2  25
ENDBRANCH   1   2
BRANCH   1  27
ATOM     27  N   UNL     1      23.835  35.040  12.120  1.00  0.00    -0.319 N 
ATOM     28  C   UNL     1      25.076  34.435  12.440  1.00  0.00     0.407 C 
ATOM     29  H   UNL     1      23.783  35.866  11.492  1.00  0.00     0.167 HD
ATOM     30  O   UNL     1      25.091  33.438  13.205  1.00  0.00    -0.225 OA
BRANCH  28  31
ATOM     31  O   UNL     1      26.283  34.899  11.943  1.00  0.00    -0.443 OA
BRANCH  31  32
ATOM     32  C   UNL     1      26.404  36.275  11.658  1.00  0.00     0.294 C 
BRANCH  32  33
ATOM     33  C   UNL     1      26.160  36.499  10.209  1.00  0.00     0.121 A 
ATOM     34  C   UNL     1      26.906  37.296   9.359  1.00  0.00     0.144 A 
ATOM     35  N   UNL     1      25.184  35.988   9.436  1.00  0.00    -0.131 NA
ATOM     36  N   UNL     1      26.375  37.248   8.114  1.00  0.00    -0.220 N 
ATOM     37  N   UNL     1      25.329  36.443   8.200  1.00  0.00    -0.062 NA
BRANCH  36  38
ATOM     38  C   UNL     1      26.849  37.927   6.958  1.00  0.00     0.068 A 
ATOM     39  C   UNL     1      27.676  37.260   6.079  1.00  0.00     0.028 A 
ATOM     40  C   UNL     1      26.523  39.233   6.660  1.00  0.00     0.049 A 
ATOM     41  C   UNL     1      28.163  37.879   4.940  1.00  0.00     0.004 A 
ATOM     42  C   UNL     1      26.990  39.879   5.535  1.00  0.00     0.043 A 
ATOM     43  C   UNL     1      27.816  39.185   4.676  1.00  0.00     0.020 A 
ATOM     44  Cl  UNL     1      26.547  41.558   5.191  1.00  0.00    -0.084 Cl
ENDBRANCH  36  38
ENDBRANCH  32  33
ENDBRANCH  31  32
ENDBRANCH  28  31
ENDBRANCH   1  27
TORSDOF 15
BEGIN_RES LYS A 131
REMARK  4 active torsions:
REMARK  status: ('A' for Active; 'I' for Inactive)
REMARK    1  A    between atoms: CA   and  CB  
REMARK    2  A    between atoms: CB   and  CG  
REMARK    3  A    between atoms: CG   and  CD  
REMARK    4  A    between atoms: CD   and  CE  
ROOT
ATOM      1  CA  LYS A 131      29.867  25.555  16.977  1.00 20.52     0.186 C 
ENDROOT
BRANCH   1   2
ATOM      2  CB  LYS A 131      28.345  25.722  17.026  1.00 20.94     0.034 C 
BRANCH   2   3
ATOM      3  CG  LYS A 131      27.602  24.398  16.931  1.00 22.96     0.005 C 
BRANCH   3   4
ATOM      4  CD  LYS A 131      26.188  24.505  17.430  1.00 24.33     0.041 C 
BRANCH   4   5
ATOM      5  CE  LYS A 131      25.627  23.108  17.675  1.00 26.91     0.338 C 
ATOM      6  NZ  LYS A 131      25.268  22.936  19.102  1.00 27.40     0.618 N 
ENDBRANCH   4   5
ENDBRANCH   3   4
ENDBRANCH   2   3
ENDBRANCH   1   2
END_RES LYS A 131
BEGIN_RES LYS A 135
REMARK  4 active torsions:
REMARK  status: ('A' for Active; 'I' for Inactive)
REMARK    5  A    between atoms: CA   and  CB  
REMARK    6  A    between atoms: CB   and  CG  
REMARK    7  A    between atoms: CG   and  CD  
REMARK    8  A    between atoms: CD   and  CE  
ROOT
ATOM      7  CA  LYS A 135      33.193  34.663   9.290  1.00 25.02     0.186 C 
ENDROOT
BRANCH   7   8
ATOM      8  CB  LYS A 135      32.060  35.360  10.034  1.00 26.63     0.034 C 
BRANCH   8   9
ATOM      9  CG  LYS A 135      30.889  35.713   9.154  1.00 29.45     0.005 C 
BRANCH   9  10
ATOM     10  CD  LYS A 135      30.398  34.488   8.397  1.00 32.00     0.041 C 
BRANCH  10  11
ATOM     11  CE  LYS A 135      28.884  34.480   8.321  1.00 34.25     0.338 C 
ATOM     12  NZ  LYS A 135      28.293  33.731   9.464  1.00 35.99     0.618 N 
ENDBRANCH  10  11
ENDBRANCH   9  10
ENDBRANCH   8   9
ENDBRANCH   7   8
END_RES LYS A 135
