REMARK VINA RESULT:    -5.841      6.882     13.598
REMARK INTER + INTRA:         -14.656
REMARK INTER:                  -9.148
REMARK INTRA:                  -5.509
REMARK UNBOUND:                -4.548
REMARK SMILES CC(=O)N[C@@H]1[C@@H](O)C[C@](O)(C(=O)O)O[C@H]1C(O)[C@H](O)CNC(=O)OCc1cn(-c2ccc3c(c2)OCO3)nn1
REMARK SMILES IDX 20 1 18 2 16 3 15 4 9 5 8 6 14 7 6 8 5 9 10 10 11 12 12 13
REMARK SMILES IDX 13 14 7 16 4 18 2 19 1 21 3 22 17 23 19 25 21 27 22 28 23 30
REMARK SMILES IDX 24 31 25 32 26 33 27 34 39 35 28 36 38 37 29 38 30 39 34 40
REMARK SMILES IDX 31 41 33 42 32 43 35 44 37 45 36 46
REMARK H PARENT 10 11 13 15 7 17 4 20 17 24 19 26 21 29
REMARK Flexibility Score: inf
ROOT
ATOM      1  C   UNL     1      26.448  39.923   7.104  1.00  0.00     0.154 C 
ENDROOT
BRANCH   1   2
ATOM      2  C   UNL     1      25.181  39.302   7.587  1.00  0.00     0.165 C 
BRANCH   2   3
ATOM      3  C   UNL     1      25.391  37.817   7.929  1.00  0.00     0.176 C 
BRANCH   3   4
ATOM      4  C   UNL     1      24.070  37.263   8.323  1.00  0.00     0.178 C 
ATOM      5  C   UNL     1      22.064  37.696   9.317  1.00  0.00     0.269 C 
ATOM      6  C   UNL     1      21.825  36.286   8.821  1.00  0.00     0.112 C 
ATOM      7  O   UNL     1      23.259  38.232   8.904  1.00  0.00    -0.332 OA
ATOM      8  C   UNL     1      22.933  35.337   9.234  1.00  0.00     0.145 C 
ATOM      9  C   UNL     1      24.187  36.137   9.350  1.00  0.00     0.142 C 
BRANCH   5  10
ATOM     10  O   UNL     1      21.943  37.646  10.707  1.00  0.00    -0.357 OA
ATOM     11  H   UNL     1      21.454  36.803  10.906  1.00  0.00     0.214 HD
ENDBRANCH   5  10
BRANCH   5  12
ATOM     12  C   UNL     1      20.981  38.534   8.754  1.00  0.00     0.364 C 
ATOM     13  O   UNL     1      19.786  38.222   8.971  1.00  0.00    -0.246 OA
BRANCH  12  14
ATOM     14  O   UNL     1      21.227  39.662   7.989  1.00  0.00    -0.477 OA
ATOM     15  H   UNL     1      20.616  39.978   7.243  1.00  0.00     0.296 HD
ENDBRANCH  12  14
ENDBRANCH   5  12
BRANCH   8  16
ATOM     16  O   UNL     1      22.535  34.804  10.479  1.00  0.00    -0.391 OA
ATOM     17  H   UNL     1      21.686  35.186  10.767  1.00  0.00     0.211 HD
ENDBRANCH   8  16
BRANCH   9  18
ATOM     18  N   UNL     1      25.398  35.408   9.253  1.00  0.00    -0.348 N 
ATOM     19  C   UNL     1      26.085  34.755  10.312  1.00  0.00     0.217 C 
ATOM     20  H   UNL     1      25.842  35.332   8.312  1.00  0.00     0.163 HD
ATOM     21  C   UNL     1      27.361  34.010  10.101  1.00  0.00     0.114 C 
ATOM     22  O   UNL     1      25.576  34.827  11.453  1.00  0.00    -0.275 OA
ENDBRANCH   9  18
ENDBRANCH   3   4
BRANCH   3  23
ATOM     23  O   UNL     1      25.912  37.207   6.821  1.00  0.00    -0.388 OA
ATOM     24  H   UNL     1      26.687  37.594   6.401  1.00  0.00     0.211 HD
ENDBRANCH   3  23
ENDBRANCH   2   3
BRANCH   2  25
ATOM     25  O   UNL     1      24.182  39.381   6.654  1.00  0.00    -0.388 OA
ATOM     26  H   UNL     1      24.222  40.136   6.028  1.00  0.00     0.211 HD
ENDBRANCH   2  25
ENDBRANCH   1   2
BRANCH   1  27
ATOM     27  N   UNL     1      27.579  39.486   7.845  1.00  0.00    -0.319 N 
ATOM     28  C   UNL     1      28.861  40.044   7.709  1.00  0.00     0.407 C 
ATOM     29  H   UNL     1      27.487  38.693   8.551  1.00  0.00     0.167 HD
ATOM     30  O   UNL     1      29.164  40.963   6.931  1.00  0.00    -0.225 OA
BRANCH  28  31
ATOM     31  O   UNL     1      29.904  39.541   8.506  1.00  0.00    -0.443 OA
BRANCH  31  32
ATOM     32  C   UNL     1      29.993  39.931   9.843  1.00  0.00     0.294 C 
BRANCH  32  33
ATOM     33  C   UNL     1      29.675  38.768  10.712  1.00  0.00     0.121 A 
ATOM     34  C   UNL     1      30.561  38.094  11.545  1.00  0.00     0.144 A 
ATOM     35  N   UNL     1      28.498  38.139  10.874  1.00  0.00    -0.131 NA
ATOM     36  N   UNL     1      29.916  37.097  12.175  1.00  0.00    -0.220 N 
ATOM     37  N   UNL     1      28.670  37.160  11.741  1.00  0.00    -0.062 NA
BRANCH  36  38
ATOM     38  C   UNL     1      30.488  36.188  13.108  1.00  0.00     0.070 A 
ATOM     39  C   UNL     1      31.659  36.504  13.767  1.00  0.00     0.032 A 
ATOM     40  C   UNL     1      29.919  34.966  13.400  1.00  0.00     0.079 A 
ATOM     41  C   UNL     1      32.237  35.627  14.685  1.00  0.00     0.053 A 
ATOM     42  C   UNL     1      30.478  34.073  14.314  1.00  0.00     0.167 A 
ATOM     43  C   UNL     1      31.647  34.412  14.959  1.00  0.00     0.165 A 
ATOM     44  O   UNL     1      30.106  32.812  14.771  1.00  0.00    -0.454 OA
ATOM     45  O   UNL     1      31.964  33.335  15.805  1.00  0.00    -0.454 OA
ATOM     46  C   UNL     1      31.231  32.187  15.363  1.00  0.00     0.468 C 
ENDBRANCH  36  38
ENDBRANCH  32  33
ENDBRANCH  31  32
ENDBRANCH  28  31
ENDBRANCH   1  27
TORSDOF 15
BEGIN_RES LYS A 131
REMARK  4 active torsions:
REMARK  status: ('A' for Active; 'I' for Inactive)
REMARK    1  A    between atoms: CA   and  CB  
REMARK    2  A    between atoms: CB   and  CG  
REMARK    3  A    between atoms: CG   and  CD  
REMARK    4  A    between atoms: CD   and  CE  
ROOT
ATOM      1  CA  LYS A 131      29.867  25.555  16.977  1.00 20.52     0.186 C 
ENDROOT
BRANCH   1   2
ATOM      2  CB  LYS A 131      28.345  25.722  17.026  1.00 20.94     0.034 C 
BRANCH   2   3
ATOM      3  CG  LYS A 131      27.602  24.400  16.914  1.00 22.96     0.005 C 
BRANCH   3   4
ATOM      4  CD  LYS A 131      26.153  24.530  17.297  1.00 24.33     0.041 C 
BRANCH   4   5
ATOM      5  CE  LYS A 131      25.962  25.781  18.148  1.00 26.91     0.338 C 
ATOM      6  NZ  LYS A 131      25.738  25.415  19.566  1.00 27.40     0.618 N 
ENDBRANCH   4   5
ENDBRANCH   3   4
ENDBRANCH   2   3
ENDBRANCH   1   2
END_RES LYS A 131
BEGIN_RES LYS A 135
REMARK  4 active torsions:
REMARK  status: ('A' for Active; 'I' for Inactive)
REMARK    5  A    between atoms: CA   and  CB  
REMARK    6  A    between atoms: CB   and  CG  
REMARK    7  A    between atoms: CG   and  CD  
REMARK    8  A    between atoms: CD   and  CE  
ROOT
ATOM      7  CA  LYS A 135      33.193  34.663   9.290  1.00 25.02     0.186 C 
ENDROOT
BRANCH   7   8
ATOM      8  CB  LYS A 135      32.060  35.360  10.034  1.00 26.63     0.034 C 
BRANCH   8   9
ATOM      9  CG  LYS A 135      30.688  34.935   9.578  1.00 29.45     0.005 C 
BRANCH   9  10
ATOM     10  CD  LYS A 135      30.730  34.440   8.140  1.00 32.00     0.041 C 
BRANCH  10  11
ATOM     11  CE  LYS A 135      29.694  35.161   7.299  1.00 34.25     0.338 C 
ATOM     12  NZ  LYS A 135      29.038  36.251   8.073  1.00 35.99     0.618 N 
ENDBRANCH  10  11
ENDBRANCH   9  10
ENDBRANCH   8   9
ENDBRANCH   7   8
END_RES LYS A 135
