REMARK VINA RESULT:    -5.325      3.720      6.748
REMARK INTER + INTRA:         -14.817
REMARK INTER:                  -9.845
REMARK INTRA:                  -4.972
REMARK UNBOUND:                -5.290
REMARK SMILES CC(=O)N[C@@H]1[C@@H](O)C[C@](O)(C(=O)O)O[C@H]1C(O)[C@H](O)CNC(=O)OCc1cn(Cc2ccccc2)nn1
REMARK SMILES IDX 21 1 22 2 23 3 20 5 18 6 16 7 15 8 9 9 8 10 14 11 6 12 5 13
REMARK SMILES IDX 10 14 11 16 12 17 13 18 7 20 4 22 2 23 1 25 3 26 17 27 19 29
REMARK SMILES IDX 24 31 25 32 26 33 27 34 37 35 28 36 36 37 29 38 30 39 31 40
REMARK SMILES IDX 35 41 32 42 34 43 33 44
REMARK H PARENT 21 4 10 15 13 19 7 21 4 24 17 28 19 30
REMARK Flexibility Score: inf
ROOT
ATOM      1  N   UNL     1      24.565  35.733  11.050  1.00  0.00    -0.319 N 
ATOM      2  C   UNL     1      25.358  34.838  11.795  1.00  0.00     0.407 C 
ATOM      3  O   UNL     1      24.888  33.824  12.335  1.00  0.00    -0.225 OA
ATOM      4  H   UNL     1      25.077  36.556  10.636  1.00  0.00     0.167 HD
ENDROOT
BRANCH   1   5
ATOM      5  C   UNL     1      23.158  35.558  10.855  1.00  0.00     0.154 C 
BRANCH   5   6
ATOM      6  C   UNL     1      22.839  35.594   9.379  1.00  0.00     0.165 C 
BRANCH   6   7
ATOM      7  C   UNL     1      23.029  36.970   8.807  1.00  0.00     0.176 C 
BRANCH   7   8
ATOM      8  C   UNL     1      24.279  37.107   7.970  1.00  0.00     0.178 C 
ATOM      9  C   UNL     1      26.495  36.442   8.294  1.00  0.00     0.269 C 
ATOM     10  C   UNL     1      26.813  37.372   7.112  1.00  0.00     0.112 C 
ATOM     11  O   UNL     1      25.180  36.108   8.179  1.00  0.00    -0.332 OA
ATOM     12  C   UNL     1      26.188  38.702   7.528  1.00  0.00     0.145 C 
ATOM     13  C   UNL     1      24.777  38.508   8.036  1.00  0.00     0.142 C 
BRANCH   9  14
ATOM     14  O   UNL     1      26.864  37.031   9.485  1.00  0.00    -0.357 OA
ATOM     15  H   UNL     1      27.002  36.327  10.153  1.00  0.00     0.214 HD
ENDBRANCH   9  14
BRANCH   9  16
ATOM     16  C   UNL     1      27.294  35.185   8.060  1.00  0.00     0.364 C 
ATOM     17  O   UNL     1      28.004  35.041   7.044  1.00  0.00    -0.246 OA
BRANCH  16  18
ATOM     18  O   UNL     1      27.250  34.156   8.981  1.00  0.00    -0.477 OA
ATOM     19  H   UNL     1      28.104  33.671   9.203  1.00  0.00     0.296 HD
ENDBRANCH  16  18
ENDBRANCH   9  16
BRANCH  12  20
ATOM     20  O   UNL     1      27.025  39.220   8.518  1.00  0.00    -0.391 OA
ATOM     21  H   UNL     1      27.496  38.480   8.960  1.00  0.00     0.211 HD
ENDBRANCH  12  20
BRANCH  13  22
ATOM     22  N   UNL     1      23.852  39.323   7.228  1.00  0.00    -0.348 N 
ATOM     23  C   UNL     1      23.252  40.509   7.720  1.00  0.00     0.217 C 
ATOM     24  H   UNL     1      23.621  39.016   6.240  1.00  0.00     0.163 HD
ATOM     25  C   UNL     1      22.316  41.361   6.946  1.00  0.00     0.114 C 
ATOM     26  O   UNL     1      23.530  40.867   8.891  1.00  0.00    -0.275 OA
ENDBRANCH  13  22
ENDBRANCH   7   8
BRANCH   7  27
ATOM     27  O   UNL     1      22.963  37.900   9.826  1.00  0.00    -0.388 OA
ATOM     28  H   UNL     1      23.360  37.501  10.637  1.00  0.00     0.211 HD
ENDBRANCH   7  27
ENDBRANCH   6   7
BRANCH   6  29
ATOM     29  O   UNL     1      21.521  35.148   9.266  1.00  0.00    -0.388 OA
ATOM     30  H   UNL     1      20.909  35.601   9.889  1.00  0.00     0.211 HD
ENDBRANCH   6  29
ENDBRANCH   5   6
ENDBRANCH   1   5
BRANCH   2  31
ATOM     31  O   UNL     1      26.724  35.067  11.952  1.00  0.00    -0.443 OA
BRANCH  31  32
ATOM     32  C   UNL     1      27.235  35.382  13.225  1.00  0.00     0.294 C 
BRANCH  32  33
ATOM     33  C   UNL     1      28.662  34.997  13.354  1.00  0.00     0.120 A 
ATOM     34  C   UNL     1      29.320  34.718  14.521  1.00  0.00     0.138 A 
ATOM     35  N   UNL     1      29.541  34.861  12.357  1.00  0.00    -0.132 NA
ATOM     36  N   UNL     1      30.590  34.418  14.200  1.00  0.00    -0.248 N 
ATOM     37  N   UNL     1      30.695  34.515  12.870  1.00  0.00    -0.067 NA
BRANCH  36  38
ATOM     38  C   UNL     1      31.680  34.055  15.070  1.00  0.00     0.181 C 
BRANCH  38  39
ATOM     39  C   UNL     1      31.217  33.160  16.165  1.00  0.00    -0.026 A 
ATOM     40  C   UNL     1      30.770  31.871  15.902  1.00  0.00     0.005 A 
ATOM     41  C   UNL     1      31.210  33.561  17.477  1.00  0.00     0.005 A 
ATOM     42  C   UNL     1      30.344  31.050  16.917  1.00  0.00     0.000 A 
ATOM     43  C   UNL     1      30.783  32.742  18.508  1.00  0.00     0.000 A 
ATOM     44  C   UNL     1      30.343  31.468  18.231  1.00  0.00     0.000 A 
ENDBRANCH  38  39
ENDBRANCH  36  38
ENDBRANCH  32  33
ENDBRANCH  31  32
ENDBRANCH   2  31
TORSDOF 16
BEGIN_RES LYS A 131
REMARK  4 active torsions:
REMARK  status: ('A' for Active; 'I' for Inactive)
REMARK    1  A    between atoms: CA   and  CB  
REMARK    2  A    between atoms: CB   and  CG  
REMARK    3  A    between atoms: CG   and  CD  
REMARK    4  A    between atoms: CD   and  CE  
ROOT
ATOM      1  CA  LYS A 131      29.867  25.555  16.977  1.00 20.52     0.186 C 
ENDROOT
BRANCH   1   2
ATOM      2  CB  LYS A 131      28.345  25.722  17.026  1.00 20.94     0.034 C 
BRANCH   2   3
ATOM      3  CG  LYS A 131      27.601  24.403  16.885  1.00 22.96     0.005 C 
BRANCH   3   4
ATOM      4  CD  LYS A 131      26.150  24.529  17.257  1.00 24.33     0.041 C 
BRANCH   4   5
ATOM      5  CE  LYS A 131      25.646  23.195  17.801  1.00 26.91     0.338 C 
ATOM      6  NZ  LYS A 131      25.567  23.234  19.280  1.00 27.40     0.618 N 
ENDBRANCH   4   5
ENDBRANCH   3   4
ENDBRANCH   2   3
ENDBRANCH   1   2
END_RES LYS A 131
BEGIN_RES LYS A 135
REMARK  4 active torsions:
REMARK  status: ('A' for Active; 'I' for Inactive)
REMARK    5  A    between atoms: CA   and  CB  
REMARK    6  A    between atoms: CB   and  CG  
REMARK    7  A    between atoms: CG   and  CD  
REMARK    8  A    between atoms: CD   and  CE  
ROOT
ATOM      7  CA  LYS A 135      33.193  34.663   9.290  1.00 25.02     0.186 C 
ENDROOT
BRANCH   7   8
ATOM      8  CB  LYS A 135      32.060  35.360  10.034  1.00 26.63     0.034 C 
BRANCH   8   9
ATOM      9  CG  LYS A 135      30.796  35.489   9.223  1.00 29.45     0.005 C 
BRANCH   9  10
ATOM     10  CD  LYS A 135      30.402  36.950   9.073  1.00 32.00     0.041 C 
BRANCH  10  11
ATOM     11  CE  LYS A 135      30.886  37.758  10.262  1.00 34.25     0.338 C 
ATOM     12  NZ  LYS A 135      29.746  38.182  11.122  1.00 35.99     0.618 N 
ENDBRANCH  10  11
ENDBRANCH   9  10
ENDBRANCH   8   9
ENDBRANCH   7   8
END_RES LYS A 135
