REMARK VINA RESULT:    -5.486      3.138      5.357
REMARK INTER + INTRA:         -18.014
REMARK INTER:                 -11.395
REMARK INTRA:                  -6.619
REMARK UNBOUND:                -7.717
REMARK SMILES CC(=O)N[C@@H]1[C@@H](O)C[C@](O)(C(=O)O)O[C@H]1C(O)[C@H](O)CNC(=O)OCc1cn(-c2ccc(-c3c4ccc(=O)cc-4oc4cc(O)ccc34)c(C(=O)[O-])c2)nn1
REMARK SMILES IDX 21 1 22 2 23 3 20 5 18 6 16 7 15 8 9 9 8 10 14 11 6 12 5 13
REMARK SMILES IDX 10 14 11 16 12 17 13 18 7 20 4 22 2 23 1 25 3 26 17 27 19 29
REMARK SMILES IDX 24 31 25 32 26 33 27 34 55 35 28 36 54 37 29 38 53 39 30 40
REMARK SMILES IDX 49 41 31 42 32 43 50 44 51 45 52 46 33 47 48 48 34 49 47 50
REMARK SMILES IDX 42 51 40 52 35 53 46 54 43 55 41 56 39 57 36 58 44 59 37 60
REMARK SMILES IDX 38 61 45 62
REMARK H PARENT 21 4 10 15 13 19 7 21 4 24 17 28 19 30 45 63
REMARK Flexibility Score: inf
ROOT
ATOM      1  N   UNL     1      30.558  38.994  10.940  1.00  0.00    -0.319 N 
ATOM      2  C   UNL     1      30.971  39.478   9.652  1.00  0.00     0.407 C 
ATOM      3  O   UNL     1      32.192  39.769   9.520  1.00  0.00    -0.225 OA
ATOM      4  H   UNL     1      29.566  38.741  11.106  1.00  0.00     0.167 HD
ENDROOT
BRANCH   1   5
ATOM      5  C   UNL     1      31.502  38.851  12.022  1.00  0.00     0.154 C 
BRANCH   5   6
ATOM      6  C   UNL     1      31.367  37.488  12.616  1.00  0.00     0.165 C 
BRANCH   6   7
ATOM      7  C   UNL     1      31.456  37.517  14.141  1.00  0.00     0.176 C 
BRANCH   7   8
ATOM      8  C   UNL     1      30.393  36.616  14.750  1.00  0.00     0.178 C 
ATOM      9  C   UNL     1      30.675  34.308  14.607  1.00  0.00     0.269 C 
ATOM     10  C   UNL     1      29.190  34.057  14.751  1.00  0.00     0.112 C 
ATOM     11  O   UNL     1      31.014  35.491  15.214  1.00  0.00    -0.332 OA
ATOM     12  C   UNL     1      28.404  35.194  14.208  1.00  0.00     0.145 C 
ATOM     13  C   UNL     1      29.244  36.390  13.832  1.00  0.00     0.142 C 
BRANCH   9  14
ATOM     14  O   UNL     1      30.982  34.242  13.272  1.00  0.00    -0.357 OA
ATOM     15  H   UNL     1      30.466  34.843  12.705  1.00  0.00     0.214 HD
ENDBRANCH   9  14
BRANCH   9  16
ATOM     16  C   UNL     1      31.367  33.214  15.330  1.00  0.00     0.364 C 
ATOM     17  O   UNL     1      31.949  33.450  16.417  1.00  0.00    -0.246 OA
BRANCH  16  18
ATOM     18  O   UNL     1      31.411  31.910  14.863  1.00  0.00    -0.477 OA
ATOM     19  H   UNL     1      30.589  31.465  14.427  1.00  0.00     0.296 HD
ENDBRANCH  16  18
ENDBRANCH   9  16
BRANCH  12  20
ATOM     20  O   UNL     1      27.656  34.828  13.092  1.00  0.00    -0.391 OA
ATOM     21  H   UNL     1      28.162  34.305  12.432  1.00  0.00     0.211 HD
ENDBRANCH  12  20
BRANCH  13  22
ATOM     22  N   UNL     1      28.334  37.544  13.866  1.00  0.00    -0.348 N 
ATOM     23  C   UNL     1      27.711  38.077  12.723  1.00  0.00     0.217 C 
ATOM     24  H   UNL     1      28.156  37.975  14.802  1.00  0.00     0.163 HD
ATOM     25  C   UNL     1      26.807  39.244  12.840  1.00  0.00     0.114 C 
ATOM     26  O   UNL     1      27.967  37.507  11.612  1.00  0.00    -0.275 OA
ENDBRANCH  13  22
ENDBRANCH   7   8
BRANCH   7  27
ATOM     27  O   UNL     1      31.251  38.851  14.509  1.00  0.00    -0.388 OA
ATOM     28  H   UNL     1      31.401  38.897  15.491  1.00  0.00     0.211 HD
ENDBRANCH   7  27
ENDBRANCH   6   7
BRANCH   6  29
ATOM     29  O   UNL     1      32.293  36.594  12.084  1.00  0.00    -0.388 OA
ATOM     30  H   UNL     1      31.883  35.736  11.823  1.00  0.00     0.211 HD
ENDBRANCH   6  29
ENDBRANCH   5   6
ENDBRANCH   1   5
BRANCH   2  31
ATOM     31  O   UNL     1      30.118  39.629   8.601  1.00  0.00    -0.443 OA
BRANCH  31  32
ATOM     32  C   UNL     1      30.225  38.837   7.441  1.00  0.00     0.294 C 
BRANCH  32  33
ATOM     33  C   UNL     1      28.997  38.032   7.297  1.00  0.00     0.121 A 
ATOM     34  C   UNL     1      27.893  38.021   8.153  1.00  0.00     0.144 A 
ATOM     35  N   UNL     1      28.702  37.151   6.331  1.00  0.00    -0.131 NA
ATOM     36  N   UNL     1      26.985  37.149   7.677  1.00  0.00    -0.220 N 
ATOM     37  N   UNL     1      27.502  36.641   6.578  1.00  0.00    -0.062 NA
BRANCH  36  38
ATOM     38  C   UNL     1      25.741  36.885   8.306  1.00  0.00     0.067 A 
ATOM     39  C   UNL     1      24.787  37.820   8.575  1.00  0.00     0.039 A 
ATOM     40  C   UNL     1      25.470  35.567   8.684  1.00  0.00     0.029 A 
ATOM     41  C   UNL     1      23.581  37.515   9.197  1.00  0.00     0.007 A 
ATOM     42  C   UNL     1      24.291  35.242   9.296  1.00  0.00     0.012 A 
ATOM     43  C   UNL     1      23.337  36.225   9.555  1.00  0.00    -0.008 A 
BRANCH  41  44
ATOM     44  C   UNL     1      22.581  38.545   9.468  1.00  0.00     0.072 C 
ATOM     45  O   UNL     1      22.562  39.169  10.576  1.00  0.00    -0.545 OA
ATOM     46  O   UNL     1      21.639  38.862   8.528  1.00  0.00    -0.545 OA
ENDBRANCH  41  44
BRANCH  43  47
ATOM     47  C   UNL     1      22.118  35.779  10.211  1.00  0.00     0.004 A 
ATOM     48  C   UNL     1      20.969  35.407   9.548  1.00  0.00     0.026 A 
ATOM     49  C   UNL     1      22.101  35.718  11.594  1.00  0.00     0.026 A 
ATOM     50  C   UNL     1      20.947  35.455   8.168  1.00  0.00     0.016 A 
ATOM     51  C   UNL     1      19.835  34.986  10.232  1.00  0.00     0.139 A 
ATOM     52  C   UNL     1      20.890  35.270  12.264  1.00  0.00     0.139 A 
ATOM     53  C   UNL     1      23.196  36.068  12.352  1.00  0.00     0.016 A 
ATOM     54  C   UNL     1      19.814  35.089   7.455  1.00  0.00     0.047 A 
ATOM     55  C   UNL     1      18.696  34.618   9.554  1.00  0.00     0.093 A 
ATOM     56  O   UNL     1      19.825  34.930  11.542  1.00  0.00    -0.456 OA
ATOM     57  C   UNL     1      20.863  35.206  13.626  1.00  0.00     0.099 A 
ATOM     58  C   UNL     1      23.120  35.987  13.713  1.00  0.00     0.053 A 
ATOM     59  C   UNL     1      18.703  34.676   8.163  1.00  0.00     0.119 A 
ATOM     60  C   UNL     1      21.972  35.561  14.364  1.00  0.00     0.182 A 
ATOM     61  O   UNL     1      21.952  35.503  15.622  1.00  0.00    -0.290 OA
BRANCH  59  62
ATOM     62  O   UNL     1      17.567  34.311   7.461  1.00  0.00    -0.508 OA
ATOM     63  H   UNL     1      17.520  34.237   6.462  1.00  0.00     0.293 HD
ENDBRANCH  59  62
ENDBRANCH  43  47
ENDBRANCH  36  38
ENDBRANCH  32  33
ENDBRANCH  31  32
ENDBRANCH   2  31
TORSDOF 18
BEGIN_RES LYS A 131
REMARK  4 active torsions:
REMARK  status: ('A' for Active; 'I' for Inactive)
REMARK    1  A    between atoms: CA   and  CB  
REMARK    2  A    between atoms: CB   and  CG  
REMARK    3  A    between atoms: CG   and  CD  
REMARK    4  A    between atoms: CD   and  CE  
ROOT
ATOM      1  CA  LYS A 131      29.867  25.555  16.977  1.00 20.52     0.186 C 
ENDROOT
BRANCH   1   2
ATOM      2  CB  LYS A 131      28.345  25.722  17.026  1.00 20.94     0.034 C 
BRANCH   2   3
ATOM      3  CG  LYS A 131      27.602  24.399  16.923  1.00 22.96     0.005 C 
BRANCH   3   4
ATOM      4  CD  LYS A 131      26.514  24.278  17.953  1.00 24.33     0.041 C 
BRANCH   4   5
ATOM      5  CE  LYS A 131      25.232  23.792  17.286  1.00 26.91     0.338 C 
ATOM      6  NZ  LYS A 131      24.246  24.895  17.189  1.00 27.40     0.618 N 
ENDBRANCH   4   5
ENDBRANCH   3   4
ENDBRANCH   2   3
ENDBRANCH   1   2
END_RES LYS A 131
BEGIN_RES LYS A 135
REMARK  4 active torsions:
REMARK  status: ('A' for Active; 'I' for Inactive)
REMARK    5  A    between atoms: CA   and  CB  
REMARK    6  A    between atoms: CB   and  CG  
REMARK    7  A    between atoms: CG   and  CD  
REMARK    8  A    between atoms: CD   and  CE  
ROOT
ATOM      7  CA  LYS A 135      33.193  34.663   9.290  1.00 25.02     0.186 C 
ENDROOT
BRANCH   7   8
ATOM      8  CB  LYS A 135      32.060  35.360  10.034  1.00 26.63     0.034 C 
BRANCH   8   9
ATOM      9  CG  LYS A 135      30.888  35.712   9.154  1.00 29.45     0.005 C 
BRANCH   9  10
ATOM     10  CD  LYS A 135      30.458  34.510   8.328  1.00 32.00     0.041 C 
BRANCH  10  11
ATOM     11  CE  LYS A 135      29.031  34.119   8.661  1.00 34.25     0.338 C 
ATOM     12  NZ  LYS A 135      28.613  34.681   9.975  1.00 35.99     0.618 N 
ENDBRANCH  10  11
ENDBRANCH   9  10
ENDBRANCH   8   9
ENDBRANCH   7   8
END_RES LYS A 135
