REMARK VINA RESULT:    -4.678      9.321     15.040
REMARK INTER + INTRA:         -15.193
REMARK INTER:                  -9.285
REMARK INTRA:                  -5.908
REMARK UNBOUND:                -6.275
REMARK SMILES CC(=O)N[C@@H]1[C@@H](O)C[C@](O)(C(=O)O)O[C@H]1C(O)[C@H](O)CNC(=O)OCc1cn(Cc2ccccc2OC(C)=O)nn1
REMARK SMILES IDX 21 1 22 2 23 3 20 5 18 6 16 7 15 8 9 9 8 10 14 11 6 12 5 13
REMARK SMILES IDX 10 14 11 16 12 17 13 18 7 20 4 22 2 23 1 25 3 26 17 27 19 29
REMARK SMILES IDX 24 31 25 32 26 33 27 34 41 35 28 36 40 37 29 38 30 39 35 40
REMARK SMILES IDX 31 41 34 42 32 43 33 44 36 45 37 46 39 47 38 48
REMARK H PARENT 21 4 10 15 13 19 7 21 4 24 17 28 19 30
REMARK Flexibility Score: inf
ROOT
ATOM      1  N   UNL     1      29.429  27.075  20.179  1.00  0.00    -0.319 N 
ATOM      2  C   UNL     1      28.159  27.644  19.866  1.00  0.00     0.407 C 
ATOM      3  O   UNL     1      27.652  28.442  20.683  1.00  0.00    -0.225 OA
ATOM      4  H   UNL     1      29.840  26.412  19.493  1.00  0.00     0.167 HD
ENDROOT
BRANCH   1   5
ATOM      5  C   UNL     1      30.107  27.407  21.403  1.00  0.00     0.154 C 
BRANCH   5   6
ATOM      6  C   UNL     1      31.534  27.842  21.055  1.00  0.00     0.165 C 
BRANCH   6   7
ATOM      7  C   UNL     1      31.563  29.337  20.891  1.00  0.00     0.176 C 
BRANCH   7   8
ATOM      8  C   UNL     1      32.576  29.917  21.841  1.00  0.00     0.178 C 
ATOM      9  C   UNL     1      34.568  29.384  22.917  1.00  0.00     0.269 C 
ATOM     10  C   UNL     1      33.888  29.335  24.265  1.00  0.00     0.112 C 
ATOM     11  O   UNL     1      33.608  29.044  21.978  1.00  0.00    -0.332 OA
ATOM     12  C   UNL     1      32.825  30.379  24.296  1.00  0.00     0.145 C 
ATOM     13  C   UNL     1      31.915  30.354  23.099  1.00  0.00     0.142 C 
BRANCH   9  14
ATOM     14  O   UNL     1      35.498  28.322  22.926  1.00  0.00    -0.357 OA
ATOM     15  H   UNL     1      35.523  27.870  23.800  1.00  0.00     0.214 HD
ENDBRANCH   9  14
BRANCH   9  16
ATOM     16  C   UNL     1      35.254  30.662  22.643  1.00  0.00     0.364 C 
ATOM     17  O   UNL     1      35.057  31.360  21.619  1.00  0.00    -0.246 OA
BRANCH  16  18
ATOM     18  O   UNL     1      36.173  31.141  23.558  1.00  0.00    -0.477 OA
ATOM     19  H   UNL     1      37.132  30.794  23.635  1.00  0.00     0.296 HD
ENDBRANCH  16  18
ENDBRANCH   9  16
BRANCH  12  20
ATOM     20  O   UNL     1      32.081  30.175  25.479  1.00  0.00    -0.391 OA
ATOM     21  H   UNL     1      32.712  30.218  26.256  1.00  0.00     0.211 HD
ENDBRANCH  12  20
BRANCH  13  22
ATOM     22  N   UNL     1      31.388  31.691  22.906  1.00  0.00    -0.348 N 
ATOM     23  C   UNL     1      30.100  32.076  23.388  1.00  0.00     0.217 C 
ATOM     24  H   UNL     1      31.947  32.414  22.404  1.00  0.00     0.163 HD
ATOM     25  C   UNL     1      29.613  33.456  23.162  1.00  0.00     0.114 C 
ATOM     26  O   UNL     1      29.394  31.245  23.996  1.00  0.00    -0.275 OA
ENDBRANCH  13  22
ENDBRANCH   7   8
BRANCH   7  27
ATOM     27  O   UNL     1      30.305  29.908  21.120  1.00  0.00    -0.388 OA
ATOM     28  H   UNL     1      30.417  30.684  21.716  1.00  0.00     0.211 HD
ENDBRANCH   7  27
ENDBRANCH   6   7
BRANCH   6  29
ATOM     29  O   UNL     1      31.909  27.145  19.928  1.00  0.00    -0.388 OA
ATOM     30  H   UNL     1      31.537  27.501  19.094  1.00  0.00     0.211 HD
ENDBRANCH   6  29
ENDBRANCH   5   6
ENDBRANCH   1   5
BRANCH   2  31
ATOM     31  O   UNL     1      27.523  27.309  18.682  1.00  0.00    -0.443 OA
BRANCH  31  32
ATOM     32  C   UNL     1      26.456  28.071  18.166  1.00  0.00     0.294 C 
BRANCH  32  33
ATOM     33  C   UNL     1      27.006  29.195  17.392  1.00  0.00     0.120 A 
ATOM     34  C   UNL     1      26.916  30.551  17.717  1.00  0.00     0.138 A 
ATOM     35  N   UNL     1      27.698  29.163  16.224  1.00  0.00    -0.132 NA
ATOM     36  N   UNL     1      27.537  31.233  16.761  1.00  0.00    -0.248 N 
ATOM     37  N   UNL     1      28.009  30.391  15.859  1.00  0.00    -0.067 NA
BRANCH  36  38
ATOM     38  C   UNL     1      27.685  32.673  16.705  1.00  0.00     0.185 C 
BRANCH  38  39
ATOM     39  C   UNL     1      29.065  32.929  16.171  1.00  0.00     0.016 A 
ATOM     40  C   UNL     1      30.135  32.737  17.005  1.00  0.00     0.135 A 
ATOM     41  C   UNL     1      29.226  33.346  14.874  1.00  0.00     0.009 A 
ATOM     42  C   UNL     1      31.414  32.959  16.564  1.00  0.00     0.047 A 
ATOM     43  C   UNL     1      30.525  33.576  14.409  1.00  0.00     0.001 A 
ATOM     44  C   UNL     1      31.579  33.378  15.260  1.00  0.00     0.004 A 
BRANCH  40  45
ATOM     45  O   UNL     1      29.930  32.315  18.310  1.00  0.00    -0.426 OA
BRANCH  45  46
ATOM     46  C   UNL     1      30.393  33.141  19.333  1.00  0.00     0.308 C 
ATOM     47  O   UNL     1      31.289  32.725  20.105  1.00  0.00    -0.252 OA
ATOM     48  C   UNL     1      29.840  34.504  19.519  1.00  0.00     0.139 C 
ENDBRANCH  45  46
ENDBRANCH  40  45
ENDBRANCH  38  39
ENDBRANCH  36  38
ENDBRANCH  32  33
ENDBRANCH  31  32
ENDBRANCH   2  31
TORSDOF 18
BEGIN_RES LYS A 131
REMARK  4 active torsions:
REMARK  status: ('A' for Active; 'I' for Inactive)
REMARK    1  A    between atoms: CA   and  CB  
REMARK    2  A    between atoms: CB   and  CG  
REMARK    3  A    between atoms: CG   and  CD  
REMARK    4  A    between atoms: CD   and  CE  
ROOT
ATOM      1  CA  LYS A 131      29.867  25.555  16.977  1.00 20.52     0.186 C 
ENDROOT
BRANCH   1   2
ATOM      2  CB  LYS A 131      28.345  25.722  17.026  1.00 20.94     0.034 C 
BRANCH   2   3
ATOM      3  CG  LYS A 131      27.599  24.433  16.718  1.00 22.96     0.005 C 
BRANCH   3   4
ATOM      4  CD  LYS A 131      26.735  23.991  17.867  1.00 24.33     0.041 C 
BRANCH   4   5
ATOM      5  CE  LYS A 131      25.313  23.747  17.370  1.00 26.91     0.338 C 
ATOM      6  NZ  LYS A 131      24.603  25.034  17.178  1.00 27.40     0.618 N 
ENDBRANCH   4   5
ENDBRANCH   3   4
ENDBRANCH   2   3
ENDBRANCH   1   2
END_RES LYS A 131
BEGIN_RES LYS A 135
REMARK  4 active torsions:
REMARK  status: ('A' for Active; 'I' for Inactive)
REMARK    5  A    between atoms: CA   and  CB  
REMARK    6  A    between atoms: CB   and  CG  
REMARK    7  A    between atoms: CG   and  CD  
REMARK    8  A    between atoms: CD   and  CE  
ROOT
ATOM      7  CA  LYS A 135      33.193  34.663   9.290  1.00 25.02     0.186 C 
ENDROOT
BRANCH   7   8
ATOM      8  CB  LYS A 135      32.060  35.360  10.034  1.00 26.63     0.034 C 
BRANCH   8   9
ATOM      9  CG  LYS A 135      30.700  34.782   9.739  1.00 29.45     0.005 C 
BRANCH   9  10
ATOM     10  CD  LYS A 135      29.792  34.898  10.954  1.00 32.00     0.041 C 
BRANCH  10  11
ATOM     11  CE  LYS A 135      28.378  34.478  10.604  1.00 34.25     0.338 C 
ATOM     12  NZ  LYS A 135      28.310  33.916   9.227  1.00 35.99     0.618 N 
ENDBRANCH  10  11
ENDBRANCH   9  10
ENDBRANCH   8   9
ENDBRANCH   7   8
END_RES LYS A 135
