REMARK VINA RESULT:    -4.851      5.506     10.183
REMARK INTER + INTRA:         -13.421
REMARK INTER:                  -8.481
REMARK INTRA:                  -4.940
REMARK UNBOUND:                -5.026
REMARK SMILES CC(=O)N[C@@H]1[C@@H](O)C[C@](O)(C(=O)O)O[C@H]1C(O)[C@H](O)CNC(=O)OCc1cn(C2CCCC2)nn1
REMARK SMILES IDX 20 1 18 2 16 3 15 4 9 5 8 6 14 7 6 8 5 9 10 10 11 12 12 13
REMARK SMILES IDX 13 14 7 16 4 18 2 19 1 21 3 22 17 23 19 25 21 27 22 28 23 30
REMARK SMILES IDX 24 31 25 32 26 33 27 34 35 35 28 36 34 37 29 38 30 39 33 40
REMARK SMILES IDX 31 41 32 42
REMARK H PARENT 10 11 13 15 7 17 4 20 17 24 19 26 21 29
REMARK Flexibility Score: inf
ROOT
ATOM      1  C   UNL     1      25.960  37.854  11.243  1.00  0.00     0.154 C 
ENDROOT
BRANCH   1   2
ATOM      2  C   UNL     1      25.638  36.453  10.805  1.00  0.00     0.165 C 
BRANCH   2   3
ATOM      3  C   UNL     1      25.125  36.557   9.382  1.00  0.00     0.176 C 
BRANCH   3   4
ATOM      4  C   UNL     1      23.651  36.801   9.319  1.00  0.00     0.178 C 
ATOM      5  C   UNL     1      21.634  35.665   9.427  1.00  0.00     0.269 C 
ATOM      6  C   UNL     1      21.122  37.079   9.203  1.00  0.00     0.112 C 
ATOM      7  O   UNL     1      22.982  35.627   9.067  1.00  0.00    -0.332 OA
ATOM      8  C   UNL     1      21.805  37.602   7.956  1.00  0.00     0.145 C 
ATOM      9  C   UNL     1      23.255  37.868   8.338  1.00  0.00     0.142 C 
BRANCH   5  10
ATOM     10  O   UNL     1      20.878  34.835   8.608  1.00  0.00    -0.357 OA
ATOM     11  H   UNL     1      20.678  34.004   9.139  1.00  0.00     0.214 HD
ENDBRANCH   5  10
BRANCH   5  12
ATOM     12  C   UNL     1      21.472  35.233  10.821  1.00  0.00     0.364 C 
ATOM     13  O   UNL     1      20.662  35.803  11.595  1.00  0.00    -0.246 OA
BRANCH  12  14
ATOM     14  O   UNL     1      22.213  34.178  11.326  1.00  0.00    -0.477 OA
ATOM     15  H   UNL     1      23.200  34.030  11.078  1.00  0.00     0.296 HD
ENDBRANCH  12  14
ENDBRANCH   5  12
BRANCH   8  16
ATOM     16  O   UNL     1      21.754  36.571   7.003  1.00  0.00    -0.391 OA
ATOM     17  H   UNL     1      22.685  36.253   6.872  1.00  0.00     0.211 HD
ENDBRANCH   8  16
BRANCH   9  18
ATOM     18  N   UNL     1      23.349  39.198   8.906  1.00  0.00    -0.348 N 
ATOM     19  C   UNL     1      23.946  40.255   8.185  1.00  0.00     0.217 C 
ATOM     20  H   UNL     1      22.974  39.385   9.853  1.00  0.00     0.163 HD
ATOM     21  C   UNL     1      24.075  41.639   8.705  1.00  0.00     0.114 C 
ATOM     22  O   UNL     1      24.393  40.011   7.041  1.00  0.00    -0.275 OA
ENDBRANCH   9  18
ENDBRANCH   3   4
BRANCH   3  23
ATOM     23  O   UNL     1      25.766  37.658   8.810  1.00  0.00    -0.388 OA
ATOM     24  H   UNL     1      26.702  37.750   9.077  1.00  0.00     0.211 HD
ENDBRANCH   3  23
ENDBRANCH   2   3
BRANCH   2  25
ATOM     25  O   UNL     1      24.684  35.866  11.603  1.00  0.00    -0.388 OA
ATOM     26  H   UNL     1      25.034  35.789  12.531  1.00  0.00     0.211 HD
ENDBRANCH   2  25
ENDBRANCH   1   2
BRANCH   1  27
ATOM     27  N   UNL     1      27.316  38.268  11.066  1.00  0.00    -0.319 N 
ATOM     28  C   UNL     1      27.745  39.493  10.543  1.00  0.00     0.407 C 
ATOM     29  H   UNL     1      28.065  37.565  11.365  1.00  0.00     0.167 HD
ATOM     30  O   UNL     1      26.908  40.347  10.171  1.00  0.00    -0.225 OA
BRANCH  28  31
ATOM     31  O   UNL     1      29.119  39.776  10.432  1.00  0.00    -0.443 OA
BRANCH  31  32
ATOM     32  C   UNL     1      29.654  39.889   9.126  1.00  0.00     0.294 C 
BRANCH  32  33
ATOM     33  C   UNL     1      29.162  38.748   8.323  1.00  0.00     0.120 A 
ATOM     34  C   UNL     1      29.595  37.440   8.498  1.00  0.00     0.138 A 
ATOM     35  N   UNL     1      28.274  38.709   7.336  1.00  0.00    -0.132 NA
ATOM     36  N   UNL     1      28.950  36.679   7.614  1.00  0.00    -0.249 N 
ATOM     37  N   UNL     1      28.152  37.461   6.914  1.00  0.00    -0.067 NA
BRANCH  36  38
ATOM     38  C   UNL     1      29.144  35.238   7.494  1.00  0.00     0.109 C 
ATOM     39  C   UNL     1      30.412  34.888   8.220  1.00  0.00     0.027 C 
ATOM     40  C   UNL     1      28.012  34.533   8.209  1.00  0.00     0.027 C 
ATOM     41  C   UNL     1      30.052  33.860   9.244  1.00  0.00     0.002 C 
ATOM     42  C   UNL     1      28.606  34.141   9.550  1.00  0.00     0.002 C 
ENDBRANCH  36  38
ENDBRANCH  32  33
ENDBRANCH  31  32
ENDBRANCH  28  31
ENDBRANCH   1  27
TORSDOF 15
BEGIN_RES LYS A 131
REMARK  4 active torsions:
REMARK  status: ('A' for Active; 'I' for Inactive)
REMARK    1  A    between atoms: CA   and  CB  
REMARK    2  A    between atoms: CB   and  CG  
REMARK    3  A    between atoms: CG   and  CD  
REMARK    4  A    between atoms: CD   and  CE  
ROOT
ATOM      1  CA  LYS A 131      29.867  25.555  16.977  1.00 20.52     0.186 C 
ENDROOT
BRANCH   1   2
ATOM      2  CB  LYS A 131      28.345  25.722  17.026  1.00 20.94     0.034 C 
BRANCH   2   3
ATOM      3  CG  LYS A 131      27.599  24.427  16.741  1.00 22.96     0.005 C 
BRANCH   3   4
ATOM      4  CD  LYS A 131      26.936  23.874  17.972  1.00 24.33     0.041 C 
BRANCH   4   5
ATOM      5  CE  LYS A 131      25.600  23.244  17.590  1.00 26.91     0.338 C 
ATOM      6  NZ  LYS A 131      24.742  24.231  16.892  1.00 27.40     0.618 N 
ENDBRANCH   4   5
ENDBRANCH   3   4
ENDBRANCH   2   3
ENDBRANCH   1   2
END_RES LYS A 131
BEGIN_RES LYS A 135
REMARK  4 active torsions:
REMARK  status: ('A' for Active; 'I' for Inactive)
REMARK    5  A    between atoms: CA   and  CB  
REMARK    6  A    between atoms: CB   and  CG  
REMARK    7  A    between atoms: CG   and  CD  
REMARK    8  A    between atoms: CD   and  CE  
ROOT
ATOM      7  CA  LYS A 135      33.193  34.663   9.290  1.00 25.02     0.186 C 
ENDROOT
BRANCH   7   8
ATOM      8  CB  LYS A 135      32.060  35.360  10.034  1.00 26.63     0.034 C 
BRANCH   8   9
ATOM      9  CG  LYS A 135      32.510  36.082  11.277  1.00 29.45     0.005 C 
BRANCH   9  10
ATOM     10  CD  LYS A 135      31.729  35.601  12.490  1.00 32.00     0.041 C 
BRANCH  10  11
ATOM     11  CE  LYS A 135      32.616  35.578  13.720  1.00 34.25     0.338 C 
ATOM     12  NZ  LYS A 135      32.255  36.673  14.663  1.00 35.99     0.618 N 
ENDBRANCH  10  11
ENDBRANCH   9  10
ENDBRANCH   8   9
ENDBRANCH   7   8
END_RES LYS A 135
