REMARK VINA RESULT:    -4.199      4.191      8.166
REMARK INTER + INTRA:         -14.050
REMARK INTER:                  -7.288
REMARK INTRA:                  -6.762
REMARK UNBOUND:                -6.292
REMARK SMILES CC(=O)N[C@@H]1[C@@H](O)C[C@](O)(C(=O)O)O[C@H]1C(O)[C@H](O)CNC(=O)OCc1cn(CCC2OCCO2)nn1
REMARK SMILES IDX 21 1 22 2 23 3 20 5 18 6 16 7 15 8 9 9 8 10 14 11 6 12 5 13
REMARK SMILES IDX 10 14 11 16 12 17 13 18 7 20 4 22 2 23 1 25 3 26 17 27 19 29
REMARK SMILES IDX 24 31 25 32 26 33 27 34 37 35 28 36 36 37 29 38 30 39 31 40
REMARK SMILES IDX 32 41 35 42 33 43 34 44
REMARK H PARENT 21 4 10 15 13 19 7 21 4 24 17 28 19 30
REMARK Flexibility Score: inf
ROOT
ATOM      1  N   UNL     1      31.906  37.647  18.418  1.00  0.00    -0.319 N 
ATOM      2  C   UNL     1      31.960  36.240  18.566  1.00  0.00     0.407 C 
ATOM      3  O   UNL     1      31.124  35.515  17.927  1.00  0.00    -0.225 OA
ATOM      4  H   UNL     1      32.578  38.242  18.930  1.00  0.00     0.167 HD
ENDROOT
BRANCH   1   5
ATOM      5  C   UNL     1      30.926  38.230  17.564  1.00  0.00     0.154 C 
BRANCH   5   6
ATOM      6  C   UNL     1      31.502  38.887  16.340  1.00  0.00     0.165 C 
BRANCH   6   7
ATOM      7  C   UNL     1      30.839  38.448  15.069  1.00  0.00     0.176 C 
BRANCH   7   8
ATOM      8  C   UNL     1      31.070  36.972  14.833  1.00  0.00     0.178 C 
ATOM      9  C   UNL     1      32.285  35.558  13.442  1.00  0.00     0.269 C 
ATOM     10  C   UNL     1      31.082  34.665  13.362  1.00  0.00     0.112 C 
ATOM     11  O   UNL     1      32.025  36.837  13.860  1.00  0.00    -0.332 OA
ATOM     12  C   UNL     1      29.867  35.550  13.181  1.00  0.00     0.145 C 
ATOM     13  C   UNL     1      29.725  36.367  14.458  1.00  0.00     0.142 C 
BRANCH   9  14
ATOM     14  O   UNL     1      32.811  35.660  12.133  1.00  0.00    -0.357 OA
ATOM     15  H   UNL     1      33.729  35.330  12.083  1.00  0.00     0.214 HD
ENDBRANCH   9  14
BRANCH   9  16
ATOM     16  C   UNL     1      33.364  34.897  14.243  1.00  0.00     0.364 C 
ATOM     17  O   UNL     1      34.453  34.510  13.763  1.00  0.00    -0.246 OA
BRANCH  16  18
ATOM     18  O   UNL     1      33.122  34.711  15.596  1.00  0.00    -0.477 OA
ATOM     19  H   UNL     1      32.208  34.504  15.986  1.00  0.00     0.296 HD
ENDBRANCH  16  18
ENDBRANCH   9  16
BRANCH  12  20
ATOM     20  O   UNL     1      30.120  36.431  12.119  1.00  0.00    -0.391 OA
ATOM     21  H   UNL     1      30.794  37.112  12.353  1.00  0.00     0.211 HD
ENDBRANCH  12  20
BRANCH  13  22
ATOM     22  N   UNL     1      29.227  35.488  15.504  1.00  0.00    -0.348 N 
ATOM     23  C   UNL     1      28.020  35.821  16.170  1.00  0.00     0.217 C 
ATOM     24  H   UNL     1      29.753  34.607  15.771  1.00  0.00     0.163 HD
ATOM     25  C   UNL     1      27.431  34.990  17.250  1.00  0.00     0.114 C 
ATOM     26  O   UNL     1      27.425  36.880  15.818  1.00  0.00    -0.275 OA
ENDBRANCH  13  22
ENDBRANCH   7   8
BRANCH   7  27
ATOM     27  O   UNL     1      29.485  38.785  15.063  1.00  0.00    -0.388 OA
ATOM     28  H   UNL     1      29.004  38.476  14.266  1.00  0.00     0.211 HD
ENDBRANCH   7  27
ENDBRANCH   6   7
BRANCH   6  29
ATOM     29  O   UNL     1      32.860  38.610  16.276  1.00  0.00    -0.388 OA
ATOM     30  H   UNL     1      33.235  38.674  15.379  1.00  0.00     0.211 HD
ENDBRANCH   6  29
ENDBRANCH   5   6
ENDBRANCH   1   5
BRANCH   2  31
ATOM     31  O   UNL     1      32.855  35.578  19.357  1.00  0.00    -0.443 OA
BRANCH  31  32
ATOM     32  C   UNL     1      34.152  36.025  19.704  1.00  0.00     0.294 C 
BRANCH  32  33
ATOM     33  C   UNL     1      35.087  35.993  18.555  1.00  0.00     0.120 A 
ATOM     34  C   UNL     1      36.414  35.631  18.587  1.00  0.00     0.138 A 
ATOM     35  N   UNL     1      34.821  36.312  17.279  1.00  0.00    -0.132 NA
ATOM     36  N   UNL     1      36.912  35.739  17.337  1.00  0.00    -0.252 N 
ATOM     37  N   UNL     1      35.925  36.154  16.564  1.00  0.00    -0.067 NA
BRANCH  36  38
ATOM     38  C   UNL     1      38.264  35.461  16.869  1.00  0.00     0.151 C 
BRANCH  38  39
ATOM     39  C   UNL     1      38.310  34.140  16.132  1.00  0.00     0.086 C 
BRANCH  39  40
ATOM     40  C   UNL     1      38.277  34.342  14.655  1.00  0.00     0.251 C 
ATOM     41  O   UNL     1      37.661  33.314  13.953  1.00  0.00    -0.350 OA
ATOM     42  O   UNL     1      39.524  34.527  14.077  1.00  0.00    -0.350 OA
ATOM     43  C   UNL     1      38.150  33.380  12.651  1.00  0.00     0.192 C 
ATOM     44  C   UNL     1      39.447  34.126  12.764  1.00  0.00     0.192 C 
ENDBRANCH  39  40
ENDBRANCH  38  39
ENDBRANCH  36  38
ENDBRANCH  32  33
ENDBRANCH  31  32
ENDBRANCH   2  31
TORSDOF 17
BEGIN_RES LYS A 131
REMARK  4 active torsions:
REMARK  status: ('A' for Active; 'I' for Inactive)
REMARK    1  A    between atoms: CA   and  CB  
REMARK    2  A    between atoms: CB   and  CG  
REMARK    3  A    between atoms: CG   and  CD  
REMARK    4  A    between atoms: CD   and  CE  
ROOT
ATOM      1  CA  LYS A 131      29.867  25.555  16.977  1.00 20.52     0.186 C 
ENDROOT
BRANCH   1   2
ATOM      2  CB  LYS A 131      28.345  25.722  17.026  1.00 20.94     0.034 C 
BRANCH   2   3
ATOM      3  CG  LYS A 131      27.601  24.403  16.888  1.00 22.96     0.005 C 
BRANCH   3   4
ATOM      4  CD  LYS A 131      26.612  24.191  18.001  1.00 24.33     0.041 C 
BRANCH   4   5
ATOM      5  CE  LYS A 131      25.328  24.954  17.692  1.00 26.91     0.338 C 
ATOM      6  NZ  LYS A 131      24.439  24.145  16.825  1.00 27.40     0.618 N 
ENDBRANCH   4   5
ENDBRANCH   3   4
ENDBRANCH   2   3
ENDBRANCH   1   2
END_RES LYS A 131
BEGIN_RES LYS A 135
REMARK  4 active torsions:
REMARK  status: ('A' for Active; 'I' for Inactive)
REMARK    5  A    between atoms: CA   and  CB  
REMARK    6  A    between atoms: CB   and  CG  
REMARK    7  A    between atoms: CG   and  CD  
REMARK    8  A    between atoms: CD   and  CE  
ROOT
ATOM      7  CA  LYS A 135      33.193  34.663   9.290  1.00 25.02     0.186 C 
ENDROOT
BRANCH   7   8
ATOM      8  CB  LYS A 135      32.060  35.360  10.034  1.00 26.63     0.034 C 
BRANCH   8   9
ATOM      9  CG  LYS A 135      30.855  35.638   9.173  1.00 29.45     0.005 C 
BRANCH   9  10
ATOM     10  CD  LYS A 135      30.283  34.344   8.616  1.00 32.00     0.041 C 
BRANCH  10  11
ATOM     11  CE  LYS A 135      28.771  34.426   8.523  1.00 34.25     0.338 C 
ATOM     12  NZ  LYS A 135      28.123  33.705   9.653  1.00 35.99     0.618 N 
ENDBRANCH  10  11
ENDBRANCH   9  10
ENDBRANCH   8   9
ENDBRANCH   7   8
END_RES LYS A 135
