REMARK VINA RESULT:    -4.572      1.754      2.459
REMARK INTER + INTRA:         -14.468
REMARK INTER:                  -8.548
REMARK INTRA:                  -5.920
REMARK UNBOUND:                -6.554
REMARK SMILES CC(=O)N[C@@H]1[C@@H](O)C[C@](O)(C(=O)O)O[C@H]1C(O)[C@H](O)CNC(=O)OCc1cn(C23CC4CC(CC(C4)C2)C3)nn1
REMARK SMILES IDX 20 1 18 2 16 3 15 4 9 5 8 6 14 7 6 8 5 9 10 10 11 12 12 13
REMARK SMILES IDX 13 14 7 16 4 18 2 19 1 21 3 22 17 23 19 25 21 27 22 28 23 30
REMARK SMILES IDX 24 31 25 32 26 33 27 34 40 35 28 36 39 37 29 38 38 39 37 40
REMARK SMILES IDX 30 41 33 42 35 43 31 44 32 45 34 46 36 47
REMARK H PARENT 10 11 13 15 7 17 4 20 17 24 19 26 21 29
REMARK Flexibility Score: inf
ROOT
ATOM      1  C   UNL     1      27.894  27.698  19.756  1.00  0.00     0.154 C 
ENDROOT
BRANCH   1   2
ATOM      2  C   UNL     1      28.948  27.813  20.827  1.00  0.00     0.165 C 
BRANCH   2   3
ATOM      3  C   UNL     1      29.817  29.043  20.661  1.00  0.00     0.176 C 
BRANCH   3   4
ATOM      4  C   UNL     1      30.193  29.612  22.033  1.00  0.00     0.178 C 
ATOM      5  C   UNL     1      31.018  31.805  21.921  1.00  0.00     0.269 C 
ATOM      6  C   UNL     1      32.315  31.192  21.458  1.00  0.00     0.112 C 
ATOM      7  O   UNL     1      29.990  30.952  22.129  1.00  0.00    -0.332 OA
ATOM      8  C   UNL     1      32.665  30.040  22.333  1.00  0.00     0.145 C 
ATOM      9  C   UNL     1      31.499  29.109  22.527  1.00  0.00     0.142 C 
BRANCH   5  10
ATOM     10  O   UNL     1      30.634  32.674  20.874  1.00  0.00    -0.357 OA
ATOM     11  H   UNL     1      30.605  32.126  20.046  1.00  0.00     0.214 HD
ENDBRANCH   5  10
BRANCH   5  12
ATOM     12  C   UNL     1      31.335  32.662  23.091  1.00  0.00     0.364 C 
ATOM     13  O   UNL     1      32.089  33.669  23.003  1.00  0.00    -0.246 OA
BRANCH  12  14
ATOM     14  O   UNL     1      30.798  32.364  24.325  1.00  0.00    -0.477 OA
ATOM     15  H   UNL     1      29.847  32.626  24.591  1.00  0.00     0.296 HD
ENDBRANCH  12  14
ENDBRANCH   5  12
BRANCH   8  16
ATOM     16  O   UNL     1      33.772  29.384  21.748  1.00  0.00    -0.391 OA
ATOM     17  H   UNL     1      34.479  30.034  21.551  1.00  0.00     0.211 HD
ENDBRANCH   8  16
BRANCH   9  18
ATOM     18  N   UNL     1      31.364  28.783  23.941  1.00  0.00    -0.348 N 
ATOM     19  C   UNL     1      31.074  27.469  24.395  1.00  0.00     0.217 C 
ATOM     20  H   UNL     1      31.486  29.547  24.668  1.00  0.00     0.163 HD
ATOM     21  C   UNL     1      30.956  27.230  25.840  1.00  0.00     0.114 C 
ATOM     22  O   UNL     1      30.927  26.555  23.528  1.00  0.00    -0.275 OA
ENDBRANCH   9  18
ENDBRANCH   3   4
BRANCH   3  23
ATOM     23  O   UNL     1      30.901  28.840  19.862  1.00  0.00    -0.388 OA
ATOM     24  H   UNL     1      31.347  27.983  19.931  1.00  0.00     0.211 HD
ENDBRANCH   3  23
ENDBRANCH   2   3
BRANCH   2  25
ATOM     25  O   UNL     1      29.697  26.640  20.811  1.00  0.00    -0.388 OA
ATOM     26  H   UNL     1      30.445  26.752  20.141  1.00  0.00     0.211 HD
ENDBRANCH   2  25
ENDBRANCH   1   2
BRANCH   1  27
ATOM     27  N   UNL     1      28.129  28.775  18.810  1.00  0.00    -0.319 N 
ATOM     28  C   UNL     1      27.359  28.908  17.604  1.00  0.00     0.407 C 
ATOM     29  H   UNL     1      28.863  29.509  18.947  1.00  0.00     0.167 HD
ATOM     30  O   UNL     1      26.464  28.053  17.393  1.00  0.00    -0.225 OA
BRANCH  28  31
ATOM     31  O   UNL     1      27.569  29.921  16.701  1.00  0.00    -0.443 OA
BRANCH  31  32
ATOM     32  C   UNL     1      27.355  31.256  17.100  1.00  0.00     0.294 C 
BRANCH  32  33
ATOM     33  C   UNL     1      28.702  31.892  17.262  1.00  0.00     0.120 A 
ATOM     34  C   UNL     1      29.200  32.875  16.429  1.00  0.00     0.138 A 
ATOM     35  N   UNL     1      29.654  31.676  18.166  1.00  0.00    -0.132 NA
ATOM     36  N   UNL     1      30.410  33.204  16.858  1.00  0.00    -0.246 N 
ATOM     37  N   UNL     1      30.675  32.467  17.916  1.00  0.00    -0.066 NA
BRANCH  36  38
ATOM     38  C   UNL     1      31.266  34.215  16.233  1.00  0.00     0.065 C 
ATOM     39  C   UNL     1      30.329  35.234  15.598  1.00  0.00     0.034 C 
ATOM     40  C   UNL     1      32.149  33.599  15.193  1.00  0.00     0.034 C 
ATOM     41  C   UNL     1      32.127  34.862  17.289  1.00  0.00     0.034 C 
ATOM     42  C   UNL     1      31.152  36.331  14.952  1.00  0.00    -0.008 C 
ATOM     43  C   UNL     1      32.925  34.706  14.514  1.00  0.00    -0.008 C 
ATOM     44  C   UNL     1      32.938  35.967  16.648  1.00  0.00    -0.008 C 
ATOM     45  C   UNL     1      31.998  36.975  16.012  1.00  0.00     0.007 C 
ATOM     46  C   UNL     1      31.996  35.695  13.876  1.00  0.00     0.007 C 
ATOM     47  C   UNL     1      33.794  35.356  15.565  1.00  0.00     0.007 C 
ENDBRANCH  36  38
ENDBRANCH  32  33
ENDBRANCH  31  32
ENDBRANCH  28  31
ENDBRANCH   1  27
TORSDOF 15
BEGIN_RES LYS A 131
REMARK  4 active torsions:
REMARK  status: ('A' for Active; 'I' for Inactive)
REMARK    1  A    between atoms: CA   and  CB  
REMARK    2  A    between atoms: CB   and  CG  
REMARK    3  A    between atoms: CG   and  CD  
REMARK    4  A    between atoms: CD   and  CE  
ROOT
ATOM      1  CA  LYS A 131      29.867  25.555  16.977  1.00 20.52     0.186 C 
ENDROOT
BRANCH   1   2
ATOM      2  CB  LYS A 131      28.345  25.722  17.026  1.00 20.94     0.034 C 
BRANCH   2   3
ATOM      3  CG  LYS A 131      27.599  24.437  16.701  1.00 22.96     0.005 C 
BRANCH   3   4
ATOM      4  CD  LYS A 131      27.023  23.791  17.931  1.00 24.33     0.041 C 
BRANCH   4   5
ATOM      5  CE  LYS A 131      25.857  24.628  18.447  1.00 26.91     0.338 C 
ATOM      6  NZ  LYS A 131      24.818  24.772  17.399  1.00 27.40     0.618 N 
ENDBRANCH   4   5
ENDBRANCH   3   4
ENDBRANCH   2   3
ENDBRANCH   1   2
END_RES LYS A 131
BEGIN_RES LYS A 135
REMARK  4 active torsions:
REMARK  status: ('A' for Active; 'I' for Inactive)
REMARK    5  A    between atoms: CA   and  CB  
REMARK    6  A    between atoms: CB   and  CG  
REMARK    7  A    between atoms: CG   and  CD  
REMARK    8  A    between atoms: CD   and  CE  
ROOT
ATOM      7  CA  LYS A 135      33.193  34.663   9.290  1.00 25.02     0.186 C 
ENDROOT
BRANCH   7   8
ATOM      8  CB  LYS A 135      32.060  35.360  10.034  1.00 26.63     0.034 C 
BRANCH   8   9
ATOM      9  CG  LYS A 135      30.713  34.722   9.814  1.00 29.45     0.005 C 
BRANCH   9  10
ATOM     10  CD  LYS A 135      30.481  34.453   8.335  1.00 32.00     0.041 C 
BRANCH  10  11
ATOM     11  CE  LYS A 135      29.099  34.920   7.919  1.00 34.25     0.338 C 
ATOM     12  NZ  LYS A 135      28.538  35.883   8.906  1.00 35.99     0.618 N 
ENDBRANCH  10  11
ENDBRANCH   9  10
ENDBRANCH   8   9
ENDBRANCH   7   8
END_RES LYS A 135
