REMARK VINA RESULT:    -5.122      4.359      8.729
REMARK INTER + INTRA:         -14.893
REMARK INTER:                  -8.090
REMARK INTRA:                  -6.803
REMARK UNBOUND:                -5.578
REMARK SMILES CC(=O)N[C@@H]1[C@@H](O)C[C@](O)(C(=O)O)O[C@H]1C(O)[C@H](O)CNC(=O)OCc1cn(C(C)(C)C(=O)O)nn1
REMARK SMILES IDX 21 1 22 2 23 3 20 5 18 6 16 7 15 8 9 9 8 10 14 11 6 12 5 13
REMARK SMILES IDX 10 14 11 16 12 17 13 18 7 20 4 22 2 23 1 25 3 26 17 27 19 29
REMARK SMILES IDX 24 31 25 32 26 33 27 34 36 35 28 36 35 37 29 38 30 39 31 40
REMARK SMILES IDX 32 41 33 42 34 43
REMARK H PARENT 21 4 10 15 13 19 7 21 4 24 17 28 19 30 34 44
REMARK Flexibility Score: inf
ROOT
ATOM      1  N   UNL     1      29.710  31.959  21.426  1.00  0.00    -0.319 N 
ATOM      2  C   UNL     1      30.538  31.652  20.321  1.00  0.00     0.407 C 
ATOM      3  O   UNL     1      30.725  30.439  19.964  1.00  0.00    -0.225 OA
ATOM      4  H   UNL     1      29.562  32.947  21.706  1.00  0.00     0.167 HD
ENDROOT
BRANCH   1   5
ATOM      5  C   UNL     1      29.089  30.866  22.129  1.00  0.00     0.154 C 
BRANCH   5   6
ATOM      6  C   UNL     1      27.604  30.915  22.197  1.00  0.00     0.165 C 
BRANCH   6   7
ATOM      7  C   UNL     1      26.933  29.683  21.643  1.00  0.00     0.176 C 
BRANCH   7   8
ATOM      8  C   UNL     1      27.544  29.395  20.267  1.00  0.00     0.178 C 
ATOM      9  C   UNL     1      26.972  29.656  18.027  1.00  0.00     0.269 C 
ATOM     10  C   UNL     1      27.394  28.235  17.723  1.00  0.00     0.112 C 
ATOM     11  O   UNL     1      26.616  29.855  19.340  1.00  0.00    -0.332 OA
ATOM     12  C   UNL     1      27.102  27.350  18.899  1.00  0.00     0.145 C 
ATOM     13  C   UNL     1      27.797  27.909  20.124  1.00  0.00     0.142 C 
BRANCH   9  14
ATOM     14  O   UNL     1      25.816  29.889  17.265  1.00  0.00    -0.357 OA
ATOM     15  H   UNL     1      25.759  30.832  17.025  1.00  0.00     0.214 HD
ENDBRANCH   9  14
BRANCH   9  16
ATOM     16  C   UNL     1      28.008  30.614  17.585  1.00  0.00     0.364 C 
ATOM     17  O   UNL     1      27.725  31.820  17.443  1.00  0.00    -0.246 OA
BRANCH  16  18
ATOM     18  O   UNL     1      29.310  30.217  17.315  1.00  0.00    -0.477 OA
ATOM     19  H   UNL     1      30.099  30.837  17.429  1.00  0.00     0.296 HD
ENDBRANCH  16  18
ENDBRANCH   9  16
BRANCH  12  20
ATOM     20  O   UNL     1      25.759  27.142  19.105  1.00  0.00    -0.391 OA
ATOM     21  H   UNL     1      25.170  27.569  18.445  1.00  0.00     0.211 HD
ENDBRANCH  12  20
BRANCH  13  22
ATOM     22  N   UNL     1      29.223  27.638  19.954  1.00  0.00    -0.348 N 
ATOM     23  C   UNL     1      30.044  27.275  21.057  1.00  0.00     0.217 C 
ATOM     24  H   UNL     1      29.659  27.709  19.011  1.00  0.00     0.163 HD
ATOM     25  C   UNL     1      31.502  26.995  20.899  1.00  0.00     0.114 C 
ATOM     26  O   UNL     1      29.464  27.203  22.186  1.00  0.00    -0.275 OA
ENDBRANCH  13  22
ENDBRANCH   7   8
BRANCH   7  27
ATOM     27  O   UNL     1      26.978  28.582  22.452  1.00  0.00    -0.388 OA
ATOM     28  H   UNL     1      27.643  27.940  22.135  1.00  0.00     0.211 HD
ENDBRANCH   7  27
ENDBRANCH   6   7
BRANCH   6  29
ATOM     29  O   UNL     1      27.215  32.032  21.415  1.00  0.00    -0.388 OA
ATOM     30  H   UNL     1      26.397  32.434  21.829  1.00  0.00     0.211 HD
ENDBRANCH   6  29
ENDBRANCH   5   6
ENDBRANCH   1   5
BRANCH   2  31
ATOM     31  O   UNL     1      31.191  32.603  19.564  1.00  0.00    -0.443 OA
BRANCH  31  32
ATOM     32  C   UNL     1      30.464  33.590  18.810  1.00  0.00     0.294 C 
BRANCH  32  33
ATOM     33  C   UNL     1      31.016  33.597  17.431  1.00  0.00     0.120 A 
ATOM     34  C   UNL     1      31.504  34.710  16.765  1.00  0.00     0.139 A 
ATOM     35  N   UNL     1      31.161  32.583  16.557  1.00  0.00    -0.132 NA
ATOM     36  N   UNL     1      31.924  34.349  15.531  1.00  0.00    -0.235 N 
ATOM     37  N   UNL     1      31.700  33.052  15.440  1.00  0.00    -0.066 NA
BRANCH  36  38
ATOM     38  C   UNL     1      32.498  35.236  14.539  1.00  0.00     0.155 C 
ATOM     39  C   UNL     1      32.659  36.628  15.112  1.00  0.00     0.049 C 
ATOM     40  C   UNL     1      33.848  34.701  14.108  1.00  0.00     0.049 C 
BRANCH  38  41
ATOM     41  C   UNL     1      31.603  35.357  13.350  1.00  0.00     0.331 C 
ATOM     42  O   UNL     1      31.310  36.517  12.964  1.00  0.00    -0.250 OA
BRANCH  41  43
ATOM     43  O   UNL     1      31.106  34.254  12.684  1.00  0.00    -0.479 OA
ATOM     44  H   UNL     1      31.330  34.166  11.696  1.00  0.00     0.296 HD
ENDBRANCH  41  43
ENDBRANCH  38  41
ENDBRANCH  36  38
ENDBRANCH  32  33
ENDBRANCH  31  32
ENDBRANCH   2  31
TORSDOF 17
BEGIN_RES LYS A 131
REMARK  4 active torsions:
REMARK  status: ('A' for Active; 'I' for Inactive)
REMARK    1  A    between atoms: CA   and  CB  
REMARK    2  A    between atoms: CB   and  CG  
REMARK    3  A    between atoms: CG   and  CD  
REMARK    4  A    between atoms: CD   and  CE  
ROOT
ATOM      1  CA  LYS A 131      29.867  25.555  16.977  1.00 20.52     0.186 C 
ENDROOT
BRANCH   1   2
ATOM      2  CB  LYS A 131      28.345  25.722  17.026  1.00 20.94     0.034 C 
BRANCH   2   3
ATOM      3  CG  LYS A 131      27.599  24.440  16.688  1.00 22.96     0.005 C 
BRANCH   3   4
ATOM      4  CD  LYS A 131      27.017  23.785  17.910  1.00 24.33     0.041 C 
BRANCH   4   5
ATOM      5  CE  LYS A 131      25.581  23.357  17.624  1.00 26.91     0.338 C 
ATOM      6  NZ  LYS A 131      24.840  24.449  16.949  1.00 27.40     0.618 N 
ENDBRANCH   4   5
ENDBRANCH   3   4
ENDBRANCH   2   3
ENDBRANCH   1   2
END_RES LYS A 131
BEGIN_RES LYS A 135
REMARK  4 active torsions:
REMARK  status: ('A' for Active; 'I' for Inactive)
REMARK    5  A    between atoms: CA   and  CB  
REMARK    6  A    between atoms: CB   and  CG  
REMARK    7  A    between atoms: CG   and  CD  
REMARK    8  A    between atoms: CD   and  CE  
ROOT
ATOM      7  CA  LYS A 135      33.193  34.663   9.290  1.00 25.02     0.186 C 
ENDROOT
BRANCH   7   8
ATOM      8  CB  LYS A 135      32.060  35.360  10.034  1.00 26.63     0.034 C 
BRANCH   8   9
ATOM      9  CG  LYS A 135      30.802  35.504   9.217  1.00 29.45     0.005 C 
BRANCH   9  10
ATOM     10  CD  LYS A 135      30.055  34.181   9.145  1.00 32.00     0.041 C 
BRANCH  10  11
ATOM     11  CE  LYS A 135      28.620  34.403   8.707  1.00 34.25     0.338 C 
ATOM     12  NZ  LYS A 135      27.668  33.702   9.612  1.00 35.99     0.618 N 
ENDBRANCH  10  11
ENDBRANCH   9  10
ENDBRANCH   8   9
ENDBRANCH   7   8
END_RES LYS A 135
