REMARK VINA RESULT:    -5.721      0.000      0.000
REMARK INTER + INTRA:         -11.715
REMARK INTER:                  -9.492
REMARK INTRA:                  -2.224
REMARK UNBOUND:                -1.813
REMARK  Name = lig_assembled_40.pdb
REMARK  17 active torsions:
REMARK  status: ('A' for Active; 'I' for Inactive)
REMARK    1  A    between atoms: _2  and  _9
REMARK    2  A    between atoms: _4  and  _19
REMARK    3  A    between atoms: _6  and  _7
REMARK    4  A    between atoms: _6  and  _19
REMARK    5  A    between atoms: _12  and  _13
REMARK    6  A    between atoms: _15  and  _35
REMARK    7  A    between atoms: _17  and  _23
REMARK    8  A    between atoms: _18  and  _22
REMARK    9  A    between atoms: _22  and  _23
REMARK   10  A    between atoms: _25  and  _26
REMARK   11  A    between atoms: _27  and  _28
REMARK   12  A    between atoms: _29  and  _31
REMARK   13  A    between atoms: _31  and  _32
REMARK   14  A    between atoms: _31  and  _33
REMARK   15  A    between atoms: _33  and  _34
REMARK   16  A    between atoms: _33  and  _35
REMARK   17  A    between atoms: _36  and  _38
REMARK                            x       y       z     vdW  Elec       q    Type
REMARK                         _______ _______ _______ _____ _____    ______ ____
ROOT
ATOM      1  C   UNL     1      -3.186  11.801  25.154  0.00  0.00    +0.163 C 
ENDROOT
BRANCH   1   2
ATOM      2  O   UNL     1      -2.088  10.876  25.099  0.00  0.00    -0.388 OA
ATOM      3  H   UNL     1      -1.282  11.347  24.874  0.00  0.00    +0.210 HD
ENDBRANCH   1   2
BRANCH   1   4
ATOM      4  C   UNL     1      -2.838  13.070  24.382  0.00  0.00    +0.141 C 
BRANCH   4   7
ATOM      5  C   UNL     1      -4.841  13.883  23.186  0.00  0.00    +0.401 C 
ATOM      6  O   UNL     1      -5.340  14.407  24.184  0.00  0.00    -0.226 OA
ATOM      7  N   UNL     1      -3.677  13.232  23.189  0.00  0.00    -0.279 N 
ATOM      8  H   UNL     1      -3.354  12.828  22.321  0.00  0.00    +0.152 HD
BRANCH   5   9
ATOM      9  O   UNL     1      -5.536  13.963  21.939  0.00  0.00    -0.444 OA
BRANCH   9  10
ATOM     10  C   UNL     1      -6.254  12.747  21.714  0.00  0.00    +0.292 C 
BRANCH  10  12
ATOM     11  N   UNL     1      -7.122  12.662  19.398  0.00  0.00    -0.131 NA
ATOM     12  C   UNL     1      -6.149  12.342  20.299  0.00  0.00    +0.121 A 
ATOM     13  C   UNL     1      -5.152  11.647  19.657  0.00  0.00    +0.143 A 
ATOM     14  N   UNL     1      -5.546  11.592  18.339  0.00  0.00    -0.220 N 
ATOM     15  N   UNL     1      -6.755  12.196  18.211  0.00  0.00    -0.060 NA
BRANCH  14  16
ATOM     16  C   UNL     1      -4.846  11.054  17.229  0.00  0.00    +0.067 A 
ATOM     17  C   UNL     1      -4.877   9.681  16.958  0.00  0.00    +0.028 A 
ATOM     18  C   UNL     1      -4.126   9.156  15.902  0.00  0.00    +0.005 A 
ATOM     19  C   UNL     1      -3.338   9.992  15.105  0.00  0.00    -0.050 A 
ATOM     20  C   UNL     1      -3.337  11.369  15.355  0.00  0.00    +0.005 A 
ATOM     21  C   UNL     1      -2.494   9.426  14.000  0.00  0.00    +0.044 C 
ATOM     22  C   UNL     1      -4.085  11.900  16.409  0.00  0.00    +0.028 A 
ENDBRANCH  14  16
ENDBRANCH  10  12
ENDBRANCH   9  10
ENDBRANCH   5   9
ENDBRANCH   4   7
ENDBRANCH   1   4
BRANCH   1  23
ATOM     23  C   UNL     1      -3.528  12.163  26.609  0.00  0.00    +0.175 C 
BRANCH  23  24
ATOM     24  C   UNL     1      -3.340  10.971  27.560  0.00  0.00    +0.176 C 
ATOM     25  O   UNL     1      -3.976   9.812  26.955  0.00  0.00    -0.332 OA
ATOM     26  C   UNL     1      -3.806   8.547  27.677  0.00  0.00    +0.277 C 
ATOM     27  C   UNL     1      -4.275   8.695  29.145  0.00  0.00    +0.110 C 
ATOM     28  C   UNL     1      -3.650   9.933  29.821  0.00  0.00    +0.143 C 
ATOM     29  C   UNL     1      -3.884  11.191  28.984  0.00  0.00    +0.133 C 
BRANCH  29  30
ATOM     30  N   UNL     1      -3.209  12.348  29.594  0.00  0.00    -0.308 N 
ATOM     31  H   UNL     1      -2.200  12.340  29.632  0.00  0.00    +0.149 HD
ATOM     32  C   UNL     1      -3.844  13.408  30.101  0.00  0.00    +0.210 C 
ATOM     33  C   UNL     1      -5.384  13.379  30.051  0.00  0.00    +0.109 C 
ATOM     34  O   UNL     1      -3.253  14.370  30.593  0.00  0.00    -0.276 OA
ENDBRANCH  29  30
BRANCH  26  35
ATOM     35  C   UNL     1      -2.331   8.096  27.650  0.00  0.00    +0.414 C 
ATOM     36  O   UNL     1      -1.849   7.493  28.608  0.00  0.00    -0.240 OA
ATOM     37  O   UNL     1      -1.623   8.335  26.671  0.00  0.00    -0.240 OA
ENDBRANCH  26  35
BRANCH  28  38
ATOM     38  O   UNL     1      -4.224  10.116  31.116  0.00  0.00    -0.390 OA
ATOM     39  H   UNL     1      -3.549   9.988  31.787  0.00  0.00    +0.210 HD
ENDBRANCH  28  38
BRANCH  26  40
ATOM     40  O   UNL     1      -4.634   7.547  27.030  0.00  0.00    -0.343 OA
ATOM     41  C   UNL     1      -5.728   7.042  27.837  0.00  0.00    +0.198 C 
ENDBRANCH  26  40
ENDBRANCH  23  24
BRANCH  23  42
ATOM     42  O   UNL     1      -4.880  12.657  26.694  0.00  0.00    -0.387 OA
ATOM     43  H   UNL     1      -4.923  13.537  26.311  0.00  0.00    +0.210 HD
ENDBRANCH  23  42
ENDBRANCH   1  23
TORSDOF 14
