REMARK VINA RESULT:    -4.071      4.011      6.973
REMARK INTER + INTRA:         -11.456
REMARK INTER:                  -9.429
REMARK INTRA:                  -2.027
REMARK UNBOUND:                -3.458
REMARK  Name = lig_assembled_43.pdb
REMARK  20 active torsions:
REMARK  status: ('A' for Active; 'I' for Inactive)
REMARK    1  A    between atoms: _2  and  _9
REMARK    2  A    between atoms: _4  and  _18
REMARK    3  A    between atoms: _6  and  _7
REMARK    4  A    between atoms: _6  and  _18
REMARK    5  A    between atoms: _9  and  _10
REMARK    6  A    between atoms: _10  and  _11
REMARK    7  A    between atoms: _11  and  _12
REMARK    8  A    between atoms: _12  and  _13
REMARK    9  A    between atoms: _14  and  _34
REMARK   10  A    between atoms: _16  and  _22
REMARK   11  A    between atoms: _17  and  _21
REMARK   12  A    between atoms: _21  and  _22
REMARK   13  A    between atoms: _24  and  _25
REMARK   14  A    between atoms: _26  and  _27
REMARK   15  A    between atoms: _28  and  _30
REMARK   16  A    between atoms: _30  and  _31
REMARK   17  A    between atoms: _30  and  _32
REMARK   18  A    between atoms: _32  and  _33
REMARK   19  A    between atoms: _32  and  _34
REMARK   20  A    between atoms: _35  and  _37
REMARK                            x       y       z     vdW  Elec       q    Type
REMARK                         _______ _______ _______ _____ _____    ______ ____
ROOT
ATOM      1  C   UNL     1      -3.262  11.826  25.106  0.00  0.00    +0.163 C 
ENDROOT
BRANCH   1   2
ATOM      2  O   UNL     1      -2.081  11.012  25.028  0.00  0.00    -0.388 OA
ATOM      3  H   UNL     1      -2.306  10.100  25.230  0.00  0.00    +0.210 HD
ENDBRANCH   1   2
BRANCH   1   4
ATOM      4  C   UNL     1      -3.598  12.170  26.567  0.00  0.00    +0.175 C 
BRANCH   4   5
ATOM      5  C   UNL     1      -3.362  10.981  27.510  0.00  0.00    +0.176 C 
ATOM      6  O   UNL     1      -3.993   9.811  26.920  0.00  0.00    -0.332 OA
ATOM      7  C   UNL     1      -3.780   8.548  27.634  0.00  0.00    +0.277 C 
ATOM      8  C   UNL     1      -4.211   8.684  29.115  0.00  0.00    +0.110 C 
ATOM      9  C   UNL     1      -3.590   9.933  29.776  0.00  0.00    +0.143 C 
ATOM     10  C   UNL     1      -3.869  11.188  28.949  0.00  0.00    +0.133 C 
BRANCH  10  11
ATOM     11  N   UNL     1      -3.199  12.356  29.542  0.00  0.00    -0.308 N 
ATOM     12  H   UNL     1      -2.189  12.368  29.547  0.00  0.00    +0.149 HD
ATOM     13  C   UNL     1      -3.839  13.401  30.075  0.00  0.00    +0.210 C 
ATOM     14  C   UNL     1      -5.378  13.340  30.076  0.00  0.00    +0.109 C 
ATOM     15  O   UNL     1      -3.251  14.372  30.552  0.00  0.00    -0.276 OA
ENDBRANCH  10  11
BRANCH   7  16
ATOM     16  C   UNL     1      -2.298   8.124  27.565  0.00  0.00    +0.414 C 
ATOM     17  O   UNL     1      -1.603   8.453  26.605  0.00  0.00    -0.240 OA
ATOM     18  O   UNL     1      -1.799   7.453  28.469  0.00  0.00    -0.240 OA
ENDBRANCH   7  16
BRANCH   9  19
ATOM     19  O   UNL     1      -4.130  10.103  31.087  0.00  0.00    -0.390 OA
ATOM     20  H   UNL     1      -4.865  10.720  31.053  0.00  0.00    +0.210 HD
ENDBRANCH   9  19
BRANCH   7  21
ATOM     21  O   UNL     1      -4.608   7.534  27.009  0.00  0.00    -0.343 OA
ATOM     22  C   UNL     1      -5.868   8.015  26.476  0.00  0.00    +0.198 C 
ENDBRANCH   7  21
ENDBRANCH   4   5
BRANCH   4  23
ATOM     23  O   UNL     1      -4.963  12.622  26.670  0.00  0.00    -0.387 OA
ATOM     24  H   UNL     1      -5.428  12.092  27.322  0.00  0.00    +0.210 HD
ENDBRANCH   4  23
ENDBRANCH   1   4
BRANCH   1  25
ATOM     25  C   UNL     1      -3.062  13.113  24.312  0.00  0.00    +0.141 C 
BRANCH  25  28
ATOM     26  C   UNL     1      -4.011  12.819  22.050  0.00  0.00    +0.401 C 
ATOM     27  O   UNL     1      -3.041  12.187  21.623  0.00  0.00    -0.226 OA
ATOM     28  N   UNL     1      -4.102  13.294  23.292  0.00  0.00    -0.279 N 
ATOM     29  H   UNL     1      -4.934  13.808  23.546  0.00  0.00    +0.152 HD
BRANCH  26  30
ATOM     30  O   UNL     1      -5.114  13.071  21.176  0.00  0.00    -0.444 OA
BRANCH  30  31
ATOM     31  C   UNL     1      -5.720  11.831  20.800  0.00  0.00    +0.292 C 
BRANCH  31  33
ATOM     32  N   UNL     1      -6.389  12.283  18.460  0.00  0.00    -0.131 NA
ATOM     33  C   UNL     1      -5.587  11.615  19.348  0.00  0.00    +0.120 A 
ATOM     34  C   UNL     1      -4.734  10.789  18.650  0.00  0.00    +0.137 A 
ATOM     35  N   UNL     1      -5.072  10.998  17.347  0.00  0.00    -0.251 N 
ATOM     36  N   UNL     1      -6.064  11.895  17.234  0.00  0.00    -0.065 NA
BRANCH  35  37
ATOM     37  C   UNL     1      -4.523  10.359  16.170  0.00  0.00    +0.145 C 
BRANCH  37  38
ATOM     38  C   UNL     1      -3.395  11.186  15.560  0.00  0.00    +0.024 C 
BRANCH  38  39
ATOM     39  C   UNL     1      -3.872  12.019  14.368  0.00  0.00    +0.006 C 
BRANCH  39  40
ATOM     40  C   UNL     1      -3.661  13.511  14.637  0.00  0.00    +0.026 C 
BRANCH  40  41
ATOM     41  C   UNL     1      -3.323  14.265  13.385  0.00  0.00    -0.034 C 
ATOM     42  C   UNL     1      -2.542  15.353  13.358  0.00  0.00    +0.004 C 
ENDBRANCH  40  41
ENDBRANCH  39  40
ENDBRANCH  38  39
ENDBRANCH  37  38
ENDBRANCH  35  37
ENDBRANCH  31  33
ENDBRANCH  30  31
ENDBRANCH  26  30
ENDBRANCH  25  28
ENDBRANCH   1  25
TORSDOF 18
