REMARK VINA RESULT:    -5.815      5.248     12.298
REMARK INTER + INTRA:         -12.529
REMARK INTER:                 -10.573
REMARK INTRA:                  -1.956
REMARK UNBOUND:                -1.954
REMARK  Name = lig_assembled_60.pdb
REMARK  18 active torsions:
REMARK  status: ('A' for Active; 'I' for Inactive)
REMARK    1  A    between atoms: _2  and  _10
REMARK    2  A    between atoms: _3  and  _41
REMARK    3  A    between atoms: _5  and  _21
REMARK    4  A    between atoms: _7  and  _8
REMARK    5  A    between atoms: _7  and  _21
REMARK    6  A    between atoms: _13  and  _41
REMARK    7  A    between atoms: _17  and  _37
REMARK    8  A    between atoms: _19  and  _25
REMARK    9  A    between atoms: _20  and  _24
REMARK   10  A    between atoms: _24  and  _25
REMARK   11  A    between atoms: _27  and  _28
REMARK   12  A    between atoms: _29  and  _30
REMARK   13  A    between atoms: _31  and  _33
REMARK   14  A    between atoms: _33  and  _34
REMARK   15  A    between atoms: _33  and  _35
REMARK   16  A    between atoms: _35  and  _36
REMARK   17  A    between atoms: _35  and  _37
REMARK   18  A    between atoms: _38  and  _40
REMARK                            x       y       z     vdW  Elec       q    Type
REMARK                         _______ _______ _______ _____ _____    ______ ____
ROOT
ATOM      1  C   UNL     1      -3.852  13.134  24.395  0.00  0.00    +0.141 C 
ENDROOT
BRANCH   1   4
ATOM      2  C   UNL     1      -5.820  12.319  23.143  0.00  0.00    +0.401 C 
ATOM      3  O   UNL     1      -6.556  12.295  24.132  0.00  0.00    -0.226 OA
ATOM      4  N   UNL     1      -4.540  12.693  23.176  0.00  0.00    -0.279 N 
ATOM      5  H   UNL     1      -4.015  12.670  22.313  0.00  0.00    +0.152 HD
BRANCH   2   6
ATOM      6  O   UNL     1      -6.348  11.924  21.874  0.00  0.00    -0.444 OA
BRANCH   6   7
ATOM      7  C   UNL     1      -6.143  10.521  21.687  0.00  0.00    +0.292 C 
BRANCH   7   9
ATOM      8  N   UNL     1      -5.398   8.984  19.895  0.00  0.00    -0.131 NA
ATOM      9  C   UNL     1      -5.590  10.258  20.346  0.00  0.00    +0.121 A 
ATOM     10  C   UNL     1      -5.207  11.144  19.365  0.00  0.00    +0.143 A 
ATOM     11  N   UNL     1      -4.816  10.356  18.306  0.00  0.00    -0.220 N 
ATOM     12  N   UNL     1      -4.919   9.051  18.660  0.00  0.00    -0.060 NA
BRANCH  11  13
ATOM     13  C   UNL     1      -4.405  10.757  17.008  0.00  0.00    +0.067 A 
ATOM     14  C   UNL     1      -4.043   9.801  16.046  0.00  0.00    +0.030 A 
ATOM     15  C   UNL     1      -3.573  10.208  14.796  0.00  0.00    +0.030 A 
ATOM     16  C   UNL     1      -3.480  11.570  14.500  0.00  0.00    +0.105 A 
ATOM     17  C   UNL     1      -3.853  12.531  15.444  0.00  0.00    +0.030 A 
ATOM     18  C   UNL     1      -4.323  12.123  16.696  0.00  0.00    +0.030 A 
BRANCH  16  19
ATOM     19  S   UNL     1      -2.810  12.073  12.942  0.00  0.00    +0.056 S 
ATOM     20  O   UNL     1      -1.832  11.104  12.508  0.00  0.00    -0.153 OA
ATOM     21  O   UNL     1      -3.885  12.527  12.091  0.00  0.00    -0.153 OA
BRANCH  19  22
ATOM     22  N   UNL     1      -1.946  13.445  13.370  0.00  0.00    -0.204 NA
ATOM     23  H   UNL     1      -2.113  14.186  12.689  0.00  0.00    +0.144 HD
ATOM     24  H   UNL     1      -0.961  13.209  13.489  0.00  0.00    +0.144 HD
ENDBRANCH  19  22
ENDBRANCH  16  19
ENDBRANCH  11  13
ENDBRANCH   7   9
ENDBRANCH   6   7
ENDBRANCH   2   6
ENDBRANCH   1   4
BRANCH   1  25
ATOM     25  C   UNL     1      -3.375  11.956  25.237  0.00  0.00    +0.163 C 
BRANCH  25  26
ATOM     26  O   UNL     1      -1.958  11.779  25.077  0.00  0.00    -0.388 OA
ATOM     27  H   UNL     1      -1.680  10.982  25.536  0.00  0.00    +0.210 HD
ENDBRANCH  25  26
BRANCH  25  28
ATOM     28  C   UNL     1      -3.736  12.199  26.713  0.00  0.00    +0.175 C 
BRANCH  28  29
ATOM     29  C   UNL     1      -3.400  10.989  27.597  0.00  0.00    +0.176 C 
ATOM     30  O   UNL     1      -4.004   9.813  26.993  0.00  0.00    -0.332 OA
ATOM     31  C   UNL     1      -3.698   8.537  27.647  0.00  0.00    +0.277 C 
ATOM     32  C   UNL     1      -4.063   8.599  29.151  0.00  0.00    +0.110 C 
ATOM     33  C   UNL     1      -3.469   9.851  29.830  0.00  0.00    +0.143 C 
ATOM     34  C   UNL     1      -3.846  11.121  29.065  0.00  0.00    +0.133 C 
BRANCH  34  35
ATOM     35  N   UNL     1      -3.203  12.297  29.671  0.00  0.00    -0.308 N 
ATOM     36  H   UNL     1      -2.195  12.352  29.640  0.00  0.00    +0.149 HD
ATOM     37  C   UNL     1      -3.865  13.297  30.259  0.00  0.00    +0.210 C 
ATOM     38  C   UNL     1      -5.399  13.172  30.312  0.00  0.00    +0.109 C 
ATOM     39  O   UNL     1      -3.301  14.278  30.745  0.00  0.00    -0.276 OA
ENDBRANCH  34  35
BRANCH  31  40
ATOM     40  C   UNL     1      -2.204   8.187  27.493  0.00  0.00    +0.414 C 
ATOM     41  O   UNL     1      -1.633   8.365  26.418  0.00  0.00    -0.240 OA
ATOM     42  O   UNL     1      -1.569   7.727  28.444  0.00  0.00    -0.240 OA
ENDBRANCH  31  40
BRANCH  33  43
ATOM     43  O   UNL     1      -3.953   9.948  31.170  0.00  0.00    -0.390 OA
ATOM     44  H   UNL     1      -3.217  10.109  31.765  0.00  0.00    +0.210 HD
ENDBRANCH  33  43
BRANCH  31  45
ATOM     45  O   UNL     1      -4.508   7.507  27.023  0.00  0.00    -0.343 OA
ATOM     46  C   UNL     1      -5.324   7.959  25.913  0.00  0.00    +0.198 C 
ENDBRANCH  31  45
ENDBRANCH  28  29
BRANCH  28  47
ATOM     47  O   UNL     1      -5.133  12.530  26.834  0.00  0.00    -0.387 OA
ATOM     48  H   UNL     1      -5.611  11.778  27.192  0.00  0.00    +0.210 HD
ENDBRANCH  28  47
ENDBRANCH  25  28
ENDBRANCH   1  25
TORSDOF 16
