REMARK VINA RESULT:    -5.603      3.244      4.225
REMARK INTER + INTRA:         -12.970
REMARK INTER:                 -10.791
REMARK INTRA:                  -2.179
REMARK UNBOUND:                -2.453
REMARK  Name = lig_assembled_75.pdb
REMARK  19 active torsions:
REMARK  status: ('A' for Active; 'I' for Inactive)
REMARK    1  A    between atoms: _2  and  _9
REMARK    2  A    between atoms: _4  and  _23
REMARK    3  A    between atoms: _6  and  _7
REMARK    4  A    between atoms: _6  and  _23
REMARK    5  A    between atoms: _11  and  _12
REMARK    6  A    between atoms: _13  and  _14
REMARK    7  A    between atoms: _14  and  _17
REMARK    8  A    between atoms: _19  and  _39
REMARK    9  A    between atoms: _21  and  _27
REMARK   10  A    between atoms: _22  and  _26
REMARK   11  A    between atoms: _26  and  _27
REMARK   12  A    between atoms: _29  and  _30
REMARK   13  A    between atoms: _31  and  _32
REMARK   14  A    between atoms: _33  and  _35
REMARK   15  A    between atoms: _35  and  _36
REMARK   16  A    between atoms: _35  and  _37
REMARK   17  A    between atoms: _37  and  _38
REMARK   18  A    between atoms: _37  and  _39
REMARK   19  A    between atoms: _40  and  _42
REMARK                            x       y       z     vdW  Elec       q    Type
REMARK                         _______ _______ _______ _____ _____    ______ ____
ROOT
ATOM      1  C   UNL     1      -3.058  13.037  24.380  0.00  0.00    +0.141 C 
ENDROOT
BRANCH   1   4
ATOM      2  C   UNL     1      -5.038  13.396  22.947  0.00  0.00    +0.401 C 
ATOM      3  O   UNL     1      -5.790  13.658  23.889  0.00  0.00    -0.226 OA
ATOM      4  N   UNL     1      -3.748  13.089  23.085  0.00  0.00    -0.279 N 
ATOM      5  H   UNL     1      -3.215  12.880  22.253  0.00  0.00    +0.152 HD
BRANCH   2   6
ATOM      6  O   UNL     1      -5.561  13.413  21.616  0.00  0.00    -0.444 OA
BRANCH   6   7
ATOM      7  C   UNL     1      -5.655  12.073  21.123  0.00  0.00    +0.292 C 
BRANCH   7   9
ATOM      8  N   UNL     1      -6.741  12.162  18.902  0.00  0.00    -0.131 NA
ATOM      9  C   UNL     1      -5.602  12.064  19.649  0.00  0.00    +0.121 A 
ATOM     10  C   UNL     1      -4.518  11.963  18.808  0.00  0.00    +0.143 A 
ATOM     11  N   UNL     1      -5.048  12.002  17.539  0.00  0.00    -0.220 N 
ATOM     12  N   UNL     1      -6.397  12.122  17.622  0.00  0.00    -0.060 NA
BRANCH  11  13
ATOM     13  C   UNL     1      -4.379  11.908  16.291  0.00  0.00    +0.068 A 
ATOM     14  C   UNL     1      -4.159  13.075  15.538  0.00  0.00    +0.035 A 
ATOM     15  C   UNL     1      -3.562  13.010  14.271  0.00  0.00    -0.023 A 
ATOM     16  C   UNL     1      -3.128  11.767  13.795  0.00  0.00    +0.008 A 
ATOM     17  C   UNL     1      -3.323  10.607  14.549  0.00  0.00    +0.003 A 
ATOM     18  C   UNL     1      -3.955  10.673  15.790  0.00  0.00    +0.028 A 
BRANCH  15  19
ATOM     19  C   UNL     1      -3.356  14.201  13.433  0.00  0.00    +0.015 C 
ATOM     20  C   UNL     1      -2.285  15.006  13.530  0.00  0.00    +0.092 C 
BRANCH  20  21
ATOM     21  C   UNL     1      -2.195  16.208  12.680  0.00  0.00    +0.330 C 
ATOM     22  O   UNL     1      -2.328  16.215  11.470  0.00  0.00    -0.246 OA
BRANCH  21  23
ATOM     23  O   UNL     1      -1.957  17.320  13.405  0.00  0.00    -0.478 OA
ATOM     24  H   UNL     1      -1.845  18.141  12.893  0.00  0.00    +0.295 HD
ENDBRANCH  21  23
ENDBRANCH  20  21
ENDBRANCH  15  19
ENDBRANCH  11  13
ENDBRANCH   7   9
ENDBRANCH   6   7
ENDBRANCH   2   6
ENDBRANCH   1   4
BRANCH   1  25
ATOM     25  C   UNL     1      -3.354  11.744  25.132  0.00  0.00    +0.163 C 
BRANCH  25  26
ATOM     26  O   UNL     1      -2.234  10.850  25.032  0.00  0.00    -0.388 OA
ATOM     27  H   UNL     1      -2.495  10.061  24.550  0.00  0.00    +0.210 HD
ENDBRANCH  25  26
BRANCH  25  28
ATOM     28  C   UNL     1      -3.672  12.065  26.602  0.00  0.00    +0.175 C 
BRANCH  28  29
ATOM     29  C   UNL     1      -3.367  10.881  27.531  0.00  0.00    +0.176 C 
ATOM     30  O   UNL     1      -3.976   9.693  26.956  0.00  0.00    -0.332 OA
ATOM     31  C   UNL     1      -3.699   8.435  27.658  0.00  0.00    +0.277 C 
ATOM     32  C   UNL     1      -4.087   8.552  29.152  0.00  0.00    +0.110 C 
ATOM     33  C   UNL     1      -3.488   9.819  29.799  0.00  0.00    +0.143 C 
ATOM     34  C   UNL     1      -3.836  11.067  28.987  0.00  0.00    +0.133 C 
BRANCH  34  35
ATOM     35  N   UNL     1      -3.188  12.254  29.564  0.00  0.00    -0.308 N 
ATOM     36  H   UNL     1      -2.178  12.298  29.544  0.00  0.00    +0.149 HD
ATOM     37  C   UNL     1      -3.846  13.279  30.113  0.00  0.00    +0.210 C 
ATOM     38  C   UNL     1      -5.382  13.171  30.152  0.00  0.00    +0.109 C 
ATOM     39  O   UNL     1      -3.277  14.268  30.576  0.00  0.00    -0.276 OA
ENDBRANCH  34  35
BRANCH  31  40
ATOM     40  C   UNL     1      -2.206   8.062  27.541  0.00  0.00    +0.414 C 
ATOM     41  O   UNL     1      -1.638   8.112  26.450  0.00  0.00    -0.240 OA
ATOM     42  O   UNL     1      -1.571   7.711  28.536  0.00  0.00    -0.240 OA
ENDBRANCH  31  40
BRANCH  31  43
ATOM     43  O   UNL     1      -4.511   7.396  27.054  0.00  0.00    -0.343 OA
ATOM     44  C   UNL     1      -5.497   7.866  26.100  0.00  0.00    +0.198 C 
ENDBRANCH  31  43
BRANCH  33  45
ATOM     45  O   UNL     1      -3.993   9.966  31.127  0.00  0.00    -0.390 OA
ATOM     46  H   UNL     1      -4.583   9.236  31.328  0.00  0.00    +0.210 HD
ENDBRANCH  33  45
ENDBRANCH  28  29
BRANCH  28  47
ATOM     47  O   UNL     1      -5.053  12.459  26.737  0.00  0.00    -0.387 OA
ATOM     48  H   UNL     1      -5.143  13.389  26.516  0.00  0.00    +0.210 HD
ENDBRANCH  28  47
ENDBRANCH  25  28
ENDBRANCH   1  25
TORSDOF 17
