REMARK VINA RESULT:    -5.462      6.222     12.615
REMARK INTER + INTRA:         -14.032
REMARK INTER:                 -11.583
REMARK INTRA:                  -2.448
REMARK UNBOUND:                -3.302
REMARK  Name = lig_assembled_84.pdb
REMARK  21 active torsions:
REMARK  status: ('A' for Active; 'I' for Inactive)
REMARK    1  A    between atoms: _2  and  _11
REMARK    2  A    between atoms: _3  and  _14
REMARK    3  A    between atoms: _4  and  _17
REMARK    4  A    between atoms: _6  and  _28
REMARK    5  A    between atoms: _8  and  _9
REMARK    6  A    between atoms: _8  and  _28
REMARK    7  A    between atoms: _11  and  _12
REMARK    8  A    between atoms: _12  and  _13
REMARK    9  A    between atoms: _12  and  _14
REMARK   10  A    between atoms: _24  and  _44
REMARK   11  A    between atoms: _26  and  _32
REMARK   12  A    between atoms: _27  and  _31
REMARK   13  A    between atoms: _31  and  _32
REMARK   14  A    between atoms: _34  and  _35
REMARK   15  A    between atoms: _36  and  _37
REMARK   16  A    between atoms: _38  and  _40
REMARK   17  A    between atoms: _40  and  _41
REMARK   18  A    between atoms: _40  and  _42
REMARK   19  A    between atoms: _42  and  _43
REMARK   20  A    between atoms: _42  and  _44
REMARK   21  A    between atoms: _45  and  _47
REMARK                            x       y       z     vdW  Elec       q    Type
REMARK                         _______ _______ _______ _____ _____    ______ ____
ROOT
ATOM      1  C   UNL     1      -4.060  12.916  22.072  0.00  0.00    +0.401 C 
ATOM      2  O   UNL     1      -3.003  12.495  21.595  0.00  0.00    -0.226 OA
ATOM      3  N   UNL     1      -4.225  13.229  23.358  0.00  0.00    -0.279 N 
ATOM      4  H   UNL     1      -5.127  13.576  23.652  0.00  0.00    +0.152 HD
ENDROOT
BRANCH   1   5
ATOM      5  O   UNL     1      -5.188  13.092  21.212  0.00  0.00    -0.444 OA
BRANCH   5   6
ATOM      6  C   UNL     1      -5.788  11.822  20.944  0.00  0.00    +0.292 C 
BRANCH   6   8
ATOM      7  N   UNL     1      -6.029  12.137  18.496  0.00  0.00    -0.131 NA
ATOM      8  C   UNL     1      -5.538  11.409  19.550  0.00  0.00    +0.120 A 
ATOM      9  C   UNL     1      -4.868  10.309  19.062  0.00  0.00    +0.137 A 
ATOM     10  N   UNL     1      -5.045  10.388  17.713  0.00  0.00    -0.251 N 
ATOM     11  N   UNL     1      -5.722  11.499  17.374  0.00  0.00    -0.065 NA
BRANCH  10  12
ATOM     12  C   UNL     1      -4.721   9.387  16.716  0.00  0.00    +0.149 C 
BRANCH  12  13
ATOM     13  C   UNL     1      -3.771   9.878  15.610  0.00  0.00    +0.021 C 
ATOM     14  C   UNL     1      -2.605   8.900  15.403  0.00  0.00    +0.010 C 
BRANCH  13  15
ATOM     15  C   UNL     1      -4.518  10.055  14.266  0.00  0.00    +0.089 C 
BRANCH  15  16
ATOM     16  N   UNL     1      -4.200  11.280  13.519  0.00  0.00    -0.299 NA
ATOM     17  C   UNL     1      -3.262  10.969  12.408  0.00  0.00    +0.103 C 
ATOM     18  C   UNL     1      -2.968  12.213  11.543  0.00  0.00    +0.120 C 
ATOM     19  N   UNL     1      -2.406  13.277  12.384  0.00  0.00    -0.327 N 
ATOM     20  C   UNL     1      -3.229  13.626  13.551  0.00  0.00    +0.120 C 
ATOM     21  C   UNL     1      -3.587  12.343  14.356  0.00  0.00    +0.103 C 
BRANCH  19  22
ATOM     22  C   UNL     1      -1.234  13.927  12.072  0.00  0.00    +0.030 A 
ATOM     23  C   UNL     1      -0.880  15.136  12.699  0.00  0.00    +0.024 A 
ATOM     24  C   UNL     1       0.295  15.825  12.377  0.00  0.00    +0.022 A 
ATOM     25  C   UNL     1       1.149  15.310  11.416  0.00  0.00    +0.041 A 
ATOM     26 CL   UNL     1       2.593  16.154  11.011  0.00  0.00    -0.084 Cl
ATOM     27  C   UNL     1       0.837  14.116  10.775  0.00  0.00    +0.022 A 
ATOM     28  C   UNL     1      -0.345  13.439  11.103  0.00  0.00    +0.024 A 
ENDBRANCH  19  22
ENDBRANCH  15  16
ENDBRANCH  13  15
ENDBRANCH  12  13
ENDBRANCH  10  12
ENDBRANCH   6   8
ENDBRANCH   5   6
ENDBRANCH   1   5
BRANCH   3  29
ATOM     29  C   UNL     1      -3.170  13.097  24.370  0.00  0.00    +0.141 C 
BRANCH  29  30
ATOM     30  C   UNL     1      -3.257  11.767  25.112  0.00  0.00    +0.163 C 
BRANCH  30  31
ATOM     31  O   UNL     1      -1.996  11.082  25.042  0.00  0.00    -0.388 OA
ATOM     32  H   UNL     1      -1.304  11.705  24.807  0.00  0.00    +0.210 HD
ENDBRANCH  30  31
BRANCH  30  33
ATOM     33  C   UNL     1      -3.665  12.020  26.573  0.00  0.00    +0.175 C 
BRANCH  33  34
ATOM     34  C   UNL     1      -3.399  10.800  27.467  0.00  0.00    +0.176 C 
ATOM     35  O   UNL     1      -3.967   9.633  26.812  0.00  0.00    -0.332 OA
ATOM     36  C   UNL     1      -3.716   8.349  27.474  0.00  0.00    +0.277 C 
ATOM     37  C   UNL     1      -4.183   8.401  28.949  0.00  0.00    +0.110 C 
ATOM     38  C   UNL     1      -3.629   9.643  29.679  0.00  0.00    +0.143 C 
ATOM     39  C   UNL     1      -3.944  10.921  28.902  0.00  0.00    +0.133 C 
BRANCH  39  40
ATOM     40  N   UNL     1      -3.337  12.088  29.562  0.00  0.00    -0.308 N 
ATOM     41  H   UNL     1      -2.328  12.137  29.598  0.00  0.00    +0.149 HD
ATOM     42  C   UNL     1      -4.031  13.086  30.116  0.00  0.00    +0.210 C 
ATOM     43  C   UNL     1      -5.566  12.968  30.067  0.00  0.00    +0.109 C 
ATOM     44  O   UNL     1      -3.495  14.058  30.649  0.00  0.00    -0.276 OA
ENDBRANCH  39  40
BRANCH  36  45
ATOM     45  C   UNL     1      -2.216   7.991  27.420  0.00  0.00    +0.414 C 
ATOM     46  O   UNL     1      -1.695   7.362  28.341  0.00  0.00    -0.240 OA
ATOM     47  O   UNL     1      -1.528   8.329  26.457  0.00  0.00    -0.240 OA
ENDBRANCH  36  45
BRANCH  36  48
ATOM     48  O   UNL     1      -4.487   7.331  26.786  0.00  0.00    -0.343 OA
ATOM     49  C   UNL     1      -5.527   7.837  25.911  0.00  0.00    +0.198 C 
ENDBRANCH  36  48
BRANCH  38  50
ATOM     50  O   UNL     1      -4.203   9.731  30.984  0.00  0.00    -0.390 OA
ATOM     51  H   UNL     1      -4.290   8.850  31.356  0.00  0.00    +0.210 HD
ENDBRANCH  38  50
ENDBRANCH  33  34
BRANCH  33  52
ATOM     52  O   UNL     1      -5.056  12.393  26.643  0.00  0.00    -0.387 OA
ATOM     53  H   UNL     1      -5.327  12.449  27.562  0.00  0.00    +0.210 HD
ENDBRANCH  33  52
ENDBRANCH  30  33
ENDBRANCH  29  30
ENDBRANCH   3  29
TORSDOF 18
