REMARK VINA RESULT:    -4.004      2.547      6.746
REMARK INTER + INTRA:         -12.739
REMARK INTER:                  -7.890
REMARK INTRA:                  -4.849
REMARK UNBOUND:                -4.638
REMARK  Name = lig_assembled_11.pdb
REMARK  22 active torsions:
REMARK  status: ('A' for Active; 'I' for Inactive)
REMARK    1  A    between atoms: _2  and  _9
REMARK    2  A    between atoms: _4  and  _21
REMARK    3  A    between atoms: _5  and  _9
REMARK    4  A    between atoms: _5  and  _13
REMARK    5  A    between atoms: _6  and  _7
REMARK    6  A    between atoms: _6  and  _21
REMARK    7  A    between atoms: _9  and  _10
REMARK    8  A    between atoms: _10  and  _11
REMARK    9  A    between atoms: _11  and  _12
REMARK   10  A    between atoms: _12  and  _15
REMARK   11  A    between atoms: _17  and  _37
REMARK   12  A    between atoms: _19  and  _25
REMARK   13  A    between atoms: _20  and  _24
REMARK   14  A    between atoms: _24  and  _25
REMARK   15  A    between atoms: _27  and  _28
REMARK   16  A    between atoms: _29  and  _30
REMARK   17  A    between atoms: _31  and  _33
REMARK   18  A    between atoms: _33  and  _34
REMARK   19  A    between atoms: _33  and  _35
REMARK   20  A    between atoms: _35  and  _36
REMARK   21  A    between atoms: _35  and  _37
REMARK   22  A    between atoms: _38  and  _40
REMARK                            x       y       z     vdW  Elec       q    Type
REMARK                         _______ _______ _______ _____ _____    ______ ____
ROOT
ATOM      1  C   UNL     1      -4.801  11.591  25.635  0.00  0.00    +0.163 C 
ENDROOT
BRANCH   1   2
ATOM      2  O   UNL     1      -4.154  10.369  25.245  0.00  0.00    -0.388 OA
ATOM      3  H   UNL     1      -4.310   9.696  25.913  0.00  0.00    +0.210 HD
ENDBRANCH   1   2
BRANCH   1   4
ATOM      4  C   UNL     1      -5.073  11.611  27.150  0.00  0.00    +0.175 C 
BRANCH   4   5
ATOM      5  C   UNL     1      -4.013  10.826  27.937  0.00  0.00    +0.176 C 
ATOM      6  O   UNL     1      -4.286   9.408  27.762  0.00  0.00    -0.332 OA
ATOM      7  C   UNL     1      -3.307   8.496  28.361  0.00  0.00    +0.277 C 
ATOM      8  C   UNL     1      -3.123   8.811  29.865  0.00  0.00    +0.110 C 
ATOM      9  C   UNL     1      -2.863  10.314  30.105  0.00  0.00    +0.143 C 
ATOM     10  C   UNL     1      -3.939  11.170  29.436  0.00  0.00    +0.133 C 
BRANCH  10  11
ATOM     11  N   UNL     1      -3.632  12.600  29.597  0.00  0.00    -0.308 N 
ATOM     12  H   UNL     1      -2.773  12.947  29.194  0.00  0.00    +0.149 HD
ATOM     13  C   UNL     1      -4.415  13.470  30.242  0.00  0.00    +0.210 C 
ATOM     14  C   UNL     1      -5.704  12.905  30.868  0.00  0.00    +0.109 C 
ATOM     15  O   UNL     1      -4.140  14.666  30.348  0.00  0.00    -0.276 OA
ENDBRANCH  10  11
BRANCH   7  16
ATOM     16  C   UNL     1      -1.946   8.605  27.641  0.00  0.00    +0.414 C 
ATOM     17  O   UNL     1      -1.900   8.727  26.418  0.00  0.00    -0.240 OA
ATOM     18  O   UNL     1      -0.896   8.570  28.284  0.00  0.00    -0.240 OA
ENDBRANCH   7  16
BRANCH   7  19
ATOM     19  O   UNL     1      -3.818   7.144  28.236  0.00  0.00    -0.343 OA
ATOM     20  C   UNL     1      -3.505   6.266  29.347  0.00  0.00    +0.198 C 
ENDBRANCH   7  19
BRANCH   9  21
ATOM     21  O   UNL     1      -2.851  10.583  31.507  0.00  0.00    -0.390 OA
ATOM     22  H   UNL     1      -2.025  10.273  31.886  0.00  0.00    +0.210 HD
ENDBRANCH   9  21
ENDBRANCH   4   5
BRANCH   4  23
ATOM     23  O   UNL     1      -6.387  11.086  27.425  0.00  0.00    -0.387 OA
ATOM     24  H   UNL     1      -6.886  11.726  27.939  0.00  0.00    +0.210 HD
ENDBRANCH   4  23
ENDBRANCH   1   4
BRANCH   1  25
ATOM     25  C   UNL     1      -3.931  12.786  25.258  0.00  0.00    +0.141 C 
BRANCH  25  28
ATOM     26  C   UNL     1      -3.742  13.032  22.807  0.00  0.00    +0.401 C 
ATOM     27  O   UNL     1      -4.807  13.643  22.692  0.00  0.00    -0.226 OA
ATOM     28  N   UNL     1      -3.259  12.588  23.968  0.00  0.00    -0.279 N 
ATOM     29  H   UNL     1      -2.382  12.088  23.959  0.00  0.00    +0.152 HD
BRANCH  26  30
ATOM     30  O   UNL     1      -2.964  12.767  21.637  0.00  0.00    -0.444 OA
BRANCH  30  31
ATOM     31  C   UNL     1      -3.740  12.005  20.709  0.00  0.00    +0.292 C 
BRANCH  31  33
ATOM     32  N   UNL     1      -3.167  10.030  22.088  0.00  0.00    -0.131 NA
ATOM     33  C   UNL     1      -4.051  10.675  21.267  0.00  0.00    +0.120 A 
ATOM     34  C   UNL     1      -5.170   9.891  21.108  0.00  0.00    +0.138 A 
ATOM     35  N   UNL     1      -4.894   8.760  21.821  0.00  0.00    -0.238 N 
ATOM     36  N   UNL     1      -3.698   8.864  22.433  0.00  0.00    -0.065 NA
BRANCH  35  37
ATOM     37  C   UNL     1      -5.725   7.596  22.109  0.00  0.00    +0.217 C 
BRANCH  37  38
ATOM     38  C   UNL     1      -6.755   7.832  23.203  0.00  0.00    +0.330 C 
ATOM     39  O   UNL     1      -7.846   7.290  23.288  0.00  0.00    -0.249 OA
BRANCH  38  40
ATOM     40  O   UNL     1      -6.371   8.741  24.135  0.00  0.00    -0.479 OA
ATOM     41  H   UNL     1      -7.078   9.218  24.611  0.00  0.00    +0.295 HD
ENDBRANCH  38  40
ENDBRANCH  37  38
BRANCH  37  42
ATOM     42  C   UNL     1      -4.880   6.333  22.353  0.00  0.00    +0.049 C 
BRANCH  42  43
ATOM     43  C   UNL     1      -4.917   5.799  23.790  0.00  0.00    +0.123 C 
BRANCH  43  44
ATOM     44  C   UNL     1      -3.779   6.366  24.608  0.00  0.00    +0.305 C 
ATOM     45  O   UNL     1      -2.674   5.859  24.709  0.00  0.00    -0.251 OA
BRANCH  44  46
ATOM     46  O   UNL     1      -4.119   7.505  25.252  0.00  0.00    -0.481 OA
ATOM     47  H   UNL     1      -4.088   7.444  26.226  0.00  0.00    +0.295 HD
ENDBRANCH  44  46
ENDBRANCH  43  44
ENDBRANCH  42  43
ENDBRANCH  37  42
ENDBRANCH  35  37
ENDBRANCH  31  33
ENDBRANCH  30  31
ENDBRANCH  26  30
ENDBRANCH  25  28
ENDBRANCH   1  25
TORSDOF 20
