REMARK VINA RESULT:    -5.770      0.000      0.000
REMARK INTER + INTRA:         -15.234
REMARK INTER:                 -11.626
REMARK INTRA:                  -3.609
REMARK UNBOUND:                -3.392
REMARK  Name = lig_assembled_47.pdb
REMARK  22 active torsions:
REMARK  status: ('A' for Active; 'I' for Inactive)
REMARK    1  A    between atoms: _2  and  _9
REMARK    2  A    between atoms: _4  and  _30
REMARK    3  A    between atoms: _6  and  _7
REMARK    4  A    between atoms: _6  and  _30
REMARK    5  A    between atoms: _9  and  _10
REMARK    6  A    between atoms: _10  and  _11
REMARK    7  A    between atoms: _10  and  _12
REMARK    8  A    between atoms: _11  and  _24
REMARK    9  A    between atoms: _12  and  _13
REMARK   10  A    between atoms: _12  and  _19
REMARK   11  A    between atoms: _26  and  _46
REMARK   12  A    between atoms: _28  and  _34
REMARK   13  A    between atoms: _29  and  _33
REMARK   14  A    between atoms: _33  and  _34
REMARK   15  A    between atoms: _36  and  _37
REMARK   16  A    between atoms: _38  and  _39
REMARK   17  A    between atoms: _40  and  _42
REMARK   18  A    between atoms: _42  and  _43
REMARK   19  A    between atoms: _42  and  _44
REMARK   20  A    between atoms: _44  and  _45
REMARK   21  A    between atoms: _44  and  _46
REMARK   22  A    between atoms: _47  and  _49
REMARK                            x       y       z     vdW  Elec       q    Type
REMARK                         _______ _______ _______ _____ _____    ______ ____
ROOT
ATOM      1  C   UNL     1      -5.133  14.669  23.193  0.00  0.00    +0.401 C 
ATOM      2  O   UNL     1      -4.366  14.945  22.268  0.00  0.00    -0.226 OA
ATOM      3  N   UNL     1      -4.799  13.910  24.237  0.00  0.00    -0.279 N 
ATOM      4  H   UNL     1      -5.495  13.748  24.952  0.00  0.00    +0.152 HD
ENDROOT
BRANCH   3   5
ATOM      5  C   UNL     1      -3.476  13.295  24.407  0.00  0.00    +0.141 C 
BRANCH   5   6
ATOM      6  C   UNL     1      -3.551  11.995  25.201  0.00  0.00    +0.163 C 
BRANCH   6   7
ATOM      7  O   UNL     1      -2.335  11.248  25.035  0.00  0.00    -0.388 OA
ATOM      8  H   UNL     1      -1.859  11.575  24.268  0.00  0.00    +0.210 HD
ENDBRANCH   6   7
BRANCH   6   9
ATOM      9  C   UNL     1      -3.803  12.313  26.685  0.00  0.00    +0.175 C 
BRANCH   9  10
ATOM     10  C   UNL     1      -3.407  11.146  27.601  0.00  0.00    +0.176 C 
ATOM     11  O   UNL     1      -4.001   9.933  27.062  0.00  0.00    -0.332 OA
ATOM     12  C   UNL     1      -3.642   8.691  27.752  0.00  0.00    +0.277 C 
ATOM     13  C   UNL     1      -3.958   8.801  29.264  0.00  0.00    +0.110 C 
ATOM     14  C   UNL     1      -3.373  10.091  29.876  0.00  0.00    +0.143 C 
ATOM     15  C   UNL     1      -3.807  11.322  29.078  0.00  0.00    +0.133 C 
BRANCH  15  16
ATOM     16  N   UNL     1      -3.174  12.535  29.618  0.00  0.00    -0.308 N 
ATOM     17  H   UNL     1      -2.170  12.616  29.544  0.00  0.00    +0.149 HD
ATOM     18  C   UNL     1      -3.840  13.537  30.198  0.00  0.00    +0.210 C 
ATOM     19  C   UNL     1      -5.367  13.372  30.318  0.00  0.00    +0.109 C 
ATOM     20  O   UNL     1      -3.285  14.549  30.628  0.00  0.00    -0.276 OA
ENDBRANCH  15  16
BRANCH  12  21
ATOM     21  C   UNL     1      -2.145   8.371  27.560  0.00  0.00    +0.414 C 
ATOM     22  O   UNL     1      -1.510   7.814  28.455  0.00  0.00    -0.240 OA
ATOM     23  O   UNL     1      -1.572   8.670  26.512  0.00  0.00    -0.240 OA
ENDBRANCH  12  21
BRANCH  12  24
ATOM     24  O   UNL     1      -4.445   7.619  27.194  0.00  0.00    -0.343 OA
ATOM     25  C   UNL     1      -5.604   7.247  27.983  0.00  0.00    +0.198 C 
ENDBRANCH  12  24
BRANCH  14  26
ATOM     26  O   UNL     1      -3.815  10.227  31.227  0.00  0.00    -0.390 OA
ATOM     27  H   UNL     1      -3.132   9.906  31.821  0.00  0.00    +0.210 HD
ENDBRANCH  14  26
ENDBRANCH   9  10
BRANCH   9  28
ATOM     28  O   UNL     1      -5.187  12.659  26.891  0.00  0.00    -0.387 OA
ATOM     29  H   UNL     1      -5.539  12.148  27.623  0.00  0.00    +0.210 HD
ENDBRANCH   9  28
ENDBRANCH   6   9
ENDBRANCH   5   6
ENDBRANCH   3   5
BRANCH   1  30
ATOM     30  O   UNL     1      -6.466  15.187  23.169  0.00  0.00    -0.444 OA
BRANCH  30  31
ATOM     31  C   UNL     1      -7.400  14.106  23.216  0.00  0.00    +0.292 C 
BRANCH  31  33
ATOM     32  N   UNL     1      -7.690  14.237  20.754  0.00  0.00    -0.131 NA
ATOM     33  C   UNL     1      -7.555  13.479  21.888  0.00  0.00    +0.120 A 
ATOM     34  C   UNL     1      -7.621  12.147  21.544  0.00  0.00    +0.137 A 
ATOM     35  N   UNL     1      -7.845  12.162  20.199  0.00  0.00    -0.251 N 
ATOM     36  N   UNL     1      -7.865  13.419  19.724  0.00  0.00    -0.065 NA
BRANCH  35  37
ATOM     37  C   UNL     1      -8.197  11.044  19.335  0.00  0.00    +0.160 C 
BRANCH  37  38
ATOM     38  C   UNL     1      -7.186  10.782  18.215  0.00  0.00    +0.131 C 
BRANCH  38  39
ATOM     39  C   UNL     1      -7.829  11.220  16.906  0.00  0.00    +0.311 C 
ATOM     40  O   UNL     1      -8.133  10.434  16.021  0.00  0.00    -0.251 OA
BRANCH  39  41
ATOM     41  O   UNL     1      -8.161  12.523  16.797  0.00  0.00    -0.480 OA
ATOM     42  H   UNL     1      -8.472  12.856  15.939  0.00  0.00    +0.295 HD
ENDBRANCH  39  41
ENDBRANCH  38  39
BRANCH  38  43
ATOM     43  C   UNL     1      -5.789  11.446  18.429  0.00  0.00    +0.064 C 
BRANCH  43  44
ATOM     44  C   UNL     1      -5.023  10.995  19.674  0.00  0.00    -0.039 A 
ATOM     45  C   UNL     1      -4.039  11.835  20.231  0.00  0.00    +0.004 A 
ATOM     46  C   UNL     1      -3.321  11.453  21.369  0.00  0.00    +0.000 A 
ATOM     47  C   UNL     1      -3.559  10.218  21.963  0.00  0.00    +0.000 A 
ATOM     48  C   UNL     1      -4.513   9.366  21.416  0.00  0.00    +0.000 A 
ATOM     49  C   UNL     1      -5.246   9.754  20.289  0.00  0.00    +0.004 A 
ENDBRANCH  43  44
BRANCH  43  50
ATOM     50  C   UNL     1      -4.954  11.350  17.146  0.00  0.00    -0.039 A 
ATOM     51  C   UNL     1      -4.444  10.112  16.721  0.00  0.00    +0.004 A 
ATOM     52  C   UNL     1      -3.543  10.044  15.653  0.00  0.00    +0.000 A 
ATOM     53  C   UNL     1      -3.162  11.203  14.981  0.00  0.00    +0.000 A 
ATOM     54  C   UNL     1      -3.688  12.430  15.364  0.00  0.00    +0.000 A 
ATOM     55  C   UNL     1      -4.575  12.503  16.437  0.00  0.00    +0.004 A 
ENDBRANCH  43  50
ENDBRANCH  38  43
ENDBRANCH  37  38
ENDBRANCH  35  37
ENDBRANCH  31  33
ENDBRANCH  30  31
ENDBRANCH   1  30
TORSDOF 20
