REMARK VINA RESULT:    -4.673      2.974      3.600
REMARK INTER + INTRA:         -13.126
REMARK INTER:                 -10.645
REMARK INTRA:                  -2.481
REMARK UNBOUND:                -4.083
REMARK  Name = lig_assembled_83.pdb
REMARK  20 active torsions:
REMARK  status: ('A' for Active; 'I' for Inactive)
REMARK    1  A    between atoms: _2  and  _12
REMARK    2  A    between atoms: _3  and  _14
REMARK    3  A    between atoms: _7  and  _24
REMARK    4  A    between atoms: _9  and  _10
REMARK    5  A    between atoms: _9  and  _24
REMARK    6  A    between atoms: _12  and  _13
REMARK    7  A    between atoms: _13  and  _14
REMARK    8  A    between atoms: _13  and  _18
REMARK    9  A    between atoms: _20  and  _40
REMARK   10  A    between atoms: _22  and  _28
REMARK   11  A    between atoms: _23  and  _27
REMARK   12  A    between atoms: _27  and  _28
REMARK   13  A    between atoms: _30  and  _31
REMARK   14  A    between atoms: _32  and  _33
REMARK   15  A    between atoms: _34  and  _36
REMARK   16  A    between atoms: _36  and  _37
REMARK   17  A    between atoms: _36  and  _38
REMARK   18  A    between atoms: _38  and  _39
REMARK   19  A    between atoms: _38  and  _40
REMARK   20  A    between atoms: _41  and  _43
REMARK                            x       y       z     vdW  Elec       q    Type
REMARK                         _______ _______ _______ _____ _____    ______ ____
ROOT
ATOM      1  C   UNL     1      -3.457  13.087  24.331  0.00  0.00    +0.141 C 
ENDROOT
BRANCH   1   4
ATOM      2  C   UNL     1      -3.901  12.426  21.992  0.00  0.00    +0.401 C 
ATOM      3  O   UNL     1      -2.834  11.823  21.860  0.00  0.00    -0.226 OA
ATOM      4  N   UNL     1      -4.271  13.051  23.110  0.00  0.00    -0.279 N 
ATOM      5  H   UNL     1      -5.163  13.527  23.118  0.00  0.00    +0.152 HD
BRANCH   2   6
ATOM      6  O   UNL     1      -4.811  12.475  20.890  0.00  0.00    -0.444 OA
BRANCH   6   7
ATOM      7  C   UNL     1      -4.897  11.183  20.283  0.00  0.00    +0.292 C 
BRANCH   7   9
ATOM      8  N   UNL     1      -6.143  12.146  18.363  0.00  0.00    -0.131 NA
ATOM      9  C   UNL     1      -5.168  11.308  18.839  0.00  0.00    +0.120 A 
ATOM     10  C   UNL     1      -4.564  10.676  17.776  0.00  0.00    +0.137 A 
ATOM     11  N   UNL     1      -5.203  11.183  16.687  0.00  0.00    -0.249 N 
ATOM     12  N   UNL     1      -6.160  12.057  17.039  0.00  0.00    -0.065 NA
BRANCH  11  13
ATOM     13  C   UNL     1      -4.982  10.853  15.295  0.00  0.00    +0.178 C 
BRANCH  13  14
ATOM     14  C   UNL     1      -4.184  11.941  14.570  0.00  0.00    +0.156 C 
BRANCH  14  15
ATOM     15  O   UNL     1      -2.797  11.832  14.905  0.00  0.00    -0.388 OA
ATOM     16  H   UNL     1      -2.696  11.331  15.740  0.00  0.00    +0.210 HD
ENDBRANCH  14  15
BRANCH  14  17
ATOM     17  C   UNL     1      -4.377  11.827  13.050  0.00  0.00    +0.162 C 
BRANCH  17  18
ATOM     18  N   UNL     1      -3.970  13.031  12.344  0.00  0.00    -0.269 N 
ATOM     19  C   UNL     1      -4.791  14.123  12.172  0.00  0.00    +0.113 A 
ATOM     20  C   UNL     1      -4.036  15.050  11.492  0.00  0.00    +0.137 A 
ATOM     21  N   UNL     1      -2.792  14.553  11.215  0.00  0.00    -0.172 NA
ATOM     22  C   UNL     1      -2.774  13.343  11.742  0.00  0.00    +0.450 A 
ATOM     23  N   UNL     1      -1.614  12.483  11.674  0.00  0.00    +0.120 N 
ATOM     24  O   UNL     1      -1.696  11.362  12.202  0.00  0.00    +0.045 OA
ATOM     25  O   UNL     1      -0.618  12.915  11.083  0.00  0.00    -0.573 OA
ENDBRANCH  17  18
ENDBRANCH  14  17
ENDBRANCH  13  14
ENDBRANCH  11  13
ENDBRANCH   7   9
ENDBRANCH   6   7
ENDBRANCH   2   6
ENDBRANCH   1   4
BRANCH   1  26
ATOM     26  C   UNL     1      -3.581  11.798  25.135  0.00  0.00    +0.163 C 
BRANCH  26  27
ATOM     27  O   UNL     1      -2.421  10.975  24.929  0.00  0.00    -0.388 OA
ATOM     28  H   UNL     1      -2.645  10.057  25.097  0.00  0.00    +0.210 HD
ENDBRANCH  26  27
BRANCH  26  29
ATOM     29  C   UNL     1      -3.756  12.137  26.626  0.00  0.00    +0.175 C 
BRANCH  29  30
ATOM     30  C   UNL     1      -3.415  10.946  27.533  0.00  0.00    +0.176 C 
ATOM     31  O   UNL     1      -4.029   9.758  26.962  0.00  0.00    -0.332 OA
ATOM     32  C   UNL     1      -3.721   8.496  27.642  0.00  0.00    +0.277 C 
ATOM     33  C   UNL     1      -4.070   8.593  29.147  0.00  0.00    +0.110 C 
ATOM     34  C   UNL     1      -3.466   9.858  29.792  0.00  0.00    +0.143 C 
ATOM     35  C   UNL     1      -3.847  11.111  29.003  0.00  0.00    +0.133 C 
BRANCH  35  36
ATOM     36  N   UNL     1      -3.194  12.299  29.576  0.00  0.00    -0.308 N 
ATOM     37  H   UNL     1      -2.188  12.363  29.508  0.00  0.00    +0.149 HD
ATOM     38  C   UNL     1      -3.844  13.297  30.180  0.00  0.00    +0.210 C 
ATOM     39  C   UNL     1      -5.374  13.157  30.290  0.00  0.00    +0.109 C 
ATOM     40  O   UNL     1      -3.273  14.287  30.638  0.00  0.00    -0.276 OA
ENDBRANCH  35  36
BRANCH  32  41
ATOM     41  C   UNL     1      -2.229   8.138  27.481  0.00  0.00    +0.414 C 
ATOM     42  O   UNL     1      -1.666   7.434  28.319  0.00  0.00    -0.240 OA
ATOM     43  O   UNL     1      -1.588   8.552  26.514  0.00  0.00    -0.240 OA
ENDBRANCH  32  41
BRANCH  32  44
ATOM     44  O   UNL     1      -4.539   7.455  27.048  0.00  0.00    -0.343 OA
ATOM     45  C   UNL     1      -4.570   7.452  25.598  0.00  0.00    +0.198 C 
ENDBRANCH  32  44
BRANCH  34  46
ATOM     46  O   UNL     1      -3.936   9.986  31.134  0.00  0.00    -0.390 OA
ATOM     47  H   UNL     1      -3.382   9.463  31.719  0.00  0.00    +0.210 HD
ENDBRANCH  34  46
ENDBRANCH  29  30
BRANCH  29  48
ATOM     48  O   UNL     1      -5.103  12.584  26.878  0.00  0.00    -0.387 OA
ATOM     49  H   UNL     1      -5.724  11.917  26.575  0.00  0.00    +0.210 HD
ENDBRANCH  29  48
ENDBRANCH  26  29
ENDBRANCH   1  26
TORSDOF 18
