REMARK VINA RESULT:    -4.273      2.290      2.914
REMARK INTER + INTRA:         -12.353
REMARK INTER:                  -9.661
REMARK INTRA:                  -2.693
REMARK UNBOUND:                -4.083
REMARK  Name = lig_assembled_83.pdb
REMARK  20 active torsions:
REMARK  status: ('A' for Active; 'I' for Inactive)
REMARK    1  A    between atoms: _2  and  _12
REMARK    2  A    between atoms: _3  and  _14
REMARK    3  A    between atoms: _7  and  _24
REMARK    4  A    between atoms: _9  and  _10
REMARK    5  A    between atoms: _9  and  _24
REMARK    6  A    between atoms: _12  and  _13
REMARK    7  A    between atoms: _13  and  _14
REMARK    8  A    between atoms: _13  and  _18
REMARK    9  A    between atoms: _20  and  _40
REMARK   10  A    between atoms: _22  and  _28
REMARK   11  A    between atoms: _23  and  _27
REMARK   12  A    between atoms: _27  and  _28
REMARK   13  A    between atoms: _30  and  _31
REMARK   14  A    between atoms: _32  and  _33
REMARK   15  A    between atoms: _34  and  _36
REMARK   16  A    between atoms: _36  and  _37
REMARK   17  A    between atoms: _36  and  _38
REMARK   18  A    between atoms: _38  and  _39
REMARK   19  A    between atoms: _38  and  _40
REMARK   20  A    between atoms: _41  and  _43
REMARK                            x       y       z     vdW  Elec       q    Type
REMARK                         _______ _______ _______ _____ _____    ______ ____
ROOT
ATOM      1  C   UNL     1      -4.223  13.129  25.227  0.00  0.00    +0.141 C 
ENDROOT
BRANCH   1   4
ATOM      2  C   UNL     1      -3.935  12.832  22.791  0.00  0.00    +0.401 C 
ATOM      3  O   UNL     1      -4.393  13.940  22.507  0.00  0.00    -0.226 OA
ATOM      4  N   UNL     1      -3.824  12.368  24.037  0.00  0.00    -0.279 N 
ATOM      5  H   UNL     1      -3.443  11.442  24.169  0.00  0.00    +0.152 HD
BRANCH   2   6
ATOM      6  O   UNL     1      -3.492  11.972  21.738  0.00  0.00    -0.444 OA
BRANCH   6   7
ATOM      7  C   UNL     1      -4.290  10.785  21.723  0.00  0.00    +0.292 C 
BRANCH   7   9
ATOM      8  N   UNL     1      -4.897   9.158  19.949  0.00  0.00    -0.131 NA
ATOM      9  C   UNL     1      -4.701  10.455  20.347  0.00  0.00    +0.120 A 
ATOM     10  C   UNL     1      -4.948  11.291  19.281  0.00  0.00    +0.137 A 
ATOM     11  N   UNL     1      -5.304  10.444  18.277  0.00  0.00    -0.249 N 
ATOM     12  N   UNL     1      -5.262   9.162  18.673  0.00  0.00    -0.065 NA
BRANCH  11  13
ATOM     13  C   UNL     1      -5.656  10.784  16.914  0.00  0.00    +0.178 C 
BRANCH  13  14
ATOM     14  C   UNL     1      -4.429  10.811  15.998  0.00  0.00    +0.156 C 
BRANCH  14  15
ATOM     15  O   UNL     1      -3.566   9.711  16.308  0.00  0.00    -0.388 OA
ATOM     16  H   UNL     1      -3.399   9.184  15.500  0.00  0.00    +0.210 HD
ENDBRANCH  14  15
BRANCH  14  17
ATOM     17  C   UNL     1      -4.858  10.754  14.523  0.00  0.00    +0.162 C 
BRANCH  17  18
ATOM     18  N   UNL     1      -3.785  11.129  13.615  0.00  0.00    -0.269 N 
ATOM     19  C   UNL     1      -3.516  12.430  13.256  0.00  0.00    +0.113 A 
ATOM     20  C   UNL     1      -2.424  12.365  12.422  0.00  0.00    +0.137 A 
ATOM     21  N   UNL     1      -2.033  11.067  12.235  0.00  0.00    -0.172 NA
ATOM     22  C   UNL     1      -2.861  10.345  12.967  0.00  0.00    +0.450 A 
ATOM     23  N   UNL     1      -2.769   8.904  13.050  0.00  0.00    +0.120 N 
ATOM     24  O   UNL     1      -3.593   8.314  13.767  0.00  0.00    +0.045 OA
ATOM     25  O   UNL     1      -1.881   8.351  12.390  0.00  0.00    -0.573 OA
ENDBRANCH  17  18
ENDBRANCH  14  17
ENDBRANCH  13  14
ENDBRANCH  11  13
ENDBRANCH   7   9
ENDBRANCH   6   7
ENDBRANCH   2   6
ENDBRANCH   1   4
BRANCH   1  26
ATOM     26  C   UNL     1      -5.572  12.669  25.770  0.00  0.00    +0.163 C 
BRANCH  26  27
ATOM     27  O   UNL     1      -6.020  11.507  25.053  0.00  0.00    -0.388 OA
ATOM     28  H   UNL     1      -5.287  10.896  24.944  0.00  0.00    +0.210 HD
ENDBRANCH  26  27
BRANCH  26  29
ATOM     29  C   UNL     1      -5.447  12.373  27.275  0.00  0.00    +0.175 C 
BRANCH  29  30
ATOM     30  C   UNL     1      -4.263  11.445  27.584  0.00  0.00    +0.176 C 
ATOM     31  O   UNL     1      -4.375  10.275  26.728  0.00  0.00    -0.332 OA
ATOM     32  C   UNL     1      -3.266   9.320  26.810  0.00  0.00    +0.277 C 
ATOM     33  C   UNL     1      -3.042   8.876  28.277  0.00  0.00    +0.110 C 
ATOM     34  C   UNL     1      -2.947  10.086  29.230  0.00  0.00    +0.143 C 
ATOM     35  C   UNL     1      -4.150  11.015  29.059  0.00  0.00    +0.133 C 
BRANCH  35  36
ATOM     36  N   UNL     1      -4.005  12.207  29.909  0.00  0.00    -0.308 N 
ATOM     37  H   UNL     1      -3.262  12.856  29.689  0.00  0.00    +0.149 HD
ATOM     38  C   UNL     1      -4.791  12.488  30.952  0.00  0.00    +0.210 C 
ATOM     39  C   UNL     1      -5.897  11.466  31.276  0.00  0.00    +0.109 C 
ATOM     40  O   UNL     1      -4.656  13.502  31.637  0.00  0.00    -0.276 OA
ENDBRANCH  35  36
BRANCH  32  41
ATOM     41  C   UNL     1      -1.967   9.942  26.255  0.00  0.00    +0.414 C 
ATOM     42  O   UNL     1      -1.994  10.621  25.230  0.00  0.00    -0.240 OA
ATOM     43  O   UNL     1      -0.894   9.764  26.833  0.00  0.00    -0.240 OA
ENDBRANCH  32  41
BRANCH  32  44
ATOM     44  O   UNL     1      -3.621   8.151  26.028  0.00  0.00    -0.343 OA
ATOM     45  C   UNL     1      -3.079   6.899  26.517  0.00  0.00    +0.198 C 
ENDBRANCH  32  44
BRANCH  34  46
ATOM     46  O   UNL     1      -2.893   9.631  30.582  0.00  0.00    -0.390 OA
ATOM     47  H   UNL     1      -1.976   9.552  30.858  0.00  0.00    +0.210 HD
ENDBRANCH  34  46
ENDBRANCH  29  30
BRANCH  29  48
ATOM     48  O   UNL     1      -6.671  11.798  27.771  0.00  0.00    -0.387 OA
ATOM     49  H   UNL     1      -6.587  11.628  28.712  0.00  0.00    +0.210 HD
ENDBRANCH  29  48
ENDBRANCH  26  29
ENDBRANCH   1  26
TORSDOF 18
