REMARK VINA RESULT:    -5.644      0.000      0.000
REMARK INTER + INTRA:         -12.453
REMARK INTER:                  -9.416
REMARK INTRA:                  -3.037
REMARK UNBOUND:                -1.695
REMARK  Name = lig_assembled_12.pdb
REMARK  19 active torsions:
REMARK  status: ('A' for Active; 'I' for Inactive)
REMARK    1  A    between atoms: _2  and  _9
REMARK    2  A    between atoms: _4  and  _21
REMARK    3  A    between atoms: _6  and  _7
REMARK    4  A    between atoms: _6  and  _21
REMARK    5  A    between atoms: _9  and  _16
REMARK    6  A    between atoms: _10  and  _11
REMARK    7  A    between atoms: _10  and  _16
REMARK    8  A    between atoms: _17  and  _37
REMARK    9  A    between atoms: _19  and  _25
REMARK   10  A    between atoms: _20  and  _24
REMARK   11  A    between atoms: _24  and  _25
REMARK   12  A    between atoms: _27  and  _28
REMARK   13  A    between atoms: _29  and  _30
REMARK   14  A    between atoms: _31  and  _33
REMARK   15  A    between atoms: _33  and  _34
REMARK   16  A    between atoms: _33  and  _35
REMARK   17  A    between atoms: _35  and  _36
REMARK   18  A    between atoms: _35  and  _37
REMARK   19  A    between atoms: _38  and  _40
REMARK                            x       y       z     vdW  Elec       q    Type
REMARK                         _______ _______ _______ _____ _____    ______ ____
ROOT
ATOM      1  C   UNL     1      -3.624  11.948  25.277  0.00  0.00    +0.163 C 
ENDROOT
BRANCH   1   2
ATOM      2  O   UNL     1      -2.455  11.132  25.095  0.00  0.00    -0.388 OA
ATOM      3  H   UNL     1      -1.913  11.500  24.393  0.00  0.00    +0.210 HD
ENDBRANCH   1   2
BRANCH   1   4
ATOM      4  C   UNL     1      -3.849  12.263  26.766  0.00  0.00    +0.175 C 
BRANCH   4   5
ATOM      5  C   UNL     1      -3.431  11.095  27.673  0.00  0.00    +0.176 C 
ATOM      6  O   UNL     1      -4.004   9.876  27.125  0.00  0.00    -0.332 OA
ATOM      7  C   UNL     1      -3.622   8.635  27.805  0.00  0.00    +0.277 C 
ATOM      8  C   UNL     1      -3.937   8.728  29.318  0.00  0.00    +0.110 C 
ATOM      9  C   UNL     1      -3.374  10.024  29.938  0.00  0.00    +0.143 C 
ATOM     10  C   UNL     1      -3.832  11.252  29.151  0.00  0.00    +0.133 C 
BRANCH  10  11
ATOM     11  N   UNL     1      -3.219  12.473  29.700  0.00  0.00    -0.308 N 
ATOM     12  H   UNL     1      -2.217  12.572  29.624  0.00  0.00    +0.149 HD
ATOM     13  C   UNL     1      -3.902  13.457  30.290  0.00  0.00    +0.210 C 
ATOM     14  C   UNL     1      -5.425  13.264  30.412  0.00  0.00    +0.109 C 
ATOM     15  O   UNL     1      -3.364  14.475  30.727  0.00  0.00    -0.276 OA
ENDBRANCH  10  11
BRANCH   7  16
ATOM     16  C   UNL     1      -2.120   8.344  27.608  0.00  0.00    +0.414 C 
ATOM     17  O   UNL     1      -1.480   7.765  28.485  0.00  0.00    -0.240 OA
ATOM     18  O   UNL     1      -1.547   8.688  26.572  0.00  0.00    -0.240 OA
ENDBRANCH   7  16
BRANCH   9  19
ATOM     19  O   UNL     1      -3.816  10.141  31.292  0.00  0.00    -0.390 OA
ATOM     20  H   UNL     1      -4.638   9.658  31.403  0.00  0.00    +0.210 HD
ENDBRANCH   9  19
BRANCH   7  21
ATOM     21  O   UNL     1      -4.407   7.554  27.239  0.00  0.00    -0.343 OA
ATOM     22  C   UNL     1      -5.341   6.931  28.157  0.00  0.00    +0.198 C 
ENDBRANCH   7  21
ENDBRANCH   4   5
BRANCH   4  23
ATOM     23  O   UNL     1      -5.230  12.602  26.999  0.00  0.00    -0.387 OA
ATOM     24  H   UNL     1      -5.360  12.796  27.930  0.00  0.00    +0.210 HD
ENDBRANCH   4  23
ENDBRANCH   1   4
BRANCH   1  25
ATOM     25  C   UNL     1      -3.477  13.251  24.498  0.00  0.00    +0.141 C 
BRANCH  25  28
ATOM     26  C   UNL     1      -4.978  14.721  23.197  0.00  0.00    +0.401 C 
ATOM     27  O   UNL     1      -4.090  15.112  22.436  0.00  0.00    -0.226 OA
ATOM     28  N   UNL     1      -4.779  13.857  24.193  0.00  0.00    -0.279 N 
ATOM     29  H   UNL     1      -5.569  13.604  24.770  0.00  0.00    +0.152 HD
BRANCH  26  30
ATOM     30  O   UNL     1      -6.308  15.215  23.023  0.00  0.00    -0.444 OA
BRANCH  30  31
ATOM     31  C   UNL     1      -7.242  14.149  23.215  0.00  0.00    +0.292 C 
BRANCH  31  33
ATOM     32  N   UNL     1      -7.556  14.151  20.756  0.00  0.00    -0.131 NA
ATOM     33  C   UNL     1      -7.508  13.460  21.939  0.00  0.00    +0.120 A 
ATOM     34  C   UNL     1      -7.740  12.127  21.691  0.00  0.00    +0.139 A 
ATOM     35  N   UNL     1      -7.950  12.074  20.345  0.00  0.00    -0.226 N 
ATOM     36  N   UNL     1      -7.816  13.289  19.782  0.00  0.00    -0.063 NA
BRANCH  35  37
ATOM     37  C   UNL     1      -8.233  10.913  19.517  0.00  0.00    +0.305 C 
BRANCH  37  38
ATOM     38  O   UNL     1      -7.309   9.875  19.836  0.00  0.00    -0.353 OA
BRANCH  38  39
ATOM     39  C   UNL     1      -6.143   9.942  19.026  0.00  0.00    +0.197 C 
BRANCH  39  40
ATOM     40  C   UNL     1      -5.045  10.541  19.863  0.00  0.00    -0.022 A 
ATOM     41  C   UNL     1      -4.548   9.859  20.982  0.00  0.00    +0.006 A 
ATOM     42  C   UNL     1      -3.557  10.432  21.779  0.00  0.00    +0.000 A 
ATOM     43  C   UNL     1      -3.059  11.696  21.471  0.00  0.00    +0.000 A 
ATOM     44  C   UNL     1      -3.551  12.390  20.368  0.00  0.00    +0.000 A 
ATOM     45  C   UNL     1      -4.543  11.817  19.569  0.00  0.00    +0.006 A 
ENDBRANCH  39  40
ENDBRANCH  38  39
ENDBRANCH  37  38
ENDBRANCH  35  37
ENDBRANCH  31  33
ENDBRANCH  30  31
ENDBRANCH  26  30
ENDBRANCH  25  28
ENDBRANCH   1  25
TORSDOF 17
