REMARK VINA RESULT:    -5.051      4.447     12.118
REMARK INTER + INTRA:         -12.003
REMARK INTER:                  -9.904
REMARK INTRA:                  -2.099
REMARK UNBOUND:                -2.966
REMARK  Name = lig_assembled_89.pdb
REMARK  19 active torsions:
REMARK  status: ('A' for Active; 'I' for Inactive)
REMARK    1  A    between atoms: _2  and  _12
REMARK    2  A    between atoms: _5  and  _20
REMARK    3  A    between atoms: _7  and  _29
REMARK    4  A    between atoms: _9  and  _10
REMARK    5  A    between atoms: _9  and  _29
REMARK    6  A    between atoms: _20  and  _21
REMARK    7  A    between atoms: _20  and  _22
REMARK    8  A    between atoms: _25  and  _45
REMARK    9  A    between atoms: _27  and  _33
REMARK   10  A    between atoms: _28  and  _32
REMARK   11  A    between atoms: _32  and  _33
REMARK   12  A    between atoms: _35  and  _36
REMARK   13  A    between atoms: _37  and  _38
REMARK   14  A    between atoms: _39  and  _41
REMARK   15  A    between atoms: _41  and  _42
REMARK   16  A    between atoms: _41  and  _43
REMARK   17  A    between atoms: _43  and  _44
REMARK   18  A    between atoms: _43  and  _45
REMARK   19  A    between atoms: _46  and  _48
REMARK                            x       y       z     vdW  Elec       q    Type
REMARK                         _______ _______ _______ _____ _____    ______ ____
ROOT
ATOM      1  C   UNL     1      -5.019  13.821  23.174  0.00  0.00    +0.401 C 
ATOM      2  O   UNL     1      -5.552  14.306  24.175  0.00  0.00    -0.226 OA
ATOM      3  N   UNL     1      -3.822  13.232  23.178  0.00  0.00    -0.279 N 
ATOM      4  H   UNL     1      -3.474  12.856  22.308  0.00  0.00    +0.152 HD
ENDROOT
BRANCH   3   5
ATOM      5  C   UNL     1      -2.983  13.101  24.375  0.00  0.00    +0.141 C 
BRANCH   5   6
ATOM      6  C   UNL     1      -3.272  11.810  25.134  0.00  0.00    +0.163 C 
BRANCH   6   7
ATOM      7  O   UNL     1      -2.147  10.921  25.037  0.00  0.00    -0.388 OA
ATOM      8  H   UNL     1      -2.013  10.481  25.880  0.00  0.00    +0.210 HD
ENDBRANCH   6   7
BRANCH   6   9
ATOM      9  C   UNL     1      -3.591  12.136  26.603  0.00  0.00    +0.175 C 
BRANCH   9  10
ATOM     10  C   UNL     1      -3.359  10.931  27.526  0.00  0.00    +0.176 C 
ATOM     11  O   UNL     1      -3.995   9.773  26.918  0.00  0.00    -0.332 OA
ATOM     12  C   UNL     1      -3.787   8.499  27.612  0.00  0.00    +0.277 C 
ATOM     13  C   UNL     1      -4.218   8.613  29.095  0.00  0.00    +0.110 C 
ATOM     14  C   UNL     1      -3.592   9.849  29.775  0.00  0.00    +0.143 C 
ATOM     15  C   UNL     1      -3.866  11.118  28.968  0.00  0.00    +0.133 C 
BRANCH  15  16
ATOM     16  N   UNL     1      -3.192  12.274  29.580  0.00  0.00    -0.308 N 
ATOM     17  H   UNL     1      -2.182  12.290  29.570  0.00  0.00    +0.149 HD
ATOM     18  C   UNL     1      -3.828  13.302  30.149  0.00  0.00    +0.210 C 
ATOM     19  C   UNL     1      -5.366  13.234  30.172  0.00  0.00    +0.109 C 
ATOM     20  O   UNL     1      -3.237  14.264  30.641  0.00  0.00    -0.276 OA
ENDBRANCH  15  16
BRANCH  12  21
ATOM     21  C   UNL     1      -2.307   8.070  27.536  0.00  0.00    +0.414 C 
ATOM     22  O   UNL     1      -1.626   8.362  26.553  0.00  0.00    -0.240 OA
ATOM     23  O   UNL     1      -1.794   7.433  28.457  0.00  0.00    -0.240 OA
ENDBRANCH  12  21
BRANCH  14  24
ATOM     24  O   UNL     1      -4.132  10.000  31.089  0.00  0.00    -0.390 OA
ATOM     25  H   UNL     1      -3.722   9.363  31.679  0.00  0.00    +0.210 HD
ENDBRANCH  14  24
BRANCH  12  26
ATOM     26  O   UNL     1      -4.619   7.498  26.970  0.00  0.00    -0.343 OA
ATOM     27  C   UNL     1      -5.620   8.024  26.063  0.00  0.00    +0.198 C 
ENDBRANCH  12  26
ENDBRANCH   9  10
BRANCH   9  28
ATOM     28  O   UNL     1      -4.950  12.602  26.725  0.00  0.00    -0.387 OA
ATOM     29  H   UNL     1      -5.547  11.851  26.719  0.00  0.00    +0.210 HD
ENDBRANCH   9  28
ENDBRANCH   6   9
ENDBRANCH   5   6
ENDBRANCH   3   5
BRANCH   1  30
ATOM     30  O   UNL     1      -5.710  13.878  21.924  0.00  0.00    -0.444 OA
BRANCH  30  31
ATOM     31  C   UNL     1      -6.473  12.681  21.745  0.00  0.00    +0.292 C 
BRANCH  31  33
ATOM     32  N   UNL     1      -4.554  11.269  21.110  0.00  0.00    -0.131 NA
ATOM     33  C   UNL     1      -5.785  11.774  20.810  0.00  0.00    +0.121 A 
ATOM     34  C   UNL     1      -6.189  11.277  19.595  0.00  0.00    +0.145 A 
ATOM     35  N   UNL     1      -5.170  10.437  19.189  0.00  0.00    -0.199 N 
ATOM     36  N   UNL     1      -4.194  10.455  20.127  0.00  0.00    -0.059 NA
BRANCH  35  37
ATOM     37  C   UNL     1      -5.184   9.610  18.028  0.00  0.00    +0.186 A 
ATOM     38  C   UNL     1      -5.190   9.962  16.694  0.00  0.00    +0.158 A 
ATOM     39  C   UNL     1      -5.309  11.214  16.012  0.00  0.00    +0.280 A 
ATOM     40  O   UNL     1      -5.781  12.209  16.545  0.00  0.00    -0.265 OA
ATOM     41  N   UNL     1      -4.876  11.211  14.670  0.00  0.00    -0.302 N 
ATOM     42  C   UNL     1      -4.778   9.966  13.941  0.00  0.00    +0.069 A 
ATOM     43  C   UNL     1      -4.626   9.913  12.548  0.00  0.00    +0.028 A 
ATOM     44  C   UNL     1      -4.586   8.688  11.868  0.00  0.00    +0.002 A 
ATOM     45  C   UNL     1      -4.687   7.489  12.565  0.00  0.00    +0.002 A 
ATOM     46  C   UNL     1      -4.826   7.504  13.949  0.00  0.00    +0.028 A 
ATOM     47  C   UNL     1      -4.880   8.733  14.623  0.00  0.00    +0.072 A 
ATOM     48  N   UNL     1      -5.028   8.783  16.018  0.00  0.00    -0.291 N 
ATOM     49  C   UNL     1      -5.045   7.773  16.946  0.00  0.00    +0.207 A 
ATOM     50  N   UNL     1      -5.127   8.237  18.175  0.00  0.00    -0.216 NA
BRANCH  41  51
ATOM     51  C   UNL     1      -4.731  12.517  13.985  0.00  0.00    +0.085 C 
ATOM     52  C   UNL     1      -3.787  13.496  14.712  0.00  0.00    +0.030 C 
ATOM     53  C   UNL     1      -6.085  13.174  13.723  0.00  0.00    +0.030 C 
ENDBRANCH  41  51
ENDBRANCH  35  37
ENDBRANCH  31  33
ENDBRANCH  30  31
ENDBRANCH   1  30
TORSDOF 15
