REMARK VINA RESULT:    -5.031      4.018      9.828
REMARK INTER + INTRA:         -11.621
REMARK INTER:                  -9.473
REMARK INTRA:                  -2.147
REMARK UNBOUND:                -2.913
REMARK  Name = lig_assembled_93.pdb
REMARK  16 active torsions:
REMARK  status: ('A' for Active; 'I' for Inactive)
REMARK    1  A    between atoms: _2  and  _9
REMARK    2  A    between atoms: _4  and  _18
REMARK    3  A    between atoms: _6  and  _7
REMARK    4  A    between atoms: _6  and  _18
REMARK    5  A    between atoms: _14  and  _34
REMARK    6  A    between atoms: _16  and  _22
REMARK    7  A    between atoms: _17  and  _21
REMARK    8  A    between atoms: _21  and  _22
REMARK    9  A    between atoms: _24  and  _25
REMARK   10  A    between atoms: _26  and  _27
REMARK   11  A    between atoms: _28  and  _30
REMARK   12  A    between atoms: _30  and  _31
REMARK   13  A    between atoms: _30  and  _32
REMARK   14  A    between atoms: _32  and  _33
REMARK   15  A    between atoms: _32  and  _34
REMARK   16  A    between atoms: _35  and  _37
REMARK                            x       y       z     vdW  Elec       q    Type
REMARK                         _______ _______ _______ _____ _____    ______ ____
ROOT
ATOM      1  C   UNL     1      -3.270  11.692  25.150  0.00  0.00    +0.163 C 
ENDROOT
BRANCH   1   2
ATOM      2  O   UNL     1      -2.118  10.833  25.112  0.00  0.00    -0.388 OA
ATOM      3  H   UNL     1      -2.317  10.053  24.589  0.00  0.00    +0.210 HD
ENDBRANCH   1   2
BRANCH   1   4
ATOM      4  C   UNL     1      -2.971  12.998  24.421  0.00  0.00    +0.141 C 
BRANCH   4   7
ATOM      5  C   UNL     1      -4.921  13.444  22.969  0.00  0.00    +0.401 C 
ATOM      6  O   UNL     1      -5.661  13.763  23.903  0.00  0.00    -0.226 OA
ATOM      7  N   UNL     1      -3.651  13.067  23.121  0.00  0.00    -0.279 N 
ATOM      8  H   UNL     1      -3.126  12.815  22.295  0.00  0.00    +0.152 HD
BRANCH   5   9
ATOM      9  O   UNL     1      -5.435  13.469  21.635  0.00  0.00    -0.444 OA
BRANCH   9  10
ATOM     10  C   UNL     1      -5.700  12.133  21.201  0.00  0.00    +0.292 C 
BRANCH  10  12
ATOM     11  N   UNL     1      -6.821  12.279  19.007  0.00  0.00    -0.131 NA
ATOM     12  C   UNL     1      -5.690  12.062  19.728  0.00  0.00    +0.121 A 
ATOM     13  C   UNL     1      -4.655  11.800  18.860  0.00  0.00    +0.143 A 
ATOM     14  N   UNL     1      -5.202  11.885  17.591  0.00  0.00    -0.219 N 
ATOM     15  N   UNL     1      -6.517  12.164  17.723  0.00  0.00    -0.060 NA
BRANCH  14  16
ATOM     16  C   UNL     1      -4.541  11.731  16.332  0.00  0.00    +0.080 A 
ATOM     17  C   UNL     1      -4.156  12.908  15.646  0.00  0.00    +0.029 A 
ATOM     18  C   UNL     1      -3.521  12.860  14.402  0.00  0.00    +0.002 A 
ATOM     19  C   UNL     1      -3.252  11.639  13.808  0.00  0.00    +0.001 A 
ATOM     20  C   UNL     1      -3.613  10.464  14.463  0.00  0.00    +0.016 A 
ATOM     21  C   UNL     1      -4.253  10.492  15.721  0.00  0.00    +0.039 A 
ATOM     22  I   UNL     1      -4.667   8.552  16.457  0.00  0.00    -0.042 I 
ENDBRANCH  14  16
ENDBRANCH  10  12
ENDBRANCH   9  10
ENDBRANCH   5   9
ENDBRANCH   4   7
ENDBRANCH   1   4
BRANCH   1  23
ATOM     23  C   UNL     1      -3.683  11.995  26.600  0.00  0.00    +0.175 C 
BRANCH  23  24
ATOM     24  C   UNL     1      -3.404  10.813  27.540  0.00  0.00    +0.176 C 
ATOM     25  O   UNL     1      -4.044   9.635  26.979  0.00  0.00    -0.332 OA
ATOM     26  C   UNL     1      -3.795   8.378  27.691  0.00  0.00    +0.277 C 
ATOM     27  C   UNL     1      -4.176   8.519  29.186  0.00  0.00    +0.110 C 
ATOM     28  C   UNL     1      -3.543   9.777  29.818  0.00  0.00    +0.143 C 
ATOM     29  C   UNL     1      -3.863  11.025  28.995  0.00  0.00    +0.133 C 
BRANCH  29  30
ATOM     30  N   UNL     1      -3.183  12.202  29.558  0.00  0.00    -0.308 N 
ATOM     31  H   UNL     1      -2.173  12.221  29.533  0.00  0.00    +0.149 HD
ATOM     32  C   UNL     1      -3.814  13.247  30.101  0.00  0.00    +0.210 C 
ATOM     33  C   UNL     1      -5.352  13.176  30.148  0.00  0.00    +0.109 C 
ATOM     34  O   UNL     1      -3.219  14.226  30.553  0.00  0.00    -0.276 OA
ENDBRANCH  29  30
BRANCH  26  35
ATOM     35  C   UNL     1      -2.313   7.967  27.573  0.00  0.00    +0.414 C 
ATOM     36  O   UNL     1      -1.764   7.357  28.490  0.00  0.00    -0.240 OA
ATOM     37  O   UNL     1      -1.667   8.244  26.562  0.00  0.00    -0.240 OA
ENDBRANCH  26  35
BRANCH  28  38
ATOM     38  O   UNL     1      -4.039   9.949  31.146  0.00  0.00    -0.390 OA
ATOM     39  H   UNL     1      -4.258  10.873  31.289  0.00  0.00    +0.210 HD
ENDBRANCH  28  38
BRANCH  26  40
ATOM     40  O   UNL     1      -4.635   7.353  27.101  0.00  0.00    -0.343 OA
ATOM     41  C   UNL     1      -5.090   7.636  25.753  0.00  0.00    +0.198 C 
ENDBRANCH  26  40
ENDBRANCH  23  24
BRANCH  23  42
ATOM     42  O   UNL     1      -5.078  12.354  26.654  0.00  0.00    -0.387 OA
ATOM     43  H   UNL     1      -5.555  11.707  27.179  0.00  0.00    +0.210 HD
ENDBRANCH  23  42
ENDBRANCH   1  23
TORSDOF 14
