REMARK VINA RESULT:    -4.523      1.526      2.246
REMARK INTER + INTRA:         -11.306
REMARK INTER:                  -9.417
REMARK INTRA:                  -1.888
REMARK UNBOUND:                -3.213
REMARK  Name = lig_assembled_46.pdb
REMARK  17 active torsions:
REMARK  status: ('A' for Active; 'I' for Inactive)
REMARK    1  A    between atoms: _2  and  _9
REMARK    2  A    between atoms: _4  and  _19
REMARK    3  A    between atoms: _6  and  _7
REMARK    4  A    between atoms: _6  and  _19
REMARK    5  A    between atoms: _9  and  _10
REMARK    6  A    between atoms: _15  and  _35
REMARK    7  A    between atoms: _17  and  _23
REMARK    8  A    between atoms: _18  and  _22
REMARK    9  A    between atoms: _22  and  _23
REMARK   10  A    between atoms: _25  and  _26
REMARK   11  A    between atoms: _27  and  _28
REMARK   12  A    between atoms: _29  and  _31
REMARK   13  A    between atoms: _31  and  _32
REMARK   14  A    between atoms: _31  and  _33
REMARK   15  A    between atoms: _33  and  _34
REMARK   16  A    between atoms: _33  and  _35
REMARK   17  A    between atoms: _36  and  _38
REMARK                            x       y       z     vdW  Elec       q    Type
REMARK                         _______ _______ _______ _____ _____    ______ ____
ROOT
ATOM      1  C   UNL     1      -3.223  11.799  25.152  0.00  0.00    +0.163 C 
ENDROOT
BRANCH   1   2
ATOM      2  O   UNL     1      -2.046  10.978  25.055  0.00  0.00    -0.388 OA
ATOM      3  H   UNL     1      -1.321  11.402  25.520  0.00  0.00    +0.210 HD
ENDBRANCH   1   2
BRANCH   1   4
ATOM      4  C   UNL     1      -3.018  13.098  24.381  0.00  0.00    +0.141 C 
BRANCH   4   7
ATOM      5  C   UNL     1      -4.183  12.929  22.209  0.00  0.00    +0.401 C 
ATOM      6  O   UNL     1      -3.298  12.253  21.679  0.00  0.00    -0.226 OA
ATOM      7  N   UNL     1      -4.132  13.372  23.465  0.00  0.00    -0.279 N 
ATOM      8  H   UNL     1      -4.903  13.928  23.807  0.00  0.00    +0.152 HD
BRANCH   5   9
ATOM      9  O   UNL     1      -5.342  13.274  21.446  0.00  0.00    -0.444 OA
BRANCH   9  10
ATOM     10  C   UNL     1      -6.027  12.082  21.051  0.00  0.00    +0.292 C 
BRANCH  10  12
ATOM     11  N   UNL     1      -6.981  12.293  18.777  0.00  0.00    -0.131 NA
ATOM     12  C   UNL     1      -5.949  11.905  19.589  0.00  0.00    +0.120 A 
ATOM     13  C   UNL     1      -4.925  11.411  18.811  0.00  0.00    +0.137 A 
ATOM     14  N   UNL     1      -5.371  11.578  17.531  0.00  0.00    -0.247 N 
ATOM     15  N   UNL     1      -6.615  12.097  17.516  0.00  0.00    -0.065 NA
BRANCH  14  16
ATOM     16  C   UNL     1      -4.593  11.509  16.306  0.00  0.00    +0.180 C 
BRANCH  16  17
ATOM     17  C   UNL     1      -4.001  10.147  16.039  0.00  0.00    -0.026 A 
ATOM     18  C   UNL     1      -4.655   8.980  16.464  0.00  0.00    +0.005 A 
ATOM     19  C   UNL     1      -4.148   7.722  16.128  0.00  0.00    +0.000 A 
ATOM     20  C   UNL     1      -2.989   7.616  15.365  0.00  0.00    +0.000 A 
ATOM     21  C   UNL     1      -2.325   8.767  14.944  0.00  0.00    +0.000 A 
ATOM     22  C   UNL     1      -2.828  10.026  15.278  0.00  0.00    +0.005 A 
ENDBRANCH  16  17
ENDBRANCH  14  16
ENDBRANCH  10  12
ENDBRANCH   9  10
ENDBRANCH   5   9
ENDBRANCH   4   7
ENDBRANCH   1   4
BRANCH   1  23
ATOM     23  C   UNL     1      -3.550  12.119  26.621  0.00  0.00    +0.175 C 
BRANCH  23  24
ATOM     24  C   UNL     1      -3.350  10.902  27.536  0.00  0.00    +0.176 C 
ATOM     25  O   UNL     1      -3.995   9.760  26.909  0.00  0.00    -0.332 OA
ATOM     26  C   UNL     1      -3.816   8.476  27.594  0.00  0.00    +0.277 C 
ATOM     27  C   UNL     1      -4.265   8.584  29.072  0.00  0.00    +0.110 C 
ATOM     28  C   UNL     1      -3.629   9.803  29.772  0.00  0.00    +0.143 C 
ATOM     29  C   UNL     1      -3.873  11.084  28.973  0.00  0.00    +0.133 C 
BRANCH  29  30
ATOM     30  N   UNL     1      -3.190  12.223  29.605  0.00  0.00    -0.308 N 
ATOM     31  H   UNL     1      -2.180  12.210  29.634  0.00  0.00    +0.149 HD
ATOM     32  C   UNL     1      -3.816  13.274  30.142  0.00  0.00    +0.210 C 
ATOM     33  C   UNL     1      -5.356  13.251  30.105  0.00  0.00    +0.109 C 
ATOM     34  O   UNL     1      -3.217  14.221  30.652  0.00  0.00    -0.276 OA
ENDBRANCH  29  30
BRANCH  26  35
ATOM     35  C   UNL     1      -2.342   8.025  27.534  0.00  0.00    +0.414 C 
ATOM     36  O   UNL     1      -1.863   7.350  28.445  0.00  0.00    -0.240 OA
ATOM     37  O   UNL     1      -1.632   8.335  26.577  0.00  0.00    -0.240 OA
ENDBRANCH  26  35
BRANCH  26  38
ATOM     38  O   UNL     1      -4.654   7.494  26.932  0.00  0.00    -0.343 OA
ATOM     39  C   UNL     1      -5.328   7.968  25.739  0.00  0.00    +0.198 C 
ENDBRANCH  26  38
BRANCH  28  40
ATOM     40  O   UNL     1      -4.185   9.951  31.080  0.00  0.00    -0.390 OA
ATOM     41  H   UNL     1      -4.856   9.280  31.221  0.00  0.00    +0.210 HD
ENDBRANCH  28  40
ENDBRANCH  23  24
BRANCH  23  42
ATOM     42  O   UNL     1      -4.901  12.608  26.733  0.00  0.00    -0.387 OA
ATOM     43  H   UNL     1      -5.475  12.100  26.155  0.00  0.00    +0.210 HD
ENDBRANCH  23  42
ENDBRANCH   1  23
TORSDOF 15
