REMARK VINA RESULT:    -4.610      2.894      6.385
REMARK INTER + INTRA:         -11.097
REMARK INTER:                  -8.153
REMARK INTRA:                  -2.944
REMARK UNBOUND:                -2.848
REMARK  Name = lig_assembled_63.pdb
REMARK  17 active torsions:
REMARK  status: ('A' for Active; 'I' for Inactive)
REMARK    1  A    between atoms: _2  and  _11
REMARK    2  A    between atoms: _6  and  _20
REMARK    3  A    between atoms: _7  and  _15
REMARK    4  A    between atoms: _8  and  _9
REMARK    5  A    between atoms: _8  and  _20
REMARK    6  A    between atoms: _16  and  _36
REMARK    7  A    between atoms: _18  and  _24
REMARK    8  A    between atoms: _19  and  _23
REMARK    9  A    between atoms: _23  and  _24
REMARK   10  A    between atoms: _26  and  _27
REMARK   11  A    between atoms: _28  and  _29
REMARK   12  A    between atoms: _30  and  _32
REMARK   13  A    between atoms: _32  and  _33
REMARK   14  A    between atoms: _32  and  _34
REMARK   15  A    between atoms: _34  and  _35
REMARK   16  A    between atoms: _34  and  _36
REMARK   17  A    between atoms: _37  and  _39
REMARK                            x       y       z     vdW  Elec       q    Type
REMARK                         _______ _______ _______ _____ _____    ______ ____
ROOT
ATOM      1  C   UNL     1      -3.160  11.733  25.070  0.00  0.00    +0.163 C 
ENDROOT
BRANCH   1   2
ATOM      2  O   UNL     1      -2.038  10.836  25.046  0.00  0.00    -0.388 OA
ATOM      3  H   UNL     1      -1.291  11.246  25.490  0.00  0.00    +0.210 HD
ENDBRANCH   1   2
BRANCH   1   4
ATOM      4  C   UNL     1      -2.769  13.076  24.462  0.00  0.00    +0.141 C 
BRANCH   4   7
ATOM      5  C   UNL     1      -4.522  13.617  22.808  0.00  0.00    +0.401 C 
ATOM      6  O   UNL     1      -5.376  13.879  23.658  0.00  0.00    -0.226 OA
ATOM      7  N   UNL     1      -3.279  13.228  23.094  0.00  0.00    -0.279 N 
ATOM      8  H   UNL     1      -2.654  13.026  22.327  0.00  0.00    +0.152 HD
BRANCH   5   9
ATOM      9  O   UNL     1      -4.864  13.726  21.423  0.00  0.00    -0.444 OA
BRANCH   9  10
ATOM     10  C   UNL     1      -5.974  12.870  21.137  0.00  0.00    +0.292 C 
BRANCH  10  12
ATOM     11  N   UNL     1      -5.028  10.878  20.022  0.00  0.00    -0.131 NA
ATOM     12  C   UNL     1      -5.550  11.458  21.142  0.00  0.00    +0.121 A 
ATOM     13  C   UNL     1      -5.597  10.522  22.147  0.00  0.00    +0.145 A 
ATOM     14  N   UNL     1      -5.121   9.359  21.576  0.00  0.00    -0.200 N 
ATOM     15  N   UNL     1      -4.764   9.608  20.297  0.00  0.00    -0.059 NA
BRANCH  14  16
ATOM     16  C   UNL     1      -5.064   8.074  22.191  0.00  0.00    +0.173 A 
ATOM     17  C   UNL     1      -6.161   7.209  22.222  0.00  0.00    +0.096 A 
ATOM     18  C   UNL     1      -6.024   6.009  22.940  0.00  0.00    +0.024 A 
ATOM     19  C   UNL     1      -4.823   5.693  23.570  0.00  0.00    +0.021 A 
ATOM     20  C   UNL     1      -3.778   6.587  23.456  0.00  0.00    +0.113 A 
ATOM     21  N   UNL     1      -3.871   7.759  22.792  0.00  0.00    -0.235 NA
BRANCH  17  22
ATOM     22  C   UNL     1      -7.415   7.431  21.566  0.00  0.00    +0.103 C 
ATOM     23  N   UNL     1      -8.475   7.625  21.131  0.00  0.00    -0.191 NA
ENDBRANCH  17  22
ENDBRANCH  14  16
ENDBRANCH  10  12
ENDBRANCH   9  10
ENDBRANCH   5   9
ENDBRANCH   4   7
ENDBRANCH   1   4
BRANCH   1  24
ATOM     24  C   UNL     1      -3.664  11.947  26.508  0.00  0.00    +0.175 C 
BRANCH  24  25
ATOM     25  C   UNL     1      -3.389  10.730  27.403  0.00  0.00    +0.176 C 
ATOM     26  O   UNL     1      -4.020   9.572  26.791  0.00  0.00    -0.332 OA
ATOM     27  C   UNL     1      -3.774   8.289  27.456  0.00  0.00    +0.277 C 
ATOM     28  C   UNL     1      -4.167   8.370  28.951  0.00  0.00    +0.110 C 
ATOM     29  C   UNL     1      -3.545   9.604  29.638  0.00  0.00    +0.143 C 
ATOM     30  C   UNL     1      -3.861  10.882  28.861  0.00  0.00    +0.133 C 
BRANCH  30  31
ATOM     31  N   UNL     1      -3.190  12.038  29.476  0.00  0.00    -0.308 N 
ATOM     32  H   UNL     1      -2.180  12.037  29.506  0.00  0.00    +0.149 HD
ATOM     33  C   UNL     1      -3.829  13.089  29.998  0.00  0.00    +0.210 C 
ATOM     34  C   UNL     1      -5.368  13.049  29.960  0.00  0.00    +0.109 C 
ATOM     35  O   UNL     1      -3.241  14.051  30.494  0.00  0.00    -0.276 OA
ENDBRANCH  30  31
BRANCH  27  36
ATOM     36  C   UNL     1      -2.289   7.887  27.335  0.00  0.00    +0.414 C 
ATOM     37  O   UNL     1      -1.649   8.174  26.324  0.00  0.00    -0.240 OA
ATOM     38  O   UNL     1      -1.731   7.276  28.247  0.00  0.00    -0.240 OA
ENDBRANCH  27  36
BRANCH  27  39
ATOM     39  O   UNL     1      -4.605   7.285  26.818  0.00  0.00    -0.343 OA
ATOM     40  C   UNL     1      -5.963   7.706  26.533  0.00  0.00    +0.198 C 
ENDBRANCH  27  39
BRANCH  29  41
ATOM     41  O   UNL     1      -4.053   9.723  30.967  0.00  0.00    -0.390 OA
ATOM     42  H   UNL     1      -3.464  10.275  31.487  0.00  0.00    +0.210 HD
ENDBRANCH  29  41
ENDBRANCH  24  25
BRANCH  24  43
ATOM     43  O   UNL     1      -5.073  12.250  26.501  0.00  0.00    -0.387 OA
ATOM     44  H   UNL     1      -5.480  11.863  25.722  0.00  0.00    +0.210 HD
ENDBRANCH  24  43
ENDBRANCH   1  24
TORSDOF 15
