REMARK VINA RESULT:    -5.299      3.148     10.413
REMARK INTER + INTRA:         -12.655
REMARK INTER:                  -9.994
REMARK INTRA:                  -2.662
REMARK UNBOUND:                -2.554
REMARK  Name = lig_assembled_9.pdb
REMARK  20 active torsions:
REMARK  status: ('A' for Active; 'I' for Inactive)
REMARK    1  A    between atoms: _2  and  _9
REMARK    2  A    between atoms: _4  and  _23
REMARK    3  A    between atoms: _6  and  _7
REMARK    4  A    between atoms: _6  and  _23
REMARK    5  A    between atoms: _11  and  _12
REMARK    6  A    between atoms: _12  and  _17
REMARK    7  A    between atoms: _13  and  _14
REMARK    8  A    between atoms: _13  and  _17
REMARK    9  A    between atoms: _19  and  _39
REMARK   10  A    between atoms: _21  and  _27
REMARK   11  A    between atoms: _22  and  _26
REMARK   12  A    between atoms: _26  and  _27
REMARK   13  A    between atoms: _29  and  _30
REMARK   14  A    between atoms: _31  and  _32
REMARK   15  A    between atoms: _33  and  _35
REMARK   16  A    between atoms: _35  and  _36
REMARK   17  A    between atoms: _35  and  _37
REMARK   18  A    between atoms: _37  and  _38
REMARK   19  A    between atoms: _37  and  _39
REMARK   20  A    between atoms: _40  and  _42
REMARK                            x       y       z     vdW  Elec       q    Type
REMARK                         _______ _______ _______ _____ _____    ______ ____
ROOT
ATOM      1  C   UNL     1      -3.724  11.650  25.212  0.00  0.00    +0.163 C 
ENDROOT
BRANCH   1   2
ATOM      2  O   UNL     1      -2.657  10.706  25.018  0.00  0.00    -0.388 OA
ATOM      3  H   UNL     1      -1.822  11.112  25.261  0.00  0.00    +0.210 HD
ENDBRANCH   1   2
BRANCH   1   4
ATOM      4  C   UNL     1      -3.820  12.076  26.687  0.00  0.00    +0.175 C 
BRANCH   4   5
ATOM      5  C   UNL     1      -3.423  10.942  27.643  0.00  0.00    +0.176 C 
ATOM      6  O   UNL     1      -4.020   9.712  27.150  0.00  0.00    -0.332 OA
ATOM      7  C   UNL     1      -3.661   8.494  27.884  0.00  0.00    +0.277 C 
ATOM      8  C   UNL     1      -3.972   8.659  29.392  0.00  0.00    +0.110 C 
ATOM      9  C   UNL     1      -3.383   9.970  29.954  0.00  0.00    +0.143 C 
ATOM     10  C   UNL     1      -3.818  11.172  29.114  0.00  0.00    +0.133 C 
BRANCH  10  11
ATOM     11  N   UNL     1      -3.182  12.403  29.608  0.00  0.00    -0.308 N 
ATOM     12  H   UNL     1      -2.182  12.496  29.493  0.00  0.00    +0.149 HD
ATOM     13  C   UNL     1      -3.838  13.406  30.197  0.00  0.00    +0.210 C 
ATOM     14  C   UNL     1      -5.357  13.222  30.380  0.00  0.00    +0.109 C 
ATOM     15  O   UNL     1      -3.281  14.432  30.587  0.00  0.00    -0.276 OA
ENDBRANCH  10  11
BRANCH   7  16
ATOM     16  C   UNL     1      -2.165   8.165  27.699  0.00  0.00    +0.414 C 
ATOM     17  O   UNL     1      -1.590   8.463  26.653  0.00  0.00    -0.240 OA
ATOM     18  O   UNL     1      -1.534   7.603  28.594  0.00  0.00    -0.240 OA
ENDBRANCH   7  16
BRANCH   7  19
ATOM     19  O   UNL     1      -4.468   7.404  27.367  0.00  0.00    -0.343 OA
ATOM     20  C   UNL     1      -5.640   7.812  26.617  0.00  0.00    +0.198 C 
ENDBRANCH   7  19
BRANCH   9  21
ATOM     21  O   UNL     1      -3.820  10.155  31.301  0.00  0.00    -0.390 OA
ATOM     22  H   UNL     1      -4.294   9.374  31.595  0.00  0.00    +0.210 HD
ENDBRANCH   9  21
ENDBRANCH   4   5
BRANCH   4  23
ATOM     23  O   UNL     1      -5.154  12.534  26.986  0.00  0.00    -0.387 OA
ATOM     24  H   UNL     1      -5.128  13.125  27.742  0.00  0.00    +0.210 HD
ENDBRANCH   4  23
ENDBRANCH   1   4
BRANCH   1  25
ATOM     25  C   UNL     1      -3.497  12.880  24.340  0.00  0.00    +0.141 C 
BRANCH  25  28
ATOM     26  C   UNL     1      -5.669  13.710  23.504  0.00  0.00    +0.401 C 
ATOM     27  O   UNL     1      -5.962  14.281  24.557  0.00  0.00    -0.226 OA
ATOM     28  N   UNL     1      -4.539  13.026  23.317  0.00  0.00    -0.279 N 
ATOM     29  H   UNL     1      -4.393  12.583  22.420  0.00  0.00    +0.152 HD
BRANCH  26  30
ATOM     30  O   UNL     1      -6.582  13.767  22.406  0.00  0.00    -0.444 OA
BRANCH  30  31
ATOM     31  C   UNL     1      -6.964  12.440  22.032  0.00  0.00    +0.292 C 
BRANCH  31  33
ATOM     32  N   UNL     1      -7.544  12.733  19.644  0.00  0.00    -0.131 NA
ATOM     33  C   UNL     1      -6.711  12.221  20.596  0.00  0.00    +0.121 A 
ATOM     34  C   UNL     1      -5.689  11.539  19.979  0.00  0.00    +0.143 A 
ATOM     35  N   UNL     1      -5.920  11.696  18.631  0.00  0.00    -0.220 N 
ATOM     36  N   UNL     1      -7.062  12.403  18.453  0.00  0.00    -0.060 NA
BRANCH  35  37
ATOM     37  C   UNL     1      -5.130  11.253  17.539  0.00  0.00    +0.068 A 
ATOM     38  C   UNL     1      -4.810   9.897  17.395  0.00  0.00    +0.042 A 
ATOM     39  C   UNL     1      -4.002   9.468  16.331  0.00  0.00    +0.061 A 
ATOM     40  C   UNL     1      -3.518  10.403  15.408  0.00  0.00    +0.015 A 
ATOM     41  C   UNL     1      -3.846  11.753  15.541  0.00  0.00    +0.003 A 
ATOM     42  C   UNL     1      -4.650  12.180  16.600  0.00  0.00    +0.028 A 
BRANCH  39  43
ATOM     43  C   UNL     1      -3.688   8.032  16.109  0.00  0.00    +0.339 C 
ATOM     44  O   UNL     1      -3.844   7.166  16.955  0.00  0.00    -0.245 OA
BRANCH  43  45
ATOM     45  O   UNL     1      -3.124   7.869  14.887  0.00  0.00    -0.461 OA
BRANCH  45  46
ATOM     46  C   UNL     1      -1.979   7.008  14.844  0.00  0.00    +0.229 C 
ATOM     47  C   UNL     1      -0.787   7.785  15.370  0.00  0.00    +0.048 C 
ENDBRANCH  45  46
ENDBRANCH  43  45
ENDBRANCH  39  43
ENDBRANCH  35  37
ENDBRANCH  31  33
ENDBRANCH  30  31
ENDBRANCH  26  30
ENDBRANCH  25  28
ENDBRANCH   1  25
TORSDOF 17
