REMARK VINA RESULT:    -5.018      4.117     12.335
REMARK INTER + INTRA:         -12.043
REMARK INTER:                  -9.873
REMARK INTRA:                  -2.170
REMARK UNBOUND:                -3.358
REMARK  Name = lig_assembled_42.pdb
REMARK  16 active torsions:
REMARK  status: ('A' for Active; 'I' for Inactive)
REMARK    1  A    between atoms: _2  and  _9
REMARK    2  A    between atoms: _4  and  _21
REMARK    3  A    between atoms: _6  and  _7
REMARK    4  A    between atoms: _6  and  _21
REMARK    5  A    between atoms: _17  and  _37
REMARK    6  A    between atoms: _19  and  _25
REMARK    7  A    between atoms: _20  and  _24
REMARK    8  A    between atoms: _24  and  _25
REMARK    9  A    between atoms: _27  and  _28
REMARK   10  A    between atoms: _29  and  _30
REMARK   11  A    between atoms: _31  and  _33
REMARK   12  A    between atoms: _33  and  _34
REMARK   13  A    between atoms: _33  and  _35
REMARK   14  A    between atoms: _35  and  _36
REMARK   15  A    between atoms: _35  and  _37
REMARK   16  A    between atoms: _38  and  _40
REMARK                            x       y       z     vdW  Elec       q    Type
REMARK                         _______ _______ _______ _____ _____    ______ ____
ROOT
ATOM      1  C   UNL     1      -3.181  11.816  25.109  0.00  0.00    +0.163 C 
ENDROOT
BRANCH   1   2
ATOM      2  O   UNL     1      -1.983  11.023  25.061  0.00  0.00    -0.388 OA
ATOM      3  H   UNL     1      -1.484  11.146  25.872  0.00  0.00    +0.210 HD
ENDBRANCH   1   2
BRANCH   1   4
ATOM      4  C   UNL     1      -2.951  13.151  24.409  0.00  0.00    +0.141 C 
BRANCH   4   7
ATOM      5  C   UNL     1      -4.904  13.660  22.984  0.00  0.00    +0.401 C 
ATOM      6  O   UNL     1      -5.609  14.041  23.922  0.00  0.00    -0.226 OA
ATOM      7  N   UNL     1      -3.652  13.222  23.121  0.00  0.00    -0.279 N 
ATOM      8  H   UNL     1      -3.158  12.923  22.293  0.00  0.00    +0.152 HD
BRANCH   5   9
ATOM      9  O   UNL     1      -5.444  13.678  21.660  0.00  0.00    -0.444 OA
BRANCH   9  10
ATOM     10  C   UNL     1      -5.833  12.353  21.285  0.00  0.00    +0.292 C 
BRANCH  10  12
ATOM     11  N   UNL     1      -6.775  12.380  18.990  0.00  0.00    -0.131 NA
ATOM     12  C   UNL     1      -5.717  12.173  19.826  0.00  0.00    +0.121 A 
ATOM     13  C   UNL     1      -4.627  11.793  19.081  0.00  0.00    +0.143 A 
ATOM     14  N   UNL     1      -5.067  11.782  17.779  0.00  0.00    -0.220 N 
ATOM     15  N   UNL     1      -6.374  12.142  17.747  0.00  0.00    -0.060 NA
BRANCH  14  16
ATOM     16  C   UNL     1      -4.337  11.456  16.608  0.00  0.00    +0.071 A 
ATOM     17  C   UNL     1      -3.971  10.126  16.357  0.00  0.00    +0.077 A 
ATOM     18  C   UNL     1      -3.263   9.860  15.204  0.00  0.00    +0.168 A 
ATOM     19  O   UNL     1      -2.837   8.630  14.814  0.00  0.00    -0.453 OA
ATOM     20  C   UNL     1      -2.183   8.955  13.570  0.00  0.00    +0.466 C 
ATOM     21  O   UNL     1      -2.225  10.363  13.251  0.00  0.00    -0.453 OA
ATOM     22  C   UNL     1      -2.916  10.848  14.316  0.00  0.00    +0.166 A 
ATOM     23  C   UNL     1      -3.258  12.166  14.530  0.00  0.00    +0.051 A 
ATOM     24  C   UNL     1      -3.979  12.475  15.692  0.00  0.00    +0.031 A 
ENDBRANCH  14  16
ENDBRANCH  10  12
ENDBRANCH   9  10
ENDBRANCH   5   9
ENDBRANCH   4   7
ENDBRANCH   1   4
BRANCH   1  25
ATOM     25  C   UNL     1      -3.617  12.065  26.563  0.00  0.00    +0.175 C 
BRANCH  25  26
ATOM     26  C   UNL     1      -3.437  10.820  27.442  0.00  0.00    +0.176 C 
ATOM     27  O   UNL     1      -4.032   9.690  26.746  0.00  0.00    -0.332 OA
ATOM     28  C   UNL     1      -3.861   8.385  27.392  0.00  0.00    +0.277 C 
ATOM     29  C   UNL     1      -4.378   8.432  28.851  0.00  0.00    +0.110 C 
ATOM     30  C   UNL     1      -3.796   9.635  29.623  0.00  0.00    +0.143 C 
ATOM     31  C   UNL     1      -4.027  10.940  28.859  0.00  0.00    +0.133 C 
BRANCH  31  32
ATOM     32  N   UNL     1      -3.394  12.067  29.562  0.00  0.00    -0.308 N 
ATOM     33  H   UNL     1      -2.385  12.081  29.618  0.00  0.00    +0.149 HD
ATOM     34  C   UNL     1      -4.065  13.073  30.130  0.00  0.00    +0.210 C 
ATOM     35  C   UNL     1      -5.601  13.010  30.049  0.00  0.00    +0.109 C 
ATOM     36  O   UNL     1      -3.507  14.012  30.699  0.00  0.00    -0.276 OA
ENDBRANCH  31  32
BRANCH  28  37
ATOM     37  C   UNL     1      -2.377   7.961  27.384  0.00  0.00    +0.414 C 
ATOM     38  O   UNL     1      -1.666   8.210  26.411  0.00  0.00    -0.240 OA
ATOM     39  O   UNL     1      -1.891   7.371  28.350  0.00  0.00    -0.240 OA
ENDBRANCH  28  37
BRANCH  30  40
ATOM     40  O   UNL     1      -4.413   9.727  30.908  0.00  0.00    -0.390 OA
ATOM     41  H   UNL     1      -4.759   8.867  31.159  0.00  0.00    +0.210 HD
ENDBRANCH  30  40
BRANCH  28  42
ATOM     42  O   UNL     1      -4.650   7.414  26.658  0.00  0.00    -0.343 OA
ATOM     43  C   UNL     1      -4.834   7.713  25.251  0.00  0.00    +0.198 C 
ENDBRANCH  28  42
ENDBRANCH  25  26
BRANCH  25  44
ATOM     44  O   UNL     1      -4.989  12.505  26.601  0.00  0.00    -0.387 OA
ATOM     45  H   UNL     1      -5.395  12.363  25.742  0.00  0.00    +0.210 HD
ENDBRANCH  25  44
ENDBRANCH   1  25
TORSDOF 14
