REMARK VINA RESULT:    -4.509      4.049      9.235
REMARK INTER + INTRA:         -12.172
REMARK INTER:                 -10.005
REMARK INTRA:                  -2.167
REMARK UNBOUND:                -2.785
REMARK  Name = lig_assembled_54.pdb
REMARK  24 active torsions:
REMARK  status: ('A' for Active; 'I' for Inactive)
REMARK    1  A    between atoms: _2  and  _9
REMARK    2  A    between atoms: _4  and  _21
REMARK    3  A    between atoms: _5  and  _14
REMARK    4  A    between atoms: _6  and  _7
REMARK    5  A    between atoms: _6  and  _21
REMARK    6  A    between atoms: _9  and  _10
REMARK    7  A    between atoms: _10  and  _11
REMARK    8  A    between atoms: _11  and  _15
REMARK    9  A    between atoms: _11  and  _16
REMARK   10  A    between atoms: _12  and  _13
REMARK   11  A    between atoms: _12  and  _16
REMARK   12  A    between atoms: _14  and  _15
REMARK   13  A    between atoms: _17  and  _37
REMARK   14  A    between atoms: _19  and  _25
REMARK   15  A    between atoms: _20  and  _24
REMARK   16  A    between atoms: _24  and  _25
REMARK   17  A    between atoms: _27  and  _28
REMARK   18  A    between atoms: _29  and  _30
REMARK   19  A    between atoms: _31  and  _33
REMARK   20  A    between atoms: _33  and  _34
REMARK   21  A    between atoms: _33  and  _35
REMARK   22  A    between atoms: _35  and  _36
REMARK   23  A    between atoms: _35  and  _37
REMARK   24  A    between atoms: _38  and  _40
REMARK                            x       y       z     vdW  Elec       q    Type
REMARK                         _______ _______ _______ _____ _____    ______ ____
ROOT
ATOM      1  C   UNL     1      -3.231  11.603  24.846  0.00  0.00    +0.163 C 
ENDROOT
BRANCH   1   2
ATOM      2  O   UNL     1      -2.055  12.309  24.417  0.00  0.00    -0.388 OA
ATOM      3  H   UNL     1      -1.277  11.773  24.595  0.00  0.00    +0.210 HD
ENDBRANCH   1   2
BRANCH   1   4
ATOM      4  C   UNL     1      -3.560  11.924  26.314  0.00  0.00    +0.175 C 
BRANCH   4   5
ATOM      5  C   UNL     1      -3.378  10.702  27.227  0.00  0.00    +0.176 C 
ATOM      6  O   UNL     1      -4.003   9.561  26.576  0.00  0.00    -0.332 OA
ATOM      7  C   UNL     1      -3.836   8.274  27.258  0.00  0.00    +0.277 C 
ATOM      8  C   UNL     1      -4.323   8.371  28.724  0.00  0.00    +0.110 C 
ATOM      9  C   UNL     1      -3.710   9.588  29.448  0.00  0.00    +0.143 C 
ATOM     10  C   UNL     1      -3.939  10.873  28.651  0.00  0.00    +0.133 C 
BRANCH  10  11
ATOM     11  N   UNL     1      -3.276  12.011  29.307  0.00  0.00    -0.308 N 
ATOM     12  H   UNL     1      -2.266  12.019  29.330  0.00  0.00    +0.149 HD
ATOM     13  C   UNL     1      -3.922  13.034  29.873  0.00  0.00    +0.210 C 
ATOM     14  C   UNL     1      -5.461  12.979  29.844  0.00  0.00    +0.109 C 
ATOM     15  O   UNL     1      -3.340  13.982  30.402  0.00  0.00    -0.276 OA
ENDBRANCH  10  11
BRANCH   7  16
ATOM     16  C   UNL     1      -2.359   7.829  27.233  0.00  0.00    +0.414 C 
ATOM     17  O   UNL     1      -1.860   7.280  28.215  0.00  0.00    -0.240 OA
ATOM     18  O   UNL     1      -1.667   8.018  26.232  0.00  0.00    -0.240 OA
ENDBRANCH   7  16
BRANCH   9  19
ATOM     19  O   UNL     1      -4.300   9.726  30.742  0.00  0.00    -0.390 OA
ATOM     20  H   UNL     1      -5.229   9.492  30.697  0.00  0.00    +0.210 HD
ENDBRANCH   9  19
BRANCH   7  21
ATOM     21  O   UNL     1      -4.653   7.293  26.569  0.00  0.00    -0.343 OA
ATOM     22  C   UNL     1      -6.080   7.547  26.609  0.00  0.00    +0.198 C 
ENDBRANCH   7  21
ENDBRANCH   4   5
BRANCH   4  23
ATOM     23  O   UNL     1      -4.906  12.429  26.423  0.00  0.00    -0.387 OA
ATOM     24  H   UNL     1      -4.892  13.388  26.375  0.00  0.00    +0.210 HD
ENDBRANCH   4  23
ENDBRANCH   1   4
BRANCH   1  25
ATOM     25  C   UNL     1      -4.416  11.981  23.964  0.00  0.00    +0.141 C 
BRANCH  25  28
ATOM     26  C   UNL     1      -3.837  11.164  21.705  0.00  0.00    +0.401 C 
ATOM     27  O   UNL     1      -2.980  12.029  21.509  0.00  0.00    -0.226 OA
ATOM     28  N   UNL     1      -4.561  11.071  22.821  0.00  0.00    -0.279 N 
ATOM     29  H   UNL     1      -5.247  10.332  22.884  0.00  0.00    +0.152 HD
BRANCH  26  30
ATOM     30  O   UNL     1      -4.090  10.194  20.685  0.00  0.00    -0.444 OA
BRANCH  30  31
ATOM     31  C   UNL     1      -5.445  10.311  20.241  0.00  0.00    +0.292 C 
BRANCH  31  33
ATOM     32  N   UNL     1      -6.430  11.815  18.538  0.00  0.00    -0.131 NA
ATOM     33  C   UNL     1      -5.483  10.886  18.883  0.00  0.00    +0.120 A 
ATOM     34  C   UNL     1      -4.660  10.658  17.801  0.00  0.00    +0.137 A 
ATOM     35  N   UNL     1      -5.133  11.504  16.845  0.00  0.00    -0.251 N 
ATOM     36  N   UNL     1      -6.200  12.194  17.288  0.00  0.00    -0.065 NA
BRANCH  35  37
ATOM     37  C   UNL     1      -4.596  11.758  15.523  0.00  0.00    +0.150 C 
BRANCH  37  38
ATOM     38  C   UNL     1      -3.206  11.163  15.356  0.00  0.00    +0.084 C 
BRANCH  38  39
ATOM     39  C   UNL     1      -3.147  10.030  14.324  0.00  0.00    +0.252 C 
BRANCH  39  40
ATOM     40  O   UNL     1      -2.847   8.790  14.970  0.00  0.00    -0.352 OA
BRANCH  40  41
ATOM     41  C   UNL     1      -1.768   8.070  14.377  0.00  0.00    +0.159 C 
ATOM     42  C   UNL     1      -0.755   7.733  15.454  0.00  0.00    +0.034 C 
ENDBRANCH  40  41
ENDBRANCH  39  40
BRANCH  39  43
ATOM     43  O   UNL     1      -2.113  10.352  13.386  0.00  0.00    -0.352 OA
BRANCH  43  44
ATOM     44  C   UNL     1      -2.611  11.041  12.238  0.00  0.00    +0.159 C 
ATOM     45  C   UNL     1      -3.868  10.349  11.750  0.00  0.00    +0.034 C 
ENDBRANCH  43  44
ENDBRANCH  39  43
ENDBRANCH  38  39
ENDBRANCH  37  38
ENDBRANCH  35  37
ENDBRANCH  31  33
ENDBRANCH  30  31
ENDBRANCH  26  30
ENDBRANCH  25  28
ENDBRANCH   1  25
TORSDOF 20
