REMARK VINA RESULT:    -5.140      2.931      6.956
REMARK INTER + INTRA:         -12.358
REMARK INTER:                  -7.214
REMARK INTRA:                  -5.143
REMARK UNBOUND:                -2.560
REMARK  Name = lig_assembled_18.pdb
REMARK  19 active torsions:
REMARK  status: ('A' for Active; 'I' for Inactive)
REMARK    1  A    between atoms: _2  and  _10
REMARK    2  A    between atoms: _3  and  _12
REMARK    3  A    between atoms: _5  and  _21
REMARK    4  A    between atoms: _7  and  _8
REMARK    5  A    between atoms: _7  and  _21
REMARK    6  A    between atoms: _10  and  _11
REMARK    7  A    between atoms: _12  and  _13
REMARK    8  A    between atoms: _17  and  _37
REMARK    9  A    between atoms: _19  and  _25
REMARK   10  A    between atoms: _20  and  _24
REMARK   11  A    between atoms: _24  and  _25
REMARK   12  A    between atoms: _27  and  _28
REMARK   13  A    between atoms: _29  and  _30
REMARK   14  A    between atoms: _31  and  _33
REMARK   15  A    between atoms: _33  and  _34
REMARK   16  A    between atoms: _33  and  _35
REMARK   17  A    between atoms: _35  and  _36
REMARK   18  A    between atoms: _35  and  _37
REMARK   19  A    between atoms: _38  and  _40
REMARK                            x       y       z     vdW  Elec       q    Type
REMARK                         _______ _______ _______ _____ _____    ______ ____
ROOT
ATOM      1  C   UNL     1      -4.145  13.190  25.221  0.00  0.00    +0.163 C 
ENDROOT
BRANCH   1   2
ATOM      2  O   UNL     1      -4.890  13.879  24.204  0.00  0.00    -0.388 OA
ATOM      3  H   UNL     1      -4.717  14.822  24.263  0.00  0.00    +0.210 HD
ENDBRANCH   1   2
BRANCH   1   4
ATOM      4  C   UNL     1      -4.955  12.015  25.796  0.00  0.00    +0.175 C 
BRANCH   4   5
ATOM      5  C   UNL     1      -4.157  11.218  26.838  0.00  0.00    +0.176 C 
ATOM      6  O   UNL     1      -4.121   9.829  26.407  0.00  0.00    -0.332 OA
ATOM      7  C   UNL     1      -3.306   8.931  27.230  0.00  0.00    +0.277 C 
ATOM      8  C   UNL     1      -3.747   9.007  28.712  0.00  0.00    +0.110 C 
ATOM      9  C   UNL     1      -3.831  10.466  29.207  0.00  0.00    +0.143 C 
ATOM     10  C   UNL     1      -4.700  11.313  28.276  0.00  0.00    +0.133 C 
BRANCH  10  11
ATOM     11  N   UNL     1      -4.701  12.719  28.709  0.00  0.00    -0.308 N 
ATOM     12  H   UNL     1      -3.816  13.205  28.737  0.00  0.00    +0.149 HD
ATOM     13  C   UNL     1      -5.796  13.395  29.067  0.00  0.00    +0.210 C 
ATOM     14  C   UNL     1      -7.126  12.619  29.039  0.00  0.00    +0.109 C 
ATOM     15  O   UNL     1      -5.769  14.577  29.412  0.00  0.00    -0.276 OA
ENDBRANCH  10  11
BRANCH   7  16
ATOM     16  C   UNL     1      -1.810   9.291  27.118  0.00  0.00    +0.414 C 
ATOM     17  O   UNL     1      -1.034   9.009  28.029  0.00  0.00    -0.240 OA
ATOM     18  O   UNL     1      -1.380   9.865  26.116  0.00  0.00    -0.240 OA
ENDBRANCH   7  16
BRANCH   7  19
ATOM     19  O   UNL     1      -3.518   7.575  26.759  0.00  0.00    -0.343 OA
ATOM     20  C   UNL     1      -3.335   6.543  27.761  0.00  0.00    +0.198 C 
ENDBRANCH   7  19
BRANCH   9  21
ATOM     21  O   UNL     1      -4.384  10.498  30.524  0.00  0.00    -0.390 OA
ATOM     22  H   UNL     1      -5.310  10.743  30.477  0.00  0.00    +0.210 HD
ENDBRANCH   9  21
ENDBRANCH   4   5
BRANCH   4  23
ATOM     23  O   UNL     1      -5.392  11.146  24.732  0.00  0.00    -0.387 OA
ATOM     24  H   UNL     1      -6.226  11.464  24.381  0.00  0.00    +0.210 HD
ENDBRANCH   4  23
ENDBRANCH   1   4
BRANCH   1  25
ATOM     25  C   UNL     1      -2.833  12.670  24.643  0.00  0.00    +0.141 C 
BRANCH  25  28
ATOM     26  C   UNL     1      -3.030  11.285  22.606  0.00  0.00    +0.401 C 
ATOM     27  O   UNL     1      -3.074  10.218  23.222  0.00  0.00    -0.226 OA
ATOM     28  N   UNL     1      -2.912  12.478  23.190  0.00  0.00    -0.279 N 
ATOM     29  H   UNL     1      -2.875  13.297  22.599  0.00  0.00    +0.152 HD
BRANCH  26  30
ATOM     30  O   UNL     1      -3.105  11.266  21.179  0.00  0.00    -0.444 OA
BRANCH  30  31
ATOM     31  C   UNL     1      -4.184  12.099  20.746  0.00  0.00    +0.292 C 
BRANCH  31  33
ATOM     32  N   UNL     1      -6.186  12.372  22.182  0.00  0.00    -0.131 NA
ATOM     33  C   UNL     1      -5.462  11.613  21.301  0.00  0.00    +0.120 A 
ATOM     34  C   UNL     1      -6.125  10.429  21.078  0.00  0.00    +0.137 A 
ATOM     35  N   UNL     1      -7.259  10.537  21.828  0.00  0.00    -0.242 N 
ATOM     36  N   UNL     1      -7.281  11.698  22.508  0.00  0.00    -0.065 NA
BRANCH  35  37
ATOM     37  C   UNL     1      -8.293   9.554  22.046  0.00  0.00    +0.240 C 
BRANCH  37  38
ATOM     38  C   UNL     1      -7.810   8.389  22.880  0.00  0.00    +0.235 C 
ATOM     39  O   UNL     1      -7.942   7.223  22.514  0.00  0.00    -0.274 OA
ATOM     40  N   UNL     1      -7.161   8.734  24.049  0.00  0.00    -0.309 N 
ATOM     41  H   UNL     1      -7.215   9.679  24.401  0.00  0.00    +0.149 HD
BRANCH  40  42
ATOM     42  C   UNL     1      -6.629   7.726  24.943  0.00  0.00    +0.146 C 
BRANCH  42  43
ATOM     43  C   UNL     1      -7.068   8.014  26.342  0.00  0.00    +0.007 A 
ATOM     44  S   UNL     1      -7.854   9.487  26.728  0.00  0.00    -0.100 S 
ATOM     45  C   UNL     1      -7.945   9.081  28.386  0.00  0.00    +0.045 A 
ATOM     46  C   UNL     1      -7.404   7.841  28.646  0.00  0.00    +0.008 A 
ATOM     47  C   UNL     1      -6.905   7.222  27.464  0.00  0.00    +0.013 A 
ENDBRANCH  42  43
ENDBRANCH  40  42
ENDBRANCH  37  38
ENDBRANCH  35  37
ENDBRANCH  31  33
ENDBRANCH  30  31
ENDBRANCH  26  30
ENDBRANCH  25  28
ENDBRANCH   1  25
TORSDOF 17
