REMARK VINA RESULT:    -4.615      0.964      1.803
REMARK INTER + INTRA:         -12.049
REMARK INTER:                  -9.466
REMARK INTRA:                  -2.583
REMARK UNBOUND:                -3.657
REMARK  Name = lig_assembled_88.pdb
REMARK  18 active torsions:
REMARK  status: ('A' for Active; 'I' for Inactive)
REMARK    1  A    between atoms: _2  and  _9
REMARK    2  A    between atoms: _4  and  _20
REMARK    3  A    between atoms: _5  and  _15
REMARK    4  A    between atoms: _6  and  _7
REMARK    5  A    between atoms: _6  and  _20
REMARK    6  A    between atoms: _9  and  _10
REMARK    7  A    between atoms: _16  and  _36
REMARK    8  A    between atoms: _18  and  _24
REMARK    9  A    between atoms: _19  and  _23
REMARK   10  A    between atoms: _23  and  _24
REMARK   11  A    between atoms: _26  and  _27
REMARK   12  A    between atoms: _28  and  _29
REMARK   13  A    between atoms: _30  and  _32
REMARK   14  A    between atoms: _32  and  _33
REMARK   15  A    between atoms: _32  and  _34
REMARK   16  A    between atoms: _34  and  _35
REMARK   17  A    between atoms: _34  and  _36
REMARK   18  A    between atoms: _37  and  _39
REMARK                            x       y       z     vdW  Elec       q    Type
REMARK                         _______ _______ _______ _____ _____    ______ ____
ROOT
ATOM      1  C   UNL     1      -3.241  11.791  25.100  0.00  0.00    +0.163 C 
ENDROOT
BRANCH   1   2
ATOM      2  O   UNL     1      -2.142  10.869  25.027  0.00  0.00    -0.388 OA
ATOM      3  H   UNL     1      -2.451  10.028  24.681  0.00  0.00    +0.210 HD
ENDBRANCH   1   2
BRANCH   1   4
ATOM      4  C   UNL     1      -3.584  12.124  26.562  0.00  0.00    +0.175 C 
BRANCH   4   5
ATOM      5  C   UNL     1      -3.371  10.922  27.494  0.00  0.00    +0.176 C 
ATOM      6  O   UNL     1      -4.004   9.765  26.883  0.00  0.00    -0.332 OA
ATOM      7  C   UNL     1      -3.812   8.492  27.585  0.00  0.00    +0.277 C 
ATOM      8  C   UNL     1      -4.260   8.616  29.061  0.00  0.00    +0.110 C 
ATOM      9  C   UNL     1      -3.637   9.851  29.745  0.00  0.00    +0.143 C 
ATOM     10  C   UNL     1      -3.895  11.118  28.929  0.00  0.00    +0.133 C 
BRANCH  10  11
ATOM     11  N   UNL     1      -3.222  12.273  29.544  0.00  0.00    -0.308 N 
ATOM     12  H   UNL     1      -2.212  12.267  29.579  0.00  0.00    +0.149 HD
ATOM     13  C   UNL     1      -3.859  13.328  30.059  0.00  0.00    +0.210 C 
ATOM     14  C   UNL     1      -5.398  13.295  30.013  0.00  0.00    +0.109 C 
ATOM     15  O   UNL     1      -3.269  14.289  30.555  0.00  0.00    -0.276 OA
ENDBRANCH  10  11
BRANCH   7  16
ATOM     16  C   UNL     1      -2.333   8.056  27.530  0.00  0.00    +0.414 C 
ATOM     17  O   UNL     1      -1.810   7.512  28.502  0.00  0.00    -0.240 OA
ATOM     18  O   UNL     1      -1.663   8.247  26.514  0.00  0.00    -0.240 OA
ENDBRANCH   7  16
BRANCH   7  19
ATOM     19  O   UNL     1      -4.640   7.493  26.937  0.00  0.00    -0.343 OA
ATOM     20  C   UNL     1      -5.696   8.023  26.096  0.00  0.00    +0.198 C 
ENDBRANCH   7  19
BRANCH   9  21
ATOM     21  O   UNL     1      -4.192  10.011  31.051  0.00  0.00    -0.390 OA
ATOM     22  H   UNL     1      -3.996   9.235  31.580  0.00  0.00    +0.210 HD
ENDBRANCH   9  21
ENDBRANCH   4   5
BRANCH   4  23
ATOM     23  O   UNL     1      -4.944  12.592  26.659  0.00  0.00    -0.387 OA
ATOM     24  H   UNL     1      -5.458  11.976  27.186  0.00  0.00    +0.210 HD
ENDBRANCH   4  23
ENDBRANCH   1   4
BRANCH   1  25
ATOM     25  C   UNL     1      -2.895  13.075  24.353  0.00  0.00    +0.141 C 
BRANCH  25  28
ATOM     26  C   UNL     1      -4.908  13.843  23.141  0.00  0.00    +0.401 C 
ATOM     27  O   UNL     1      -5.452  14.305  24.147  0.00  0.00    -0.226 OA
ATOM     28  N   UNL     1      -3.716  13.245  23.147  0.00  0.00    -0.279 N 
ATOM     29  H   UNL     1      -3.357  12.889  22.272  0.00  0.00    +0.152 HD
BRANCH  26  30
ATOM     30  O   UNL     1      -5.579  13.938  21.883  0.00  0.00    -0.444 OA
BRANCH  30  31
ATOM     31  C   UNL     1      -6.545  12.889  21.776  0.00  0.00    +0.292 C 
BRANCH  31  33
ATOM     32  N   UNL     1      -4.849  11.472  20.660  0.00  0.00    -0.131 NA
ATOM     33  C   UNL     1      -6.142  11.918  20.741  0.00  0.00    +0.120 A 
ATOM     34  C   UNL     1      -6.884  11.335  19.738  0.00  0.00    +0.137 A 
ATOM     35  N   UNL     1      -5.968  10.605  19.038  0.00  0.00    -0.247 N 
ATOM     36  N   UNL     1      -4.758  10.649  19.624  0.00  0.00    -0.065 NA
BRANCH  35  37
ATOM     37  C   UNL     1      -6.154   9.905  17.775  0.00  0.00    +0.184 C 
BRANCH  37  38
ATOM     38  C   UNL     1      -5.063  10.198  16.765  0.00  0.00    +0.017 A 
ATOM     39  C   UNL     1      -4.125   9.226  16.363  0.00  0.00    +0.024 A 
ATOM     40  C   UNL     1      -3.132   9.532  15.429  0.00  0.00    +0.019 A 
ATOM     41 BR   UNL     1      -1.861   8.216  14.951  0.00  0.00    -0.050 Br
ATOM     42  C   UNL     1      -3.065  10.793  14.847  0.00  0.00    +0.034 A 
ATOM     43  C   UNL     1      -4.014  11.750  15.198  0.00  0.00    +0.061 A 
ATOM     44 BR   UNL     1      -3.941  13.456  14.376  0.00  0.00    -0.046 Br
ATOM     45  C   UNL     1      -5.005  11.453  16.144  0.00  0.00    +0.136 A 
BRANCH  45  46
ATOM     46  O   UNL     1      -5.953  12.382  16.486  0.00  0.00    -0.505 OA
ATOM     47  H   UNL     1      -6.419  12.050  17.276  0.00  0.00    +0.292 HD
ENDBRANCH  45  46
ENDBRANCH  37  38
ENDBRANCH  35  37
ENDBRANCH  31  33
ENDBRANCH  30  31
ENDBRANCH  26  30
ENDBRANCH  25  28
ENDBRANCH   1  25
TORSDOF 16
