REMARK VINA RESULT:    -3.625      4.640      9.479
REMARK INTER + INTRA:         -11.972
REMARK INTER:                  -9.291
REMARK INTRA:                  -2.680
REMARK UNBOUND:                -4.638
REMARK  Name = lig_assembled_11.pdb
REMARK  22 active torsions:
REMARK  status: ('A' for Active; 'I' for Inactive)
REMARK    1  A    between atoms: _2  and  _9
REMARK    2  A    between atoms: _4  and  _21
REMARK    3  A    between atoms: _5  and  _9
REMARK    4  A    between atoms: _5  and  _13
REMARK    5  A    between atoms: _6  and  _7
REMARK    6  A    between atoms: _6  and  _21
REMARK    7  A    between atoms: _9  and  _10
REMARK    8  A    between atoms: _10  and  _11
REMARK    9  A    between atoms: _11  and  _12
REMARK   10  A    between atoms: _12  and  _15
REMARK   11  A    between atoms: _17  and  _37
REMARK   12  A    between atoms: _19  and  _25
REMARK   13  A    between atoms: _20  and  _24
REMARK   14  A    between atoms: _24  and  _25
REMARK   15  A    between atoms: _27  and  _28
REMARK   16  A    between atoms: _29  and  _30
REMARK   17  A    between atoms: _31  and  _33
REMARK   18  A    between atoms: _33  and  _34
REMARK   19  A    between atoms: _33  and  _35
REMARK   20  A    between atoms: _35  and  _36
REMARK   21  A    between atoms: _35  and  _37
REMARK   22  A    between atoms: _38  and  _40
REMARK                            x       y       z     vdW  Elec       q    Type
REMARK                         _______ _______ _______ _____ _____    ______ ____
ROOT
ATOM      1  C   UNL     1      -3.315  11.770  25.088  0.00  0.00    +0.163 C 
ENDROOT
BRANCH   1   2
ATOM      2  O   UNL     1      -1.977  11.250  25.164  0.00  0.00    -0.388 OA
ATOM      3  H   UNL     1      -1.762  11.049  26.078  0.00  0.00    +0.210 HD
ENDBRANCH   1   2
BRANCH   1   4
ATOM      4  C   UNL     1      -3.919  11.939  26.492  0.00  0.00    +0.175 C 
BRANCH   4   5
ATOM      5  C   UNL     1      -3.527  10.789  27.433  0.00  0.00    +0.176 C 
ATOM      6  O   UNL     1      -4.099   9.562  26.902  0.00  0.00    -0.332 OA
ATOM      7  C   UNL     1      -3.739   8.334  27.617  0.00  0.00    +0.277 C 
ATOM      8  C   UNL     1      -4.081   8.464  29.121  0.00  0.00    +0.110 C 
ATOM      9  C   UNL     1      -3.521   9.769  29.723  0.00  0.00    +0.143 C 
ATOM     10  C   UNL     1      -3.954  10.983  28.900  0.00  0.00    +0.133 C 
BRANCH  10  11
ATOM     11  N   UNL     1      -3.343  12.211  29.431  0.00  0.00    -0.308 N 
ATOM     12  H   UNL     1      -2.336  12.289  29.399  0.00  0.00    +0.149 HD
ATOM     13  C   UNL     1      -4.031  13.229  29.954  0.00  0.00    +0.210 C 
ATOM     14  C   UNL     1      -5.562  13.068  30.013  0.00  0.00    +0.109 C 
ATOM     15  O   UNL     1      -3.493  14.253  30.379  0.00  0.00    -0.276 OA
ENDBRANCH  10  11
BRANCH   7  16
ATOM     16  C   UNL     1      -2.236   8.028  27.455  0.00  0.00    +0.414 C 
ATOM     17  O   UNL     1      -1.631   8.404  26.451  0.00  0.00    -0.240 OA
ATOM     18  O   UNL     1      -1.628   7.405  28.326  0.00  0.00    -0.240 OA
ENDBRANCH   7  16
BRANCH   7  19
ATOM     19  O   UNL     1      -4.522   7.246  27.062  0.00  0.00    -0.343 OA
ATOM     20  C   UNL     1      -5.082   7.502  25.749  0.00  0.00    +0.198 C 
ENDBRANCH   7  19
BRANCH   9  21
ATOM     21  O   UNL     1      -3.986   9.921  31.065  0.00  0.00    -0.390 OA
ATOM     22  H   UNL     1      -4.946   9.928  31.072  0.00  0.00    +0.210 HD
ENDBRANCH   9  21
ENDBRANCH   4   5
BRANCH   4  23
ATOM     23  O   UNL     1      -5.355  12.042  26.406  0.00  0.00    -0.387 OA
ATOM     24  H   UNL     1      -5.677  12.620  27.101  0.00  0.00    +0.210 HD
ENDBRANCH   4  23
ENDBRANCH   1   4
BRANCH   1  25
ATOM     25  C   UNL     1      -3.312  13.114  24.369  0.00  0.00    +0.141 C 
BRANCH  25  28
ATOM     26  C   UNL     1      -4.212  12.965  22.072  0.00  0.00    +0.401 C 
ATOM     27  O   UNL     1      -3.130  12.655  21.568  0.00  0.00    -0.226 OA
ATOM     28  N   UNL     1      -4.387  13.204  23.373  0.00  0.00    -0.279 N 
ATOM     29  H   UNL     1      -5.311  13.462  23.690  0.00  0.00    +0.152 HD
BRANCH  26  30
ATOM     30  O   UNL     1      -5.362  13.086  21.231  0.00  0.00    -0.444 OA
BRANCH  30  31
ATOM     31  C   UNL     1      -6.118  11.873  21.279  0.00  0.00    +0.292 C 
BRANCH  31  33
ATOM     32  N   UNL     1      -5.135   9.747  20.478  0.00  0.00    -0.131 NA
ATOM     33  C   UNL     1      -5.699  10.961  20.198  0.00  0.00    +0.120 A 
ATOM     34  C   UNL     1      -5.782  11.112  18.833  0.00  0.00    +0.138 A 
ATOM     35  N   UNL     1      -5.213   9.976  18.332  0.00  0.00    -0.238 N 
ATOM     36  N   UNL     1      -4.853   9.146  19.330  0.00  0.00    -0.065 NA
BRANCH  35  37
ATOM     37  C   UNL     1      -5.086   9.510  16.956  0.00  0.00    +0.217 C 
BRANCH  37  38
ATOM     38  C   UNL     1      -5.011   7.996  16.824  0.00  0.00    +0.330 C 
ATOM     39  O   UNL     1      -5.943   7.254  16.557  0.00  0.00    -0.249 OA
BRANCH  38  40
ATOM     40  O   UNL     1      -3.773   7.485  17.043  0.00  0.00    -0.479 OA
ATOM     41  H   UNL     1      -3.515   6.702  16.519  0.00  0.00    +0.295 HD
ENDBRANCH  38  40
ENDBRANCH  37  38
BRANCH  37  42
ATOM     42  C   UNL     1      -3.946  10.227  16.211  0.00  0.00    +0.049 C 
BRANCH  42  43
ATOM     43  C   UNL     1      -4.043  10.179  14.680  0.00  0.00    +0.123 C 
BRANCH  43  44
ATOM     44  C   UNL     1      -2.753   9.679  14.071  0.00  0.00    +0.305 C 
ATOM     45  O   UNL     1      -2.082  10.296  13.260  0.00  0.00    -0.251 OA
BRANCH  44  46
ATOM     46  O   UNL     1      -2.417   8.444  14.504  0.00  0.00    -0.481 OA
ATOM     47  H   UNL     1      -1.945   7.898  13.847  0.00  0.00    +0.295 HD
ENDBRANCH  44  46
ENDBRANCH  43  44
ENDBRANCH  42  43
ENDBRANCH  37  42
ENDBRANCH  35  37
ENDBRANCH  31  33
ENDBRANCH  30  31
ENDBRANCH  26  30
ENDBRANCH  25  28
ENDBRANCH   1  25
TORSDOF 20
