REMARK VINA RESULT:    -4.547      3.494      8.650
REMARK INTER + INTRA:         -12.251
REMARK INTER:                  -9.510
REMARK INTRA:                  -2.741
REMARK UNBOUND:                -2.785
REMARK  Name = lig_assembled_54.pdb
REMARK  24 active torsions:
REMARK  status: ('A' for Active; 'I' for Inactive)
REMARK    1  A    between atoms: _2  and  _9
REMARK    2  A    between atoms: _4  and  _21
REMARK    3  A    between atoms: _5  and  _14
REMARK    4  A    between atoms: _6  and  _7
REMARK    5  A    between atoms: _6  and  _21
REMARK    6  A    between atoms: _9  and  _10
REMARK    7  A    between atoms: _10  and  _11
REMARK    8  A    between atoms: _11  and  _15
REMARK    9  A    between atoms: _11  and  _16
REMARK   10  A    between atoms: _12  and  _13
REMARK   11  A    between atoms: _12  and  _16
REMARK   12  A    between atoms: _14  and  _15
REMARK   13  A    between atoms: _17  and  _37
REMARK   14  A    between atoms: _19  and  _25
REMARK   15  A    between atoms: _20  and  _24
REMARK   16  A    between atoms: _24  and  _25
REMARK   17  A    between atoms: _27  and  _28
REMARK   18  A    between atoms: _29  and  _30
REMARK   19  A    between atoms: _31  and  _33
REMARK   20  A    between atoms: _33  and  _34
REMARK   21  A    between atoms: _33  and  _35
REMARK   22  A    between atoms: _35  and  _36
REMARK   23  A    between atoms: _35  and  _37
REMARK   24  A    between atoms: _38  and  _40
REMARK                            x       y       z     vdW  Elec       q    Type
REMARK                         _______ _______ _______ _____ _____    ______ ____
ROOT
ATOM      1  C   UNL     1      -3.276  11.844  25.138  0.00  0.00    +0.163 C 
ENDROOT
BRANCH   1   2
ATOM      2  O   UNL     1      -2.165  10.941  25.023  0.00  0.00    -0.388 OA
ATOM      3  H   UNL     1      -2.223  10.464  24.191  0.00  0.00    +0.210 HD
ENDBRANCH   1   2
BRANCH   1   4
ATOM      4  C   UNL     1      -3.601  12.132  26.614  0.00  0.00    +0.175 C 
BRANCH   4   5
ATOM      5  C   UNL     1      -3.347  10.911  27.510  0.00  0.00    +0.176 C 
ATOM      6  O   UNL     1      -3.976   9.758  26.884  0.00  0.00    -0.332 OA
ATOM      7  C   UNL     1      -3.746   8.472  27.549  0.00  0.00    +0.277 C 
ATOM      8  C   UNL     1      -4.163   8.551  29.039  0.00  0.00    +0.110 C 
ATOM      9  C   UNL     1      -3.544   9.780  29.738  0.00  0.00    +0.143 C 
ATOM     10  C   UNL     1      -3.841  11.062  28.960  0.00  0.00    +0.133 C 
BRANCH  10  11
ATOM     11  N   UNL     1      -3.174  12.213  29.589  0.00  0.00    -0.308 N 
ATOM     12  H   UNL     1      -2.164  12.226  29.597  0.00  0.00    +0.149 HD
ATOM     13  C   UNL     1      -3.816  13.241  30.151  0.00  0.00    +0.210 C 
ATOM     14  C   UNL     1      -5.355  13.178  30.146  0.00  0.00    +0.109 C 
ATOM     15  O   UNL     1      -3.231  14.199  30.657  0.00  0.00    -0.276 OA
ENDBRANCH  10  11
BRANCH   7  16
ATOM     16  C   UNL     1      -2.262   8.062  27.450  0.00  0.00    +0.414 C 
ATOM     17  O   UNL     1      -1.609   8.334  26.443  0.00  0.00    -0.240 OA
ATOM     18  O   UNL     1      -1.718   7.460  28.377  0.00  0.00    -0.240 OA
ENDBRANCH   7  16
BRANCH   9  19
ATOM     19  O   UNL     1      -4.072   9.898  31.060  0.00  0.00    -0.390 OA
ATOM     20  H   UNL     1      -3.858   9.109  31.563  0.00  0.00    +0.210 HD
ENDBRANCH   9  19
BRANCH   7  21
ATOM     21  O   UNL     1      -4.573   7.475  26.896  0.00  0.00    -0.343 OA
ATOM     22  C   UNL     1      -5.681   8.007  26.128  0.00  0.00    +0.198 C 
ENDBRANCH   7  21
ENDBRANCH   4   5
BRANCH   4  23
ATOM     23  O   UNL     1      -4.969  12.568  26.745  0.00  0.00    -0.387 OA
ATOM     24  H   UNL     1      -5.084  13.405  26.288  0.00  0.00    +0.210 HD
ENDBRANCH   4  23
ENDBRANCH   1   4
BRANCH   1  25
ATOM     25  C   UNL     1      -2.960  13.153  24.421  0.00  0.00    +0.141 C 
BRANCH  25  28
ATOM     26  C   UNL     1      -5.064  13.991  23.434  0.00  0.00    +0.401 C 
ATOM     27  O   UNL     1      -5.523  14.383  24.510  0.00  0.00    -0.226 OA
ATOM     28  N   UNL     1      -3.877  13.400  23.302  0.00  0.00    -0.279 N 
ATOM     29  H   UNL     1      -3.591  13.104  22.378  0.00  0.00    +0.152 HD
BRANCH  26  30
ATOM     30  O   UNL     1      -5.837  14.168  22.244  0.00  0.00    -0.444 OA
BRANCH  30  31
ATOM     31  C   UNL     1      -6.467  12.932  21.896  0.00  0.00    +0.292 C 
BRANCH  31  33
ATOM     32  N   UNL     1      -4.566  11.680  20.920  0.00  0.00    -0.131 NA
ATOM     33  C   UNL     1      -5.769  12.314  20.752  0.00  0.00    +0.120 A 
ATOM     34  C   UNL     1      -6.142  12.231  19.428  0.00  0.00    +0.137 A 
ATOM     35  N   UNL     1      -5.146  11.503  18.852  0.00  0.00    -0.251 N 
ATOM     36  N   UNL     1      -4.197  11.179  19.749  0.00  0.00    -0.065 NA
BRANCH  35  37
ATOM     37  C   UNL     1      -5.053  11.028  17.486  0.00  0.00    +0.150 C 
BRANCH  37  38
ATOM     38  C   UNL     1      -4.210  11.955  16.623  0.00  0.00    +0.084 C 
BRANCH  38  39
ATOM     39  C   UNL     1      -3.303  11.211  15.635  0.00  0.00    +0.252 C 
BRANCH  39  40
ATOM     40  O   UNL     1      -3.007  12.047  14.513  0.00  0.00    -0.352 OA
BRANCH  40  41
ATOM     41  C   UNL     1      -3.961  13.083  14.290  0.00  0.00    +0.159 C 
ATOM     42  C   UNL     1      -3.246  14.290  13.715  0.00  0.00    +0.034 C 
ENDBRANCH  40  41
ENDBRANCH  39  40
BRANCH  39  43
ATOM     43  O   UNL     1      -4.006  10.042  15.198  0.00  0.00    -0.352 OA
BRANCH  43  44
ATOM     44  C   UNL     1      -3.252   9.269  14.261  0.00  0.00    +0.159 C 
ATOM     45  C   UNL     1      -2.113   8.582  14.987  0.00  0.00    +0.034 C 
ENDBRANCH  43  44
ENDBRANCH  39  43
ENDBRANCH  38  39
ENDBRANCH  37  38
ENDBRANCH  35  37
ENDBRANCH  31  33
ENDBRANCH  30  31
ENDBRANCH  26  30
ENDBRANCH  25  28
ENDBRANCH   1  25
TORSDOF 20
