REMARK VINA RESULT:    -4.584      2.648      3.139
REMARK INTER + INTRA:         -12.954
REMARK INTER:                 -10.337
REMARK INTRA:                  -2.617
REMARK UNBOUND:                -4.083
REMARK  Name = lig_assembled_83.pdb
REMARK  20 active torsions:
REMARK  status: ('A' for Active; 'I' for Inactive)
REMARK    1  A    between atoms: _2  and  _12
REMARK    2  A    between atoms: _3  and  _14
REMARK    3  A    between atoms: _7  and  _24
REMARK    4  A    between atoms: _9  and  _10
REMARK    5  A    between atoms: _9  and  _24
REMARK    6  A    between atoms: _12  and  _13
REMARK    7  A    between atoms: _13  and  _14
REMARK    8  A    between atoms: _13  and  _18
REMARK    9  A    between atoms: _20  and  _40
REMARK   10  A    between atoms: _22  and  _28
REMARK   11  A    between atoms: _23  and  _27
REMARK   12  A    between atoms: _27  and  _28
REMARK   13  A    between atoms: _30  and  _31
REMARK   14  A    between atoms: _32  and  _33
REMARK   15  A    between atoms: _34  and  _36
REMARK   16  A    between atoms: _36  and  _37
REMARK   17  A    between atoms: _36  and  _38
REMARK   18  A    between atoms: _38  and  _39
REMARK   19  A    between atoms: _38  and  _40
REMARK   20  A    between atoms: _41  and  _43
REMARK                            x       y       z     vdW  Elec       q    Type
REMARK                         _______ _______ _______ _____ _____    ______ ____
ROOT
ATOM      1  C   UNL     1      -2.981  13.067  24.355  0.00  0.00    +0.141 C 
ENDROOT
BRANCH   1   4
ATOM      2  C   UNL     1      -4.901  13.353  22.826  0.00  0.00    +0.401 C 
ATOM      3  O   UNL     1      -5.683  13.687  23.719  0.00  0.00    -0.226 OA
ATOM      4  N   UNL     1      -3.621  13.040  23.034  0.00  0.00    -0.279 N 
ATOM      5  H   UNL     1      -3.061  12.768  22.239  0.00  0.00    +0.152 HD
BRANCH   2   6
ATOM      6  O   UNL     1      -5.373  13.287  21.478  0.00  0.00    -0.444 OA
BRANCH   6   7
ATOM      7  C   UNL     1      -4.837  12.124  20.840  0.00  0.00    +0.292 C 
BRANCH   7   9
ATOM      8  N   UNL     1      -6.666  12.169  19.161  0.00  0.00    -0.131 NA
ATOM      9  C   UNL     1      -5.335  12.017  19.457  0.00  0.00    +0.120 A 
ATOM     10  C   UNL     1      -4.645  11.769  18.293  0.00  0.00    +0.137 A 
ATOM     11  N   UNL     1      -5.605  11.799  17.329  0.00  0.00    -0.249 N 
ATOM     12  N   UNL     1      -6.821  12.026  17.851  0.00  0.00    -0.065 NA
BRANCH  11  13
ATOM     13  C   UNL     1      -5.442  11.581  15.907  0.00  0.00    +0.178 C 
BRANCH  13  14
ATOM     14  C   UNL     1      -5.753  10.134  15.512  0.00  0.00    +0.156 C 
BRANCH  14  15
ATOM     15  O   UNL     1      -7.159   9.889  15.630  0.00  0.00    -0.388 OA
ATOM     16  H   UNL     1      -7.578  10.609  16.144  0.00  0.00    +0.210 HD
ENDBRANCH  14  15
BRANCH  14  17
ATOM     17  C   UNL     1      -5.282   9.856  14.076  0.00  0.00    +0.162 C 
BRANCH  17  18
ATOM     18  N   UNL     1      -3.901   9.401  14.020  0.00  0.00    -0.269 N 
ATOM     19  C   UNL     1      -3.474   8.210  14.562  0.00  0.00    +0.113 A 
ATOM     20  C   UNL     1      -2.131   8.135  14.275  0.00  0.00    +0.137 A 
ATOM     21  N   UNL     1      -1.715   9.251  13.602  0.00  0.00    -0.172 NA
ATOM     22  C   UNL     1      -2.797   9.993  13.455  0.00  0.00    +0.450 A 
ATOM     23  N   UNL     1      -2.779  11.267  12.772  0.00  0.00    +0.120 N 
ATOM     24  O   UNL     1      -3.850  11.890  12.685  0.00  0.00    +0.045 OA
ATOM     25  O   UNL     1      -1.693  11.661  12.330  0.00  0.00    -0.573 OA
ENDBRANCH  17  18
ENDBRANCH  14  17
ENDBRANCH  13  14
ENDBRANCH  11  13
ENDBRANCH   7   9
ENDBRANCH   6   7
ENDBRANCH   2   6
ENDBRANCH   1   4
BRANCH   1  26
ATOM     26  C   UNL     1      -3.179  11.756  25.110  0.00  0.00    +0.163 C 
BRANCH  26  27
ATOM     27  O   UNL     1      -1.985  10.961  25.036  0.00  0.00    -0.388 OA
ATOM     28  H   UNL     1      -1.854  10.500  25.868  0.00  0.00    +0.210 HD
ENDBRANCH  26  27
BRANCH  26  29
ATOM     29  C   UNL     1      -3.550  12.057  26.573  0.00  0.00    +0.175 C 
BRANCH  29  30
ATOM     30  C   UNL     1      -3.368  10.830  27.479  0.00  0.00    +0.176 C 
ATOM     31  O   UNL     1      -4.006   9.696  26.829  0.00  0.00    -0.332 OA
ATOM     32  C   UNL     1      -3.842   8.405  27.504  0.00  0.00    +0.277 C 
ATOM     33  C   UNL     1      -4.314   8.499  28.975  0.00  0.00    +0.110 C 
ATOM     34  C   UNL     1      -3.686   9.709  29.699  0.00  0.00    +0.143 C 
ATOM     35  C   UNL     1      -3.914  10.999  28.909  0.00  0.00    +0.133 C 
BRANCH  35  36
ATOM     36  N   UNL     1      -3.237  12.130  29.563  0.00  0.00    -0.308 N 
ATOM     37  H   UNL     1      -2.228  12.122  29.594  0.00  0.00    +0.149 HD
ATOM     38  C   UNL     1      -3.870  13.167  30.119  0.00  0.00    +0.210 C 
ATOM     39  C   UNL     1      -5.410  13.137  30.078  0.00  0.00    +0.109 C 
ATOM     40  O   UNL     1      -3.277  14.108  30.647  0.00  0.00    -0.276 OA
ENDBRANCH  35  36
BRANCH  32  41
ATOM     41  C   UNL     1      -2.368   7.950  27.463  0.00  0.00    +0.414 C 
ATOM     42  O   UNL     1      -1.645   8.275  26.522  0.00  0.00    -0.240 OA
ATOM     43  O   UNL     1      -1.903   7.260  28.371  0.00  0.00    -0.240 OA
ENDBRANCH  32  41
BRANCH  32  44
ATOM     44  O   UNL     1      -4.672   7.432  26.819  0.00  0.00    -0.343 OA
ATOM     45  C   UNL     1      -4.858   7.675  25.401  0.00  0.00    +0.198 C 
ENDBRANCH  32  44
BRANCH  34  46
ATOM     46  O   UNL     1      -4.262   9.846  30.998  0.00  0.00    -0.390 OA
ATOM     47  H   UNL     1      -3.564   9.930  31.651  0.00  0.00    +0.210 HD
ENDBRANCH  34  46
ENDBRANCH  29  30
BRANCH  29  48
ATOM     48  O   UNL     1      -4.907  12.537  26.653  0.00  0.00    -0.387 OA
ATOM     49  H   UNL     1      -4.905  13.493  26.739  0.00  0.00    +0.210 HD
ENDBRANCH  29  48
ENDBRANCH  26  29
ENDBRANCH   1  26
TORSDOF 18
