REMARK VINA RESULT:    -4.411      2.295      5.947
REMARK INTER + INTRA:         -11.967
REMARK INTER:                  -7.982
REMARK INTRA:                  -3.985
REMARK UNBOUND:                -2.785
REMARK  Name = lig_assembled_54.pdb
REMARK  24 active torsions:
REMARK  status: ('A' for Active; 'I' for Inactive)
REMARK    1  A    between atoms: _2  and  _9
REMARK    2  A    between atoms: _4  and  _21
REMARK    3  A    between atoms: _5  and  _14
REMARK    4  A    between atoms: _6  and  _7
REMARK    5  A    between atoms: _6  and  _21
REMARK    6  A    between atoms: _9  and  _10
REMARK    7  A    between atoms: _10  and  _11
REMARK    8  A    between atoms: _11  and  _15
REMARK    9  A    between atoms: _11  and  _16
REMARK   10  A    between atoms: _12  and  _13
REMARK   11  A    between atoms: _12  and  _16
REMARK   12  A    between atoms: _14  and  _15
REMARK   13  A    between atoms: _17  and  _37
REMARK   14  A    between atoms: _19  and  _25
REMARK   15  A    between atoms: _20  and  _24
REMARK   16  A    between atoms: _24  and  _25
REMARK   17  A    between atoms: _27  and  _28
REMARK   18  A    between atoms: _29  and  _30
REMARK   19  A    between atoms: _31  and  _33
REMARK   20  A    between atoms: _33  and  _34
REMARK   21  A    between atoms: _33  and  _35
REMARK   22  A    between atoms: _35  and  _36
REMARK   23  A    between atoms: _35  and  _37
REMARK   24  A    between atoms: _38  and  _40
REMARK                            x       y       z     vdW  Elec       q    Type
REMARK                         _______ _______ _______ _____ _____    ______ ____
ROOT
ATOM      1  C   UNL     1      -3.835  12.385  25.996  0.00  0.00    +0.163 C 
ENDROOT
BRANCH   1   2
ATOM      2  O   UNL     1      -4.606  13.101  25.018  0.00  0.00    -0.388 OA
ATOM      3  H   UNL     1      -5.059  13.835  25.441  0.00  0.00    +0.210 HD
ENDBRANCH   1   2
BRANCH   1   4
ATOM      4  C   UNL     1      -4.745  11.538  26.901  0.00  0.00    +0.175 C 
BRANCH   4   5
ATOM      5  C   UNL     1      -3.942  10.580  27.794  0.00  0.00    +0.176 C 
ATOM      6  O   UNL     1      -4.401   9.227  27.525  0.00  0.00    -0.332 OA
ATOM      7  C   UNL     1      -3.669   8.160  28.215  0.00  0.00    +0.277 C 
ATOM      8  C   UNL     1      -3.655   8.414  29.742  0.00  0.00    +0.110 C 
ATOM      9  C   UNL     1      -3.204   9.851  30.077  0.00  0.00    +0.143 C 
ATOM     10  C   UNL     1      -4.029  10.880  29.302  0.00  0.00    +0.133 C 
BRANCH  10  11
ATOM     11  N   UNL     1      -3.533  12.240  29.563  0.00  0.00    -0.308 N 
ATOM     12  H   UNL     1      -2.602  12.471  29.246  0.00  0.00    +0.149 HD
ATOM     13  C   UNL     1      -4.233  13.189  30.190  0.00  0.00    +0.210 C 
ATOM     14  C   UNL     1      -5.639  12.798  30.683  0.00  0.00    +0.109 C 
ATOM     15  O   UNL     1      -3.797  14.325  30.381  0.00  0.00    -0.276 OA
ENDBRANCH  10  11
BRANCH   7  16
ATOM     16  C   UNL     1      -2.220   8.066  27.695  0.00  0.00    +0.414 C 
ATOM     17  O   UNL     1      -1.996   8.029  26.485  0.00  0.00    -0.240 OA
ATOM     18  O   UNL     1      -1.275   8.028  28.483  0.00  0.00    -0.240 OA
ENDBRANCH   7  16
BRANCH   9  19
ATOM     19  O   UNL     1      -3.351  10.088  31.477  0.00  0.00    -0.390 OA
ATOM     20  H   UNL     1      -4.231  10.429  31.654  0.00  0.00    +0.210 HD
ENDBRANCH   9  19
BRANCH   7  21
ATOM     21  O   UNL     1      -4.359   6.909  27.965  0.00  0.00    -0.343 OA
ATOM     22  C   UNL     1      -5.221   6.459  29.041  0.00  0.00    +0.198 C 
ENDBRANCH   7  21
ENDBRANCH   4   5
BRANCH   4  23
ATOM     23  O   UNL     1      -5.690  10.797  26.103  0.00  0.00    -0.387 OA
ATOM     24  H   UNL     1      -5.637  11.091  25.190  0.00  0.00    +0.210 HD
ENDBRANCH   4  23
ENDBRANCH   1   4
BRANCH   1  25
ATOM     25  C   UNL     1      -2.822  11.481  25.302  0.00  0.00    +0.141 C 
BRANCH  25  28
ATOM     26  C   UNL     1      -3.695  10.034  23.499  0.00  0.00    +0.401 C 
ATOM     27  O   UNL     1      -3.877   9.063  24.237  0.00  0.00    -0.226 OA
ATOM     28  N   UNL     1      -3.200  11.202  23.911  0.00  0.00    -0.279 N 
ATOM     29  H   UNL     1      -3.079  11.936  23.228  0.00  0.00    +0.152 HD
BRANCH  26  30
ATOM     30  O   UNL     1      -4.024   9.923  22.111  0.00  0.00    -0.444 OA
BRANCH  30  31
ATOM     31  C   UNL     1      -5.428   9.690  21.970  0.00  0.00    +0.292 C 
BRANCH  31  33
ATOM     32  N   UNL     1      -6.596  11.236  23.512  0.00  0.00    -0.131 NA
ATOM     33  C   UNL     1      -6.176  10.932  22.245  0.00  0.00    +0.120 A 
ATOM     34  C   UNL     1      -6.551  11.946  21.390  0.00  0.00    +0.137 A 
ATOM     35  N   UNL     1      -7.160  12.853  22.204  0.00  0.00    -0.251 N 
ATOM     36  N   UNL     1      -7.192  12.421  23.477  0.00  0.00    -0.065 NA
BRANCH  35  37
ATOM     37  C   UNL     1      -7.677  14.163  21.862  0.00  0.00    +0.150 C 
BRANCH  37  38
ATOM     38  C   UNL     1      -6.574  15.100  21.395  0.00  0.00    +0.084 C 
BRANCH  38  39
ATOM     39  C   UNL     1      -5.793  15.747  22.545  0.00  0.00    +0.252 C 
BRANCH  39  40
ATOM     40  O   UNL     1      -4.692  14.917  22.923  0.00  0.00    -0.352 OA
BRANCH  40  41
ATOM     41  C   UNL     1      -3.568  15.006  22.049  0.00  0.00    +0.159 C 
ATOM     42  C   UNL     1      -3.306  13.640  21.448  0.00  0.00    +0.034 C 
ENDBRANCH  40  41
ENDBRANCH  39  40
BRANCH  39  43
ATOM     43  O   UNL     1      -6.693  15.894  23.650  0.00  0.00    -0.352 OA
BRANCH  43  44
ATOM     44  C   UNL     1      -6.423  17.065  24.423  0.00  0.00    +0.159 C 
ATOM     45  C   UNL     1      -5.964  18.175  23.499  0.00  0.00    +0.034 C 
ENDBRANCH  43  44
ENDBRANCH  39  43
ENDBRANCH  38  39
ENDBRANCH  37  38
ENDBRANCH  35  37
ENDBRANCH  31  33
ENDBRANCH  30  31
ENDBRANCH  26  30
ENDBRANCH  25  28
ENDBRANCH   1  25
TORSDOF 20
