REMARK VINA RESULT:    -4.911      3.906      9.793
REMARK INTER + INTRA:         -12.537
REMARK INTER:                 -10.423
REMARK INTRA:                  -2.114
REMARK UNBOUND:                -3.320
REMARK  Name = lig_assembled_16.pdb
REMARK  19 active torsions:
REMARK  status: ('A' for Active; 'I' for Inactive)
REMARK    1  A    between atoms: _2  and  _9
REMARK    2  A    between atoms: _4  and  _22
REMARK    3  A    between atoms: _6  and  _7
REMARK    4  A    between atoms: _6  and  _22
REMARK    5  A    between atoms: _9  and  _10
REMARK    6  A    between atoms: _13  and  _14
REMARK    7  A    between atoms: _14  and  _16
REMARK    8  A    between atoms: _18  and  _38
REMARK    9  A    between atoms: _20  and  _26
REMARK   10  A    between atoms: _21  and  _25
REMARK   11  A    between atoms: _25  and  _26
REMARK   12  A    between atoms: _28  and  _29
REMARK   13  A    between atoms: _30  and  _31
REMARK   14  A    between atoms: _32  and  _34
REMARK   15  A    between atoms: _34  and  _35
REMARK   16  A    between atoms: _34  and  _36
REMARK   17  A    between atoms: _36  and  _37
REMARK   18  A    between atoms: _36  and  _38
REMARK   19  A    between atoms: _39  and  _41
REMARK                            x       y       z     vdW  Elec       q    Type
REMARK                         _______ _______ _______ _____ _____    ______ ____
ROOT
ATOM      1  C   UNL     1      -4.706  12.088  25.972  0.00  0.00    +0.163 C 
ENDROOT
BRANCH   1   2
ATOM      2  O   UNL     1      -5.298  10.867  25.499  0.00  0.00    -0.388 OA
ATOM      3  H   UNL     1      -4.939  10.650  24.635  0.00  0.00    +0.210 HD
ENDBRANCH   1   2
BRANCH   1   4
ATOM      4  C   UNL     1      -4.771  12.172  27.507  0.00  0.00    +0.175 C 
BRANCH   4   5
ATOM      5  C   UNL     1      -3.847  11.147  28.181  0.00  0.00    +0.176 C 
ATOM      6  O   UNL     1      -4.361   9.819  27.886  0.00  0.00    -0.332 OA
ATOM      7  C   UNL     1      -3.542   8.701  28.364  0.00  0.00    +0.277 C 
ATOM      8  C   UNL     1      -3.279   8.835  29.884  0.00  0.00    +0.110 C 
ATOM      9  C   UNL     1      -2.760  10.241  30.251  0.00  0.00    +0.143 C 
ATOM     10  C   UNL     1      -3.686  11.328  29.702  0.00  0.00    +0.133 C 
BRANCH  10  11
ATOM     11  N   UNL     1      -3.136  12.663  29.983  0.00  0.00    -0.308 N 
ATOM     12  H   UNL     1      -2.245  12.903  29.570  0.00  0.00    +0.149 HD
ATOM     13  C   UNL     1      -3.736  13.579  30.748  0.00  0.00    +0.210 C 
ATOM     14  C   UNL     1      -5.079  13.173  31.384  0.00  0.00    +0.109 C 
ATOM     15  O   UNL     1      -3.259  14.695  30.953  0.00  0.00    -0.276 OA
ENDBRANCH  10  11
BRANCH   7  16
ATOM     16  C   UNL     1      -2.197   8.648  27.610  0.00  0.00    +0.414 C 
ATOM     17  O   UNL     1      -1.158   8.385  28.214  0.00  0.00    -0.240 OA
ATOM     18  O   UNL     1      -2.151   8.867  26.399  0.00  0.00    -0.240 OA
ENDBRANCH   7  16
BRANCH   7  19
ATOM     19  O   UNL     1      -4.280   7.474  28.134  0.00  0.00    -0.343 OA
ATOM     20  C   UNL     1      -5.399   7.594  27.219  0.00  0.00    +0.198 C 
ENDBRANCH   7  19
BRANCH   9  21
ATOM     21  O   UNL     1      -2.676  10.368  31.671  0.00  0.00    -0.390 OA
ATOM     22  H   UNL     1      -3.557  10.479  32.036  0.00  0.00    +0.210 HD
ENDBRANCH   9  21
ENDBRANCH   4   5
BRANCH   4  23
ATOM     23  O   UNL     1      -6.128  11.990  27.957  0.00  0.00    -0.387 OA
ATOM     24  H   UNL     1      -6.462  12.818  28.311  0.00  0.00    +0.210 HD
ENDBRANCH   4  23
ENDBRANCH   1   4
BRANCH   1  25
ATOM     25  C   UNL     1      -3.252  12.173  25.518  0.00  0.00    +0.141 C 
BRANCH  25  28
ATOM     26  C   UNL     1      -3.074  11.519  23.142  0.00  0.00    +0.401 C 
ATOM     27  O   UNL     1      -3.083  10.309  23.376  0.00  0.00    -0.226 OA
ATOM     28  N   UNL     1      -3.143  12.462  24.083  0.00  0.00    -0.279 N 
ATOM     29  H   UNL     1      -3.120  13.429  23.792  0.00  0.00    +0.152 HD
BRANCH  26  30
ATOM     30  O   UNL     1      -2.980  11.963  21.785  0.00  0.00    -0.444 OA
BRANCH  30  31
ATOM     31  C   UNL     1      -4.018  12.911  21.520  0.00  0.00    +0.292 C 
BRANCH  31  33
ATOM     32  N   UNL     1      -6.204  12.878  20.356  0.00  0.00    -0.131 NA
ATOM     33  C   UNL     1      -4.927  12.395  20.481  0.00  0.00    +0.120 A 
ATOM     34  C   UNL     1      -4.706  11.448  19.506  0.00  0.00    +0.137 A 
ATOM     35  N   UNL     1      -5.850  11.472  18.766  0.00  0.00    -0.247 N 
ATOM     36  N   UNL     1      -6.769  12.291  19.308  0.00  0.00    -0.065 NA
BRANCH  35  37
ATOM     37  C   UNL     1      -6.127  10.767  17.531  0.00  0.00    +0.180 C 
BRANCH  37  38
ATOM     38  C   UNL     1      -5.116  11.114  16.461  0.00  0.00    -0.026 A 
ATOM     39  C   UNL     1      -4.180  10.165  16.026  0.00  0.00    +0.006 A 
ATOM     40  C   UNL     1      -3.272  10.479  15.010  0.00  0.00    +0.015 A 
ATOM     41  C   UNL     1      -3.278  11.747  14.425  0.00  0.00    +0.059 A 
ATOM     42  C   UNL     1      -4.194  12.713  14.868  0.00  0.00    +0.015 A 
ATOM     43  C   UNL     1      -5.097  12.397  15.889  0.00  0.00    +0.006 A 
BRANCH  41  44
ATOM     44  C   UNL     1      -2.341  12.004  13.300  0.00  0.00    +0.337 C 
ATOM     45  O   UNL     1      -2.091  11.166  12.450  0.00  0.00    -0.245 OA
BRANCH  44  46
ATOM     46  O   UNL     1      -1.771  13.224  13.324  0.00  0.00    -0.477 OA
ATOM     47  H   UNL     1      -1.449  13.515  14.196  0.00  0.00    +0.295 HD
ENDBRANCH  44  46
ENDBRANCH  41  44
ENDBRANCH  37  38
ENDBRANCH  35  37
ENDBRANCH  31  33
ENDBRANCH  30  31
ENDBRANCH  26  30
ENDBRANCH  25  28
ENDBRANCH   1  25
TORSDOF 17
