REMARK VINA RESULT:    -5.011      3.149      7.060
REMARK INTER + INTRA:         -11.745
REMARK INTER:                  -8.399
REMARK INTRA:                  -3.346
REMARK UNBOUND:                -2.779
REMARK  Name = lig_assembled_39.pdb
REMARK  17 active torsions:
REMARK  status: ('A' for Active; 'I' for Inactive)
REMARK    1  A    between atoms: _2  and  _9
REMARK    2  A    between atoms: _4  and  _19
REMARK    3  A    between atoms: _6  and  _7
REMARK    4  A    between atoms: _6  and  _19
REMARK    5  A    between atoms: _9  and  _10
REMARK    6  A    between atoms: _15  and  _35
REMARK    7  A    between atoms: _17  and  _23
REMARK    8  A    between atoms: _18  and  _22
REMARK    9  A    between atoms: _22  and  _23
REMARK   10  A    between atoms: _25  and  _26
REMARK   11  A    between atoms: _27  and  _28
REMARK   12  A    between atoms: _29  and  _31
REMARK   13  A    between atoms: _31  and  _32
REMARK   14  A    between atoms: _31  and  _33
REMARK   15  A    between atoms: _33  and  _34
REMARK   16  A    between atoms: _33  and  _35
REMARK   17  A    between atoms: _36  and  _38
REMARK                            x       y       z     vdW  Elec       q    Type
REMARK                         _______ _______ _______ _____ _____    ______ ____
ROOT
ATOM      1  C   UNL     1      -3.116  11.449  25.414  0.00  0.00    +0.163 C 
ENDROOT
BRANCH   1   2
ATOM      2  O   UNL     1      -1.935  10.632  25.470  0.00  0.00    -0.388 OA
ATOM      3  H   UNL     1      -1.772  10.244  24.607  0.00  0.00    +0.210 HD
ENDBRANCH   1   2
BRANCH   1   4
ATOM      4  C   UNL     1      -2.890  12.628  24.472  0.00  0.00    +0.141 C 
BRANCH   4   7
ATOM      5  C   UNL     1      -4.248  14.084  23.009  0.00  0.00    +0.401 C 
ATOM      6  O   UNL     1      -3.281  14.496  22.364  0.00  0.00    -0.226 OA
ATOM      7  N   UNL     1      -4.156  13.215  24.016  0.00  0.00    -0.279 N 
ATOM      8  H   UNL     1      -5.005  12.944  24.491  0.00  0.00    +0.152 HD
BRANCH   5   9
ATOM      9  O   UNL     1      -5.556  14.557  22.679  0.00  0.00    -0.444 OA
BRANCH   9  10
ATOM     10  C   UNL     1      -5.679  15.930  23.062  0.00  0.00    +0.292 C 
BRANCH  10  12
ATOM     11  N   UNL     1      -6.450  14.966  25.208  0.00  0.00    -0.131 NA
ATOM     12  C   UNL     1      -6.365  16.041  24.362  0.00  0.00    +0.120 A 
ATOM     13  C   UNL     1      -6.977  17.127  24.949  0.00  0.00    +0.137 A 
ATOM     14  N   UNL     1      -7.338  16.669  26.182  0.00  0.00    -0.247 N 
ATOM     15  N   UNL     1      -7.076  15.355  26.310  0.00  0.00    -0.065 NA
BRANCH  14  16
ATOM     16  C   UNL     1      -7.869  17.434  27.300  0.00  0.00    +0.181 C 
BRANCH  16  17
ATOM     17  C   UNL     1      -6.875  17.602  28.436  0.00  0.00    -0.012 A 
ATOM     18  C   UNL     1      -5.709  18.376  28.272  0.00  0.00    +0.006 A 
ATOM     19  C   UNL     1      -4.783  18.535  29.307  0.00  0.00    +0.000 A 
ATOM     20  C   UNL     1      -4.990  17.902  30.526  0.00  0.00    +0.001 A 
ATOM     21  C   UNL     1      -6.111  17.096  30.703  0.00  0.00    +0.015 A 
ATOM     22  C   UNL     1      -7.041  16.936  29.666  0.00  0.00    +0.023 A 
ATOM     23 BR   UNL     1      -8.501  15.765  30.003  0.00  0.00    -0.050 Br
ENDBRANCH  16  17
ENDBRANCH  14  16
ENDBRANCH  10  12
ENDBRANCH   9  10
ENDBRANCH   5   9
ENDBRANCH   4   7
ENDBRANCH   1   4
BRANCH   1  24
ATOM     24  C   UNL     1      -3.490  11.972  26.811  0.00  0.00    +0.175 C 
BRANCH  24  25
ATOM     25  C   UNL     1      -3.312  10.900  27.896  0.00  0.00    +0.176 C 
ATOM     26  O   UNL     1      -3.880   9.659  27.396  0.00  0.00    -0.332 OA
ATOM     27  C   UNL     1      -3.705   8.488  28.261  0.00  0.00    +0.277 C 
ATOM     28  C   UNL     1      -4.250   8.778  29.681  0.00  0.00    +0.110 C 
ATOM     29  C   UNL     1      -3.699  10.106  30.242  0.00  0.00    +0.143 C 
ATOM     30  C   UNL     1      -3.931  11.255  29.261  0.00  0.00    +0.133 C 
BRANCH  30  31
ATOM     31  N   UNL     1      -3.324  12.496  29.768  0.00  0.00    -0.308 N 
ATOM     32  H   UNL     1      -2.316  12.547  29.807  0.00  0.00    +0.149 HD
ATOM     33  C   UNL     1      -4.019  13.560  30.181  0.00  0.00    +0.210 C 
ATOM     34  C   UNL     1      -5.554  13.441  30.134  0.00  0.00    +0.109 C 
ATOM     35  O   UNL     1      -3.484  14.592  30.587  0.00  0.00    -0.276 OA
ENDBRANCH  30  31
BRANCH  27  36
ATOM     36  C   UNL     1      -2.217   8.091  28.351  0.00  0.00    +0.414 C 
ATOM     37  O   UNL     1      -1.434   8.413  27.458  0.00  0.00    -0.240 OA
ATOM     38  O   UNL     1      -1.799   7.451  29.317  0.00  0.00    -0.240 OA
ENDBRANCH  27  36
BRANCH  27  39
ATOM     39  O   UNL     1      -4.469   7.393  27.693  0.00  0.00    -0.343 OA
ATOM     40  C   UNL     1      -4.793   7.536  26.287  0.00  0.00    +0.198 C 
ENDBRANCH  27  39
BRANCH  29  41
ATOM     41  O   UNL     1      -4.341  10.408  31.482  0.00  0.00    -0.390 OA
ATOM     42  H   UNL     1      -4.118  11.303  31.748  0.00  0.00    +0.210 HD
ENDBRANCH  29  41
ENDBRANCH  24  25
BRANCH  24  43
ATOM     43  O   UNL     1      -4.848  12.458  26.812  0.00  0.00    -0.387 OA
ATOM     44  H   UNL     1      -5.111  12.671  27.711  0.00  0.00    +0.210 HD
ENDBRANCH  24  43
ENDBRANCH   1  24
TORSDOF 15
