REMARK VINA RESULT:    -4.132      4.261      8.287
REMARK INTER + INTRA:         -11.011
REMARK INTER:                  -8.738
REMARK INTRA:                  -2.274
REMARK UNBOUND:                -2.894
REMARK  Name = lig_assembled_17.pdb
REMARK  22 active torsions:
REMARK  status: ('A' for Active; 'I' for Inactive)
REMARK    1  A    between atoms: _2  and  _10
REMARK    2  A    between atoms: _3  and  _11
REMARK    3  A    between atoms: _3  and  _12
REMARK    4  A    between atoms: _3  and  _14
REMARK    5  A    between atoms: _5  and  _19
REMARK    6  A    between atoms: _6  and  _14
REMARK    7  A    between atoms: _7  and  _8
REMARK    8  A    between atoms: _7  and  _19
REMARK    9  A    between atoms: _10  and  _11
REMARK   10  A    between atoms: _12  and  _13
REMARK   11  A    between atoms: _15  and  _35
REMARK   12  A    between atoms: _17  and  _23
REMARK   13  A    between atoms: _18  and  _22
REMARK   14  A    between atoms: _22  and  _23
REMARK   15  A    between atoms: _25  and  _26
REMARK   16  A    between atoms: _27  and  _28
REMARK   17  A    between atoms: _29  and  _31
REMARK   18  A    between atoms: _31  and  _32
REMARK   19  A    between atoms: _31  and  _33
REMARK   20  A    between atoms: _33  and  _34
REMARK   21  A    between atoms: _33  and  _35
REMARK   22  A    between atoms: _36  and  _38
REMARK                            x       y       z     vdW  Elec       q    Type
REMARK                         _______ _______ _______ _____ _____    ______ ____
ROOT
ATOM      1  C   UNL     1      -3.245  11.778  25.079  0.00  0.00    +0.163 C 
ENDROOT
BRANCH   1   2
ATOM      2  O   UNL     1      -2.119  10.890  24.993  0.00  0.00    -0.388 OA
ATOM      3  H   UNL     1      -1.585  11.122  24.230  0.00  0.00    +0.210 HD
ENDBRANCH   1   2
BRANCH   1   4
ATOM      4  C   UNL     1      -3.570  12.113  26.545  0.00  0.00    +0.175 C 
BRANCH   4   5
ATOM      5  C   UNL     1      -3.363  10.908  27.474  0.00  0.00    +0.176 C 
ATOM      6  O   UNL     1      -4.001   9.755  26.859  0.00  0.00    -0.332 OA
ATOM      7  C   UNL     1      -3.815   8.479  27.557  0.00  0.00    +0.277 C 
ATOM      8  C   UNL     1      -4.264   8.601  29.034  0.00  0.00    +0.110 C 
ATOM      9  C   UNL     1      -3.636   9.831  29.721  0.00  0.00    +0.143 C 
ATOM     10  C   UNL     1      -3.888  11.102  28.908  0.00  0.00    +0.133 C 
BRANCH  10  11
ATOM     11  N   UNL     1      -3.211  12.252  29.528  0.00  0.00    -0.308 N 
ATOM     12  H   UNL     1      -2.201  12.248  29.553  0.00  0.00    +0.149 HD
ATOM     13  C   UNL     1      -3.844  13.301  30.060  0.00  0.00    +0.210 C 
ATOM     14  C   UNL     1      -5.384  13.265  30.029  0.00  0.00    +0.109 C 
ATOM     15  O   UNL     1      -3.251  14.258  30.559  0.00  0.00    -0.276 OA
ENDBRANCH  10  11
BRANCH   7  16
ATOM     16  C   UNL     1      -2.338   8.037  27.503  0.00  0.00    +0.414 C 
ATOM     17  O   UNL     1      -1.854   7.376  28.421  0.00  0.00    -0.240 OA
ATOM     18  O   UNL     1      -1.630   8.340  26.541  0.00  0.00    -0.240 OA
ENDBRANCH   7  16
BRANCH   9  19
ATOM     19  O   UNL     1      -4.193   9.990  31.027  0.00  0.00    -0.390 OA
ATOM     20  H   UNL     1      -4.552  10.876  31.117  0.00  0.00    +0.210 HD
ENDBRANCH   9  19
BRANCH   7  21
ATOM     21  O   UNL     1      -4.647   7.485  26.906  0.00  0.00    -0.343 OA
ATOM     22  C   UNL     1      -4.978   7.774  25.524  0.00  0.00    +0.198 C 
ENDBRANCH   7  21
ENDBRANCH   4   5
BRANCH   4  23
ATOM     23  O   UNL     1      -4.923  12.598  26.655  0.00  0.00    -0.387 OA
ATOM     24  H   UNL     1      -5.021  13.397  26.132  0.00  0.00    +0.210 HD
ENDBRANCH   4  23
ENDBRANCH   1   4
BRANCH   1  25
ATOM     25  C   UNL     1      -2.954  13.065  24.315  0.00  0.00    +0.141 C 
BRANCH  25  28
ATOM     26  C   UNL     1      -4.029  13.008  22.090  0.00  0.00    +0.401 C 
ATOM     27  O   UNL     1      -3.128  12.348  21.568  0.00  0.00    -0.226 OA
ATOM     28  N   UNL     1      -4.026  13.393  23.367  0.00  0.00    -0.279 N 
ATOM     29  H   UNL     1      -4.807  13.941  23.702  0.00  0.00    +0.152 HD
BRANCH  26  30
ATOM     30  O   UNL     1      -5.152  13.401  21.297  0.00  0.00    -0.444 OA
BRANCH  30  31
ATOM     31  C   UNL     1      -6.077  12.314  21.208  0.00  0.00    +0.292 C 
BRANCH  31  33
ATOM     32  N   UNL     1      -6.647  12.250  18.804  0.00  0.00    -0.131 NA
ATOM     33  C   UNL     1      -6.003  11.690  19.875  0.00  0.00    +0.120 A 
ATOM     34  C   UNL     1      -5.340  10.555  19.460  0.00  0.00    +0.137 A 
ATOM     35  N   UNL     1      -5.606  10.494  18.126  0.00  0.00    -0.250 N 
ATOM     36  N   UNL     1      -6.400  11.506  17.736  0.00  0.00    -0.065 NA
BRANCH  35  37
ATOM     37  C   UNL     1      -5.114   9.543  17.151  0.00  0.00    +0.160 C 
BRANCH  37  38
ATOM     38  C   UNL     1      -5.424  10.020  15.725  0.00  0.00    +0.107 C 
BRANCH  38  39
ATOM     39  N   UNL     1      -4.271  10.535  14.946  0.00  0.00    -0.301 NA
BRANCH  39  40
ATOM     40  C   UNL     1      -3.913   9.680  13.799  0.00  0.00    +0.081 C 
ATOM     41  C   UNL     1      -2.893  10.250  12.818  0.00  0.00    +0.020 C 
ENDBRANCH  39  40
BRANCH  39  42
ATOM     42  C   UNL     1      -4.541  11.938  14.568  0.00  0.00    +0.081 C 
ATOM     43  C   UNL     1      -3.948  12.981  15.511  0.00  0.00    +0.020 C 
ENDBRANCH  39  42
ENDBRANCH  38  39
ENDBRANCH  37  38
ENDBRANCH  35  37
ENDBRANCH  31  33
ENDBRANCH  30  31
ENDBRANCH  26  30
ENDBRANCH  25  28
ENDBRANCH   1  25
TORSDOF 18
