REMARK VINA RESULT:    -6.224      2.873      4.589
REMARK INTER + INTRA:         -15.078
REMARK INTER:                 -11.875
REMARK INTRA:                  -3.203
REMARK UNBOUND:                -3.396
REMARK  Name = lig_assembled_34.pdb
REMARK  19 active torsions:
REMARK  status: ('A' for Active; 'I' for Inactive)
REMARK    1  A    between atoms: _2  and  _9
REMARK    2  A    between atoms: _4  and  _37
REMARK    3  A    between atoms: _6  and  _7
REMARK    4  A    between atoms: _6  and  _37
REMARK    5  A    between atoms: _11  and  _12
REMARK    6  A    between atoms: _13  and  _14
REMARK    7  A    between atoms: _18  and  _31
REMARK    8  A    between atoms: _33  and  _53
REMARK    9  A    between atoms: _35  and  _41
REMARK   10  A    between atoms: _36  and  _40
REMARK   11  A    between atoms: _40  and  _41
REMARK   12  A    between atoms: _43  and  _44
REMARK   13  A    between atoms: _45  and  _46
REMARK   14  A    between atoms: _47  and  _49
REMARK   15  A    between atoms: _49  and  _50
REMARK   16  A    between atoms: _49  and  _51
REMARK   17  A    between atoms: _51  and  _52
REMARK   18  A    between atoms: _51  and  _53
REMARK   19  A    between atoms: _54  and  _56
REMARK                            x       y       z     vdW  Elec       q    Type
REMARK                         _______ _______ _______ _____ _____    ______ ____
ROOT
ATOM      1  N   UNL     1      -5.161   9.453  19.810  0.00  0.00    -0.131 NA
ATOM      2  C   UNL     1      -5.353  10.805  19.776  0.00  0.00    +0.121 A 
ATOM      3  C   UNL     1      -5.160  11.249  18.492  0.00  0.00    +0.143 A 
ATOM      4  N   UNL     1      -4.875  10.123  17.750  0.00  0.00    -0.220 N 
ATOM      5  N   UNL     1      -4.856   9.045  18.580  0.00  0.00    -0.060 NA
ENDROOT
BRANCH   4   6
ATOM      6  C   UNL     1      -4.674  10.028  16.347  0.00  0.00    +0.068 A 
ATOM      7  C   UNL     1      -3.662   9.202  15.847  0.00  0.00    +0.038 A 
ATOM      8  C   UNL     1      -3.322   9.155  14.473  0.00  0.00    +0.007 A 
ATOM      9  C   UNL     1      -4.086   9.917  13.565  0.00  0.00    -0.008 A 
ATOM     10  C   UNL     1      -5.142  10.712  14.073  0.00  0.00    +0.011 A 
ATOM     11  C   UNL     1      -5.426  10.784  15.448  0.00  0.00    +0.028 A 
BRANCH   9  12
ATOM     12  C   UNL     1      -3.814  10.013  12.094  0.00  0.00    +0.004 A 
ATOM     13  C   UNL     1      -3.012  10.977  11.561  0.00  0.00    +0.026 A 
ATOM     14  C   UNL     1      -2.397  12.036  12.372  0.00  0.00    +0.016 A 
ATOM     15  C   UNL     1      -1.770  13.078  11.807  0.00  0.00    +0.051 A 
ATOM     16  C   UNL     1      -1.645  13.176  10.333  0.00  0.00    +0.183 A 
ATOM     17  O   UNL     1      -1.130  14.156   9.800  0.00  0.00    -0.288 OA
ATOM     18  C   UNL     1      -2.095  12.019   9.534  0.00  0.00    +0.097 A 
ATOM     19  C   UNL     1      -2.702  10.979  10.118  0.00  0.00    +0.140 A 
ATOM     20  O   UNL     1      -2.978   9.859   9.348  0.00  0.00    -0.455 OA
ATOM     21  C   UNL     1      -3.815   8.903   9.859  0.00  0.00    +0.140 A 
ATOM     22  C   UNL     1      -4.134   7.844   9.009  0.00  0.00    +0.092 A 
ATOM     23  C   UNL     1      -5.022   6.870   9.441  0.00  0.00    +0.120 A 
ATOM     24  C   UNL     1      -5.651   6.987  10.676  0.00  0.00    +0.046 A 
ATOM     25  C   UNL     1      -5.311   8.048  11.521  0.00  0.00    +0.016 A 
ATOM     26  C   UNL     1      -4.338   8.987  11.147  0.00  0.00    +0.026 A 
BRANCH  23  27
ATOM     27  O   UNL     1      -5.249   5.798   8.630  0.00  0.00    -0.507 OA
ATOM     28  H   UNL     1      -4.666   5.079   8.924  0.00  0.00    +0.292 HD
ENDBRANCH  23  27
ENDBRANCH   9  12
BRANCH   8  29
ATOM     29  C   UNL     1      -2.100   8.338  14.106  0.00  0.00    +0.072 C 
ATOM     30  O   UNL     1      -2.216   7.075  14.222  0.00  0.00    -0.545 OA
ATOM     31  O   UNL     1      -1.039   8.952  13.789  0.00  0.00    -0.545 OA
ENDBRANCH   8  29
ENDBRANCH   4   6
BRANCH   2  32
ATOM     32  C   UNL     1      -5.712  11.583  20.978  0.00  0.00    +0.292 C 
BRANCH  32  33
ATOM     33  O   UNL     1      -4.886  12.745  21.095  0.00  0.00    -0.444 OA
BRANCH  33  34
ATOM     34  C   UNL     1      -3.860  12.506  22.062  0.00  0.00    +0.401 C 
ATOM     35  O   UNL     1      -2.882  11.827  21.742  0.00  0.00    -0.226 OA
ATOM     36  N   UNL     1      -4.029  13.048  23.269  0.00  0.00    -0.279 N 
ATOM     37  H   UNL     1      -4.861  13.598  23.432  0.00  0.00    +0.152 HD
BRANCH  36  38
ATOM     38  C   UNL     1      -3.075  12.890  24.373  0.00  0.00    +0.141 C 
BRANCH  38  39
ATOM     39  C   UNL     1      -3.389  11.664  25.225  0.00  0.00    +0.163 C 
BRANCH  39  40
ATOM     40  O   UNL     1      -2.323  10.706  25.120  0.00  0.00    -0.388 OA
ATOM     41  H   UNL     1      -2.493   9.971  25.713  0.00  0.00    +0.210 HD
ENDBRANCH  39  40
BRANCH  39  42
ATOM     42  C   UNL     1      -3.600  12.095  26.687  0.00  0.00    +0.175 C 
BRANCH  42  43
ATOM     43  C   UNL     1      -3.345  10.944  27.671  0.00  0.00    +0.176 C 
ATOM     44  O   UNL     1      -3.973   9.748  27.133  0.00  0.00    -0.332 OA
ATOM     45  C   UNL     1      -3.743   8.515  27.891  0.00  0.00    +0.277 C 
ATOM     46  C   UNL     1      -4.160   8.704  29.371  0.00  0.00    +0.110 C 
ATOM     47  C   UNL     1      -3.541   9.981  29.977  0.00  0.00    +0.143 C 
ATOM     48  C   UNL     1      -3.839  11.202  29.107  0.00  0.00    +0.133 C 
BRANCH  48  49
ATOM     49  N   UNL     1      -3.172  12.397  29.648  0.00  0.00    -0.308 N 
ATOM     50  H   UNL     1      -2.163  12.432  29.609  0.00  0.00    +0.149 HD
ATOM     51  C   UNL     1      -3.812  13.437  30.188  0.00  0.00    +0.210 C 
ATOM     52  C   UNL     1      -5.348  13.342  30.256  0.00  0.00    +0.109 C 
ATOM     53  O   UNL     1      -3.228  14.431  30.620  0.00  0.00    -0.276 OA
ENDBRANCH  48  49
BRANCH  45  54
ATOM     54  C   UNL     1      -2.259   8.099  27.823  0.00  0.00    +0.414 C 
ATOM     55  O   UNL     1      -1.600   8.317  26.807  0.00  0.00    -0.240 OA
ATOM     56  O   UNL     1      -1.721   7.546  28.782  0.00  0.00    -0.240 OA
ENDBRANCH  45  54
BRANCH  47  57
ATOM     57  O   UNL     1      -4.069  10.197  31.287  0.00  0.00    -0.390 OA
ATOM     58  H   UNL     1      -4.996  10.440  31.223  0.00  0.00    +0.210 HD
ENDBRANCH  47  57
BRANCH  45  59
ATOM     59  O   UNL     1      -4.570   7.472  27.314  0.00  0.00    -0.343 OA
ATOM     60  C   UNL     1      -5.060   7.749  25.977  0.00  0.00    +0.198 C 
ENDBRANCH  45  59
ENDBRANCH  42  43
BRANCH  42  61
ATOM     61  O   UNL     1      -4.933  12.614  26.864  0.00  0.00    -0.387 OA
ATOM     62  H   UNL     1      -4.927  13.284  27.551  0.00  0.00    +0.210 HD
ENDBRANCH  42  61
ENDBRANCH  39  42
ENDBRANCH  38  39
ENDBRANCH  36  38
ENDBRANCH  33  34
ENDBRANCH  32  33
ENDBRANCH   2  32
TORSDOF 17
