REMARK VINA RESULT:    -4.960      2.328      5.889
REMARK INTER + INTRA:         -11.609
REMARK INTER:                  -7.756
REMARK INTRA:                  -3.853
REMARK UNBOUND:                -2.299
REMARK  Name = lig_assembled_32.pdb
REMARK  19 active torsions:
REMARK  status: ('A' for Active; 'I' for Inactive)
REMARK    1  A    between atoms: _2  and  _9
REMARK    2  A    between atoms: _4  and  _17
REMARK    3  A    between atoms: _5  and  _10
REMARK    4  A    between atoms: _5  and  _11
REMARK    5  A    between atoms: _6  and  _7
REMARK    6  A    between atoms: _6  and  _17
REMARK    7  A    between atoms: _9  and  _10
REMARK    8  A    between atoms: _13  and  _33
REMARK    9  A    between atoms: _15  and  _21
REMARK   10  A    between atoms: _16  and  _20
REMARK   11  A    between atoms: _20  and  _21
REMARK   12  A    between atoms: _23  and  _24
REMARK   13  A    between atoms: _25  and  _26
REMARK   14  A    between atoms: _27  and  _29
REMARK   15  A    between atoms: _29  and  _30
REMARK   16  A    between atoms: _29  and  _31
REMARK   17  A    between atoms: _31  and  _32
REMARK   18  A    between atoms: _31  and  _33
REMARK   19  A    between atoms: _34  and  _36
REMARK                            x       y       z     vdW  Elec       q    Type
REMARK                         _______ _______ _______ _____ _____    ______ ____
ROOT
ATOM      1  C   UNL     1      -4.473  11.861  25.905  0.00  0.00    +0.163 C 
ENDROOT
BRANCH   1   2
ATOM      2  O   UNL     1      -3.417  11.025  25.404  0.00  0.00    -0.388 OA
ATOM      3  H   UNL     1      -2.830  10.783  26.124  0.00  0.00    +0.210 HD
ENDBRANCH   1   2
BRANCH   1   4
ATOM      4  C   UNL     1      -4.265  12.174  27.397  0.00  0.00    +0.175 C 
BRANCH   4   5
ATOM      5  C   UNL     1      -3.623  10.999  28.150  0.00  0.00    +0.176 C 
ATOM      6  O   UNL     1      -4.240   9.772  27.674  0.00  0.00    -0.332 OA
ATOM      7  C   UNL     1      -3.675   8.529  28.209  0.00  0.00    +0.277 C 
ATOM      8  C   UNL     1      -3.684   8.553  29.757  0.00  0.00    +0.110 C 
ATOM      9  C   UNL     1      -3.066   9.855  30.310  0.00  0.00    +0.143 C 
ATOM     10  C   UNL     1      -3.726  11.084  29.684  0.00  0.00    +0.133 C 
BRANCH  10  11
ATOM     11  N   UNL     1      -3.070  12.315  30.153  0.00  0.00    -0.308 N 
ATOM     12  H   UNL     1      -2.123  12.490  29.849  0.00  0.00    +0.149 HD
ATOM     13  C   UNL     1      -3.646  13.216  30.954  0.00  0.00    +0.210 C 
ATOM     14  C   UNL     1      -5.081  12.907  31.421  0.00  0.00    +0.109 C 
ATOM     15  O   UNL     1      -3.078  14.246  31.319  0.00  0.00    -0.276 OA
ENDBRANCH  10  11
BRANCH   7  16
ATOM     16  C   UNL     1      -2.231   8.323  27.705  0.00  0.00    +0.414 C 
ATOM     17  O   UNL     1      -1.889   8.764  26.608  0.00  0.00    -0.240 OA
ATOM     18  O   UNL     1      -1.410   7.717  28.394  0.00  0.00    -0.240 OA
ENDBRANCH   7  16
BRANCH   7  19
ATOM     19  O   UNL     1      -4.509   7.429  27.763  0.00  0.00    -0.343 OA
ATOM     20  C   UNL     1      -4.949   6.530  28.813  0.00  0.00    +0.198 C 
ENDBRANCH   7  19
BRANCH   9  21
ATOM     21  O   UNL     1      -3.232   9.902  31.728  0.00  0.00    -0.390 OA
ATOM     22  H   UNL     1      -2.405   9.666  32.155  0.00  0.00    +0.210 HD
ENDBRANCH   9  21
ENDBRANCH   4   5
BRANCH   4  23
ATOM     23  O   UNL     1      -5.521  12.529  28.009  0.00  0.00    -0.387 OA
ATOM     24  H   UNL     1      -5.369  13.189  28.690  0.00  0.00    +0.210 HD
ENDBRANCH   4  23
ENDBRANCH   1   4
BRANCH   1  25
ATOM     25  C   UNL     1      -4.528  13.163  25.114  0.00  0.00    +0.141 C 
BRANCH  25  28
ATOM     26  C   UNL     1      -4.183  13.567  22.701  0.00  0.00    +0.401 C 
ATOM     27  O   UNL     1      -5.269  14.129  22.544  0.00  0.00    -0.226 OA
ATOM     28  N   UNL     1      -3.758  13.079  23.867  0.00  0.00    -0.279 N 
ATOM     29  H   UNL     1      -2.855  12.626  23.893  0.00  0.00    +0.152 HD
BRANCH  26  30
ATOM     30  O   UNL     1      -3.311  13.414  21.577  0.00  0.00    -0.444 OA
BRANCH  30  31
ATOM     31  C   UNL     1      -3.852  12.438  20.683  0.00  0.00    +0.292 C 
BRANCH  31  33
ATOM     32  N   UNL     1      -2.876  10.649  22.086  0.00  0.00    -0.131 NA
ATOM     33  C   UNL     1      -3.925  11.121  21.343  0.00  0.00    +0.120 A 
ATOM     34  C   UNL     1      -4.939  10.188  21.351  0.00  0.00    +0.137 A 
ATOM     35  N   UNL     1      -4.439   9.171  22.105  0.00  0.00    -0.251 N 
ATOM     36  N   UNL     1      -3.201   9.449  22.547  0.00  0.00    -0.065 NA
BRANCH  35  37
ATOM     37  C   UNL     1      -5.071   7.918  22.451  0.00  0.00    +0.156 C 
BRANCH  37  38
ATOM     38  C   UNL     1      -6.316   8.124  23.303  0.00  0.00    +0.143 C 
BRANCH  38  39
ATOM     39  C   UNL     1      -5.934   8.604  24.673  0.00  0.00    +0.306 C 
ATOM     40  O   UNL     1      -6.676   9.201  25.436  0.00  0.00    -0.251 OA
BRANCH  39  41
ATOM     41  O   UNL     1      -4.650   8.318  24.987  0.00  0.00    -0.481 OA
ATOM     42  H   UNL     1      -4.412   8.505  25.916  0.00  0.00    +0.295 HD
ENDBRANCH  39  41
ENDBRANCH  38  39
ENDBRANCH  37  38
ENDBRANCH  35  37
ENDBRANCH  31  33
ENDBRANCH  30  31
ENDBRANCH  26  30
ENDBRANCH  25  28
ENDBRANCH   1  25
TORSDOF 17
