REMARK VINA RESULT:    -5.650      1.162      1.559
REMARK INTER + INTRA:         -13.444
REMARK INTER:                 -11.425
REMARK INTRA:                  -2.019
REMARK UNBOUND:                -2.840
REMARK  Name = lig_assembled_77.pdb
REMARK  19 active torsions:
REMARK  status: ('A' for Active; 'I' for Inactive)
REMARK    1  A    between atoms: _2  and  _10
REMARK    2  A    between atoms: _3  and  _17
REMARK    3  A    between atoms: _5  and  _27
REMARK    4  A    between atoms: _7  and  _8
REMARK    5  A    between atoms: _7  and  _27
REMARK    6  A    between atoms: _13  and  _47
REMARK    7  A    between atoms: _14  and  _47
REMARK    8  A    between atoms: _23  and  _43
REMARK    9  A    between atoms: _25  and  _31
REMARK   10  A    between atoms: _26  and  _30
REMARK   11  A    between atoms: _30  and  _31
REMARK   12  A    between atoms: _33  and  _34
REMARK   13  A    between atoms: _35  and  _36
REMARK   14  A    between atoms: _37  and  _39
REMARK   15  A    between atoms: _39  and  _40
REMARK   16  A    between atoms: _39  and  _41
REMARK   17  A    between atoms: _41  and  _42
REMARK   18  A    between atoms: _41  and  _43
REMARK   19  A    between atoms: _44  and  _46
REMARK                            x       y       z     vdW  Elec       q    Type
REMARK                         _______ _______ _______ _____ _____    ______ ____
ROOT
ATOM      1  C   UNL     1      -4.169  12.128  22.987  0.00  0.00    +0.401 C 
ATOM      2  O   UNL     1      -3.919  13.244  22.527  0.00  0.00    -0.226 OA
ATOM      3  N   UNL     1      -4.313  11.872  24.288  0.00  0.00    -0.279 N 
ATOM      4  H   UNL     1      -4.528  10.925  24.567  0.00  0.00    +0.152 HD
ENDROOT
BRANCH   3   5
ATOM      5  C   UNL     1      -4.179  12.890  25.337  0.00  0.00    +0.141 C 
BRANCH   5   6
ATOM      6  C   UNL     1      -5.436  12.993  26.194  0.00  0.00    +0.163 C 
BRANCH   6   7
ATOM      7  O   UNL     1      -6.357  11.947  25.843  0.00  0.00    -0.388 OA
ATOM      8  H   UNL     1      -7.251  12.219  26.064  0.00  0.00    +0.210 HD
ENDBRANCH   6   7
BRANCH   6   9
ATOM      9  C   UNL     1      -5.053  12.911  27.682  0.00  0.00    +0.175 C 
BRANCH   9  10
ATOM     10  C   UNL     1      -3.995  11.830  27.948  0.00  0.00    +0.176 C 
ATOM     11  O   UNL     1      -4.334  10.666  27.145  0.00  0.00    -0.332 OA
ATOM     12  C   UNL     1      -3.371   9.562  27.189  0.00  0.00    +0.277 C 
ATOM     13  C   UNL     1      -3.110   9.130  28.653  0.00  0.00    +0.110 C 
ATOM     14  C   UNL     1      -2.776  10.339  29.553  0.00  0.00    +0.143 C 
ATOM     15  C   UNL     1      -3.842  11.428  29.426  0.00  0.00    +0.133 C 
BRANCH  15  16
ATOM     16  N   UNL     1      -3.469  12.609  30.221  0.00  0.00    -0.308 N 
ATOM     17  H   UNL     1      -2.685  13.162  29.904  0.00  0.00    +0.149 HD
ATOM     18  C   UNL     1      -4.098  12.997  31.333  0.00  0.00    +0.210 C 
ATOM     19  C   UNL     1      -5.272  12.118  31.804  0.00  0.00    +0.109 C 
ATOM     20  O   UNL     1      -3.772  14.000  31.970  0.00  0.00    -0.276 OA
ENDBRANCH  15  16
BRANCH  12  21
ATOM     21  C   UNL     1      -2.039   9.972  26.528  0.00  0.00    +0.414 C 
ATOM     22  O   UNL     1      -0.972   9.776  27.108  0.00  0.00    -0.240 OA
ATOM     23  O   UNL     1      -2.031  10.499  25.414  0.00  0.00    -0.240 OA
ENDBRANCH  12  21
BRANCH  14  24
ATOM     24  O   UNL     1      -2.693   9.917  30.915  0.00  0.00    -0.390 OA
ATOM     25  H   UNL     1      -2.107   9.160  30.981  0.00  0.00    +0.210 HD
ENDBRANCH  14  24
BRANCH  12  26
ATOM     26  O   UNL     1      -3.944   8.437  26.475  0.00  0.00    -0.343 OA
ATOM     27  C   UNL     1      -5.348   8.193  26.743  0.00  0.00    +0.198 C 
ENDBRANCH  12  26
ENDBRANCH   9  10
BRANCH   9  28
ATOM     28  O   UNL     1      -6.225  12.668  28.485  0.00  0.00    -0.387 OA
ATOM     29  H   UNL     1      -6.935  13.247  28.198  0.00  0.00    +0.210 HD
ENDBRANCH   9  28
ENDBRANCH   6   9
ENDBRANCH   5   6
ENDBRANCH   3   5
BRANCH   1  30
ATOM     30  O   UNL     1      -4.321  11.025  22.089  0.00  0.00    -0.444 OA
BRANCH  30  31
ATOM     31  C   UNL     1      -5.661  10.999  21.589  0.00  0.00    +0.292 C 
BRANCH  31  33
ATOM     32  N   UNL     1      -6.565  12.276  19.675  0.00  0.00    -0.131 NA
ATOM     33  C   UNL     1      -5.684  11.352  20.156  0.00  0.00    +0.121 A 
ATOM     34  C   UNL     1      -4.910  10.885  19.119  0.00  0.00    +0.143 A 
ATOM     35  N   UNL     1      -5.353  11.568  18.009  0.00  0.00    -0.220 N 
ATOM     36  N   UNL     1      -6.365  12.395  18.370  0.00  0.00    -0.060 NA
BRANCH  35  37
ATOM     37  C   UNL     1      -4.851  11.532  16.681  0.00  0.00    +0.067 A 
ATOM     38  C   UNL     1      -3.788  10.683  16.336  0.00  0.00    +0.030 A 
ATOM     39  C   UNL     1      -3.227  10.748  15.057  0.00  0.00    +0.029 A 
ATOM     40  C   UNL     1      -3.732  11.657  14.124  0.00  0.00    +0.094 A 
ATOM     41  C   UNL     1      -4.849  12.442  14.428  0.00  0.00    +0.029 A 
ATOM     42  C   UNL     1      -5.400  12.388  15.711  0.00  0.00    +0.030 A 
BRANCH  40  43
ATOM     43  S   UNL     1      -2.971  11.788  12.519  0.00  0.00    +0.025 S 
ATOM     44  O   UNL     1      -1.956  10.750  12.467  0.00  0.00    -0.164 OA
ATOM     45  O   UNL     1      -4.037  11.829  11.536  0.00  0.00    -0.164 OA
BRANCH  43  46
ATOM     46  C   UNL     1      -2.126  13.352  12.407  0.00  0.00    +0.094 A 
ATOM     47  C   UNL     1      -0.884  13.454  11.781  0.00  0.00    +0.029 A 
ATOM     48  C   UNL     1      -0.219  14.686  11.766  0.00  0.00    +0.024 A 
ATOM     49  C   UNL     1      -0.802  15.829  12.329  0.00  0.00    +0.025 A 
ATOM     50  C   UNL     1      -2.034  15.700  12.979  0.00  0.00    +0.024 A 
ATOM     51  C   UNL     1      -2.707  14.476  13.002  0.00  0.00    +0.029 A 
BRANCH  49  52
ATOM     52  N   UNL     1      -0.061  17.006  12.460  0.00  0.00    -0.358 N 
ATOM     53  H   UNL     1      -0.503  17.727  13.021  0.00  0.00    +0.142 HD
ATOM     54  H   UNL     1       0.913  16.864  12.707  0.00  0.00    +0.142 HD
ENDBRANCH  49  52
ENDBRANCH  43  46
ENDBRANCH  40  43
ENDBRANCH  35  37
ENDBRANCH  31  33
ENDBRANCH  30  31
ENDBRANCH   1  30
TORSDOF 17
