REMARK VINA RESULT:    -4.125      3.765      7.122
REMARK INTER + INTRA:         -11.563
REMARK INTER:                  -9.251
REMARK INTRA:                  -2.312
REMARK UNBOUND:                -3.458
REMARK  Name = lig_assembled_43.pdb
REMARK  20 active torsions:
REMARK  status: ('A' for Active; 'I' for Inactive)
REMARK    1  A    between atoms: _2  and  _9
REMARK    2  A    between atoms: _4  and  _18
REMARK    3  A    between atoms: _6  and  _7
REMARK    4  A    between atoms: _6  and  _18
REMARK    5  A    between atoms: _9  and  _10
REMARK    6  A    between atoms: _10  and  _11
REMARK    7  A    between atoms: _11  and  _12
REMARK    8  A    between atoms: _12  and  _13
REMARK    9  A    between atoms: _14  and  _34
REMARK   10  A    between atoms: _16  and  _22
REMARK   11  A    between atoms: _17  and  _21
REMARK   12  A    between atoms: _21  and  _22
REMARK   13  A    between atoms: _24  and  _25
REMARK   14  A    between atoms: _26  and  _27
REMARK   15  A    between atoms: _28  and  _30
REMARK   16  A    between atoms: _30  and  _31
REMARK   17  A    between atoms: _30  and  _32
REMARK   18  A    between atoms: _32  and  _33
REMARK   19  A    between atoms: _32  and  _34
REMARK   20  A    between atoms: _35  and  _37
REMARK                            x       y       z     vdW  Elec       q    Type
REMARK                         _______ _______ _______ _____ _____    ______ ____
ROOT
ATOM      1  C   UNL     1      -3.210  11.773  25.133  0.00  0.00    +0.163 C 
ENDROOT
BRANCH   1   2
ATOM      2  O   UNL     1      -2.086  10.879  25.074  0.00  0.00    -0.388 OA
ATOM      3  H   UNL     1      -1.275  11.374  25.215  0.00  0.00    +0.210 HD
ENDBRANCH   1   2
BRANCH   1   4
ATOM      4  C   UNL     1      -3.548  12.138  26.589  0.00  0.00    +0.175 C 
BRANCH   4   5
ATOM      5  C   UNL     1      -3.348  10.951  27.543  0.00  0.00    +0.176 C 
ATOM      6  O   UNL     1      -3.986   9.787  26.949  0.00  0.00    -0.332 OA
ATOM      7  C   UNL     1      -3.806   8.526  27.674  0.00  0.00    +0.277 C 
ATOM      8  C   UNL     1      -4.262   8.679  29.146  0.00  0.00    +0.110 C 
ATOM      9  C   UNL     1      -3.634   9.922  29.811  0.00  0.00    +0.143 C 
ATOM     10  C   UNL     1      -3.878  11.176  28.971  0.00  0.00    +0.133 C 
BRANCH  10  11
ATOM     11  N   UNL     1      -3.201  12.337  29.569  0.00  0.00    -0.308 N 
ATOM     12  H   UNL     1      -2.191  12.338  29.586  0.00  0.00    +0.149 HD
ATOM     13  C   UNL     1      -3.834  13.391  30.092  0.00  0.00    +0.210 C 
ATOM     14  C   UNL     1      -5.374  13.348  30.076  0.00  0.00    +0.109 C 
ATOM     15  O   UNL     1      -3.241  14.356  30.574  0.00  0.00    -0.276 OA
ENDBRANCH  10  11
BRANCH   7  16
ATOM     16  C   UNL     1      -2.330   8.079  27.635  0.00  0.00    +0.414 C 
ATOM     17  O   UNL     1      -1.641   8.299  26.640  0.00  0.00    -0.240 OA
ATOM     18  O   UNL     1      -1.829   7.498  28.599  0.00  0.00    -0.240 OA
ENDBRANCH   7  16
BRANCH   9  19
ATOM     19  O   UNL     1      -4.195  10.109  31.110  0.00  0.00    -0.390 OA
ATOM     20  H   UNL     1      -4.680   9.321  31.367  0.00  0.00    +0.210 HD
ENDBRANCH   9  19
BRANCH   7  21
ATOM     21  O   UNL     1      -4.638   7.521  27.040  0.00  0.00    -0.343 OA
ATOM     22  C   UNL     1      -5.098   7.859  25.707  0.00  0.00    +0.198 C 
ENDBRANCH   7  21
ENDBRANCH   4   5
BRANCH   4  23
ATOM     23  O   UNL     1      -4.902  12.624  26.677  0.00  0.00    -0.387 OA
ATOM     24  H   UNL     1      -4.906  13.487  27.097  0.00  0.00    +0.210 HD
ENDBRANCH   4  23
ENDBRANCH   1   4
BRANCH   1  25
ATOM     25  C   UNL     1      -2.906  13.045  24.347  0.00  0.00    +0.141 C 
BRANCH  25  28
ATOM     26  C   UNL     1      -4.903  13.534  22.976  0.00  0.00    +0.401 C 
ATOM     27  O   UNL     1      -5.577  13.930  23.930  0.00  0.00    -0.226 OA
ATOM     28  N   UNL     1      -3.648  13.096  23.081  0.00  0.00    -0.279 N 
ATOM     29  H   UNL     1      -3.181  12.782  22.242  0.00  0.00    +0.152 HD
BRANCH  26  30
ATOM     30  O   UNL     1      -5.485  13.530  21.670  0.00  0.00    -0.444 OA
BRANCH  30  31
ATOM     31  C   UNL     1      -5.715  12.181  21.253  0.00  0.00    +0.292 C 
BRANCH  31  33
ATOM     32  N   UNL     1      -6.944  12.308  19.108  0.00  0.00    -0.131 NA
ATOM     33  C   UNL     1      -5.768  12.101  19.782  0.00  0.00    +0.120 A 
ATOM     34  C   UNL     1      -4.771  11.827  18.874  0.00  0.00    +0.137 A 
ATOM     35  N   UNL     1      -5.405  11.877  17.669  0.00  0.00    -0.251 N 
ATOM     36  N   UNL     1      -6.707  12.168  17.810  0.00  0.00    -0.065 NA
BRANCH  35  37
ATOM     37  C   UNL     1      -4.846  11.629  16.356  0.00  0.00    +0.145 C 
BRANCH  37  38
ATOM     38  C   UNL     1      -3.926  10.413  16.360  0.00  0.00    +0.024 C 
BRANCH  38  39
ATOM     39  C   UNL     1      -4.654   9.140  15.921  0.00  0.00    +0.006 C 
BRANCH  39  40
ATOM     40  C   UNL     1      -3.648   8.059  15.519  0.00  0.00    +0.026 C 
BRANCH  40  41
ATOM     41  C   UNL     1      -2.381   8.645  14.969  0.00  0.00    -0.034 C 
ATOM     42  C   UNL     1      -1.164   8.129  15.186  0.00  0.00    +0.004 C 
ENDBRANCH  40  41
ENDBRANCH  39  40
ENDBRANCH  38  39
ENDBRANCH  37  38
ENDBRANCH  35  37
ENDBRANCH  31  33
ENDBRANCH  30  31
ENDBRANCH  26  30
ENDBRANCH  25  28
ENDBRANCH   1  25
TORSDOF 18
