REMARK VINA RESULT:    -5.057      3.372     10.058
REMARK INTER + INTRA:         -11.839
REMARK INTER:                  -9.489
REMARK INTRA:                  -2.350
REMARK UNBOUND:                -2.792
REMARK  Name = lig_assembled_5.pdb
REMARK  18 active torsions:
REMARK  status: ('A' for Active; 'I' for Inactive)
REMARK    1  A    between atoms: _2  and  _9
REMARK    2  A    between atoms: _4  and  _20
REMARK    3  A    between atoms: _6  and  _7
REMARK    4  A    between atoms: _6  and  _20
REMARK    5  A    between atoms: _12  and  _15
REMARK    6  A    between atoms: _13  and  _15
REMARK    7  A    between atoms: _16  and  _36
REMARK    8  A    between atoms: _18  and  _24
REMARK    9  A    between atoms: _19  and  _23
REMARK   10  A    between atoms: _23  and  _24
REMARK   11  A    between atoms: _26  and  _27
REMARK   12  A    between atoms: _28  and  _29
REMARK   13  A    between atoms: _30  and  _32
REMARK   14  A    between atoms: _32  and  _33
REMARK   15  A    between atoms: _32  and  _34
REMARK   16  A    between atoms: _34  and  _35
REMARK   17  A    between atoms: _34  and  _36
REMARK   18  A    between atoms: _37  and  _39
REMARK                            x       y       z     vdW  Elec       q    Type
REMARK                         _______ _______ _______ _____ _____    ______ ____
ROOT
ATOM      1  C   UNL     1      -3.548  12.457  24.156  0.00  0.00    +0.163 C 
ENDROOT
BRANCH   1   2
ATOM      2  O   UNL     1      -2.131  12.286  24.321  0.00  0.00    -0.388 OA
ATOM      3  H   UNL     1      -1.911  11.354  24.259  0.00  0.00    +0.210 HD
ENDBRANCH   1   2
BRANCH   1   4
ATOM      4  C   UNL     1      -3.826  13.625  23.215  0.00  0.00    +0.141 C 
BRANCH   4   7
ATOM      5  C   UNL     1      -6.033  13.663  22.102  0.00  0.00    +0.401 C 
ATOM      6  O   UNL     1      -6.556  14.381  22.957  0.00  0.00    -0.226 OA
ATOM      7  N   UNL     1      -4.763  13.256  22.146  0.00  0.00    -0.279 N 
ATOM      8  H   UNL     1      -4.427  12.660  21.403  0.00  0.00    +0.152 HD
BRANCH   5   9
ATOM      9  O   UNL     1      -6.816  13.224  20.989  0.00  0.00    -0.444 OA
BRANCH   9  10
ATOM     10  C   UNL     1      -6.384  11.922  20.584  0.00  0.00    +0.292 C 
BRANCH  10  12
ATOM     11  N   UNL     1      -7.066  12.259  18.230  0.00  0.00    -0.131 NA
ATOM     12  C   UNL     1      -6.110  11.901  19.135  0.00  0.00    +0.121 A 
ATOM     13  C   UNL     1      -4.960  11.562  18.462  0.00  0.00    +0.143 A 
ATOM     14  N   UNL     1      -5.253  11.757  17.131  0.00  0.00    -0.220 N 
ATOM     15  N   UNL     1      -6.543  12.162  17.016  0.00  0.00    -0.060 NA
BRANCH  14  16
ATOM     16  C   UNL     1      -4.404  11.614  16.004  0.00  0.00    +0.067 A 
ATOM     17  C   UNL     1      -4.133  12.704  15.168  0.00  0.00    +0.031 A 
ATOM     18  C   UNL     1      -3.344  12.530  14.029  0.00  0.00    +0.048 A 
ATOM     19  C   UNL     1      -2.799  11.282  13.719  0.00  0.00    +0.120 A 
ATOM     20  C   UNL     1      -3.053  10.199  14.558  0.00  0.00    +0.048 A 
ATOM     21  C   UNL     1      -3.853  10.361  15.697  0.00  0.00    +0.031 A 
BRANCH  19  22
ATOM     22  O   UNL     1      -2.099  11.236  12.545  0.00  0.00    -0.495 OA
ATOM     23  C   UNL     1      -2.865  11.317  11.351  0.00  0.00    +0.277 C 
ENDBRANCH  19  22
ENDBRANCH  14  16
ENDBRANCH  10  12
ENDBRANCH   9  10
ENDBRANCH   5   9
ENDBRANCH   4   7
ENDBRANCH   1   4
BRANCH   1  24
ATOM     24  C   UNL     1      -4.234  12.713  25.509  0.00  0.00    +0.175 C 
BRANCH  24  25
ATOM     25  C   UNL     1      -3.864  11.650  26.554  0.00  0.00    +0.176 C 
ATOM     26  O   UNL     1      -3.863  10.355  25.893  0.00  0.00    -0.332 OA
ATOM     27  C   UNL     1      -3.426   9.224  26.717  0.00  0.00    +0.277 C 
ATOM     28  C   UNL     1      -4.263   9.147  28.018  0.00  0.00    +0.110 C 
ATOM     29  C   UNL     1      -4.320  10.509  28.739  0.00  0.00    +0.143 C 
ATOM     30  C   UNL     1      -4.783  11.615  27.789  0.00  0.00    +0.133 C 
BRANCH  30  31
ATOM     31  N   UNL     1      -4.750  12.922  28.464  0.00  0.00    -0.308 N 
ATOM     32  H   UNL     1      -3.846  13.317  28.683  0.00  0.00    +0.149 HD
ATOM     33  C   UNL     1      -5.836  13.619  28.807  0.00  0.00    +0.210 C 
ATOM     34  C   UNL     1      -7.198  12.978  28.484  0.00  0.00    +0.109 C 
ATOM     35  O   UNL     1      -5.778  14.719  29.359  0.00  0.00    -0.276 OA
ENDBRANCH  30  31
BRANCH  27  36
ATOM     36  C   UNL     1      -1.931   9.351  27.073  0.00  0.00    +0.414 C 
ATOM     37  O   UNL     1      -1.496   8.855  28.112  0.00  0.00    -0.240 OA
ATOM     38  O   UNL     1      -1.159   9.949  26.322  0.00  0.00    -0.240 OA
ENDBRANCH  27  36
BRANCH  27  39
ATOM     39  O   UNL     1      -3.646   8.006  25.959  0.00  0.00    -0.343 OA
ATOM     40  C   UNL     1      -4.329   8.187  24.693  0.00  0.00    +0.198 C 
ENDBRANCH  27  39
BRANCH  29  41
ATOM     41  O   UNL     1      -5.221  10.432  29.845  0.00  0.00    -0.390 OA
ATOM     42  H   UNL     1      -6.022  10.919  29.641  0.00  0.00    +0.210 HD
ENDBRANCH  29  41
ENDBRANCH  24  25
BRANCH  24  43
ATOM     43  O   UNL     1      -5.664  12.767  25.339  0.00  0.00    -0.387 OA
ATOM     44  H   UNL     1      -6.072  12.049  25.830  0.00  0.00    +0.210 HD
ENDBRANCH  24  43
ENDBRANCH   1  24
TORSDOF 15
