REMARK VINA RESULT:    -4.572      3.149      9.365
REMARK INTER + INTRA:         -11.468
REMARK INTER:                  -9.479
REMARK INTRA:                  -1.989
REMARK UNBOUND:                -2.754
REMARK  Name = lig_assembled_19.pdb
REMARK  20 active torsions:
REMARK  status: ('A' for Active; 'I' for Inactive)
REMARK    1  A    between atoms: _2  and  _9
REMARK    2  A    between atoms: _4  and  _18
REMARK    3  A    between atoms: _5  and  _11
REMARK    4  A    between atoms: _6  and  _7
REMARK    5  A    between atoms: _6  and  _18
REMARK    6  A    between atoms: _9  and  _10
REMARK    7  A    between atoms: _10  and  _13
REMARK    8  A    between atoms: _11  and  _13
REMARK    9  A    between atoms: _14  and  _34
REMARK   10  A    between atoms: _16  and  _22
REMARK   11  A    between atoms: _17  and  _21
REMARK   12  A    between atoms: _21  and  _22
REMARK   13  A    between atoms: _24  and  _25
REMARK   14  A    between atoms: _26  and  _27
REMARK   15  A    between atoms: _28  and  _30
REMARK   16  A    between atoms: _30  and  _31
REMARK   17  A    between atoms: _30  and  _32
REMARK   18  A    between atoms: _32  and  _33
REMARK   19  A    between atoms: _32  and  _34
REMARK   20  A    between atoms: _35  and  _37
REMARK                            x       y       z     vdW  Elec       q    Type
REMARK                         _______ _______ _______ _____ _____    ______ ____
ROOT
ATOM      1  C   UNL     1      -3.129  11.750  25.122  0.00  0.00    +0.163 C 
ENDROOT
BRANCH   1   2
ATOM      2  O   UNL     1      -2.070  10.779  25.090  0.00  0.00    -0.388 OA
ATOM      3  H   UNL     1      -2.360   9.974  25.527  0.00  0.00    +0.210 HD
ENDBRANCH   1   2
BRANCH   1   4
ATOM      4  C   UNL     1      -3.522  12.088  26.570  0.00  0.00    +0.175 C 
BRANCH   4   5
ATOM      5  C   UNL     1      -3.342  10.889  27.513  0.00  0.00    +0.176 C 
ATOM      6  O   UNL     1      -3.990   9.739  26.903  0.00  0.00    -0.332 OA
ATOM      7  C   UNL     1      -3.828   8.468  27.616  0.00  0.00    +0.277 C 
ATOM      8  C   UNL     1      -4.292   8.611  29.087  0.00  0.00    +0.110 C 
ATOM      9  C   UNL     1      -3.653   9.839  29.768  0.00  0.00    +0.143 C 
ATOM     10  C   UNL     1      -3.878  11.105  28.940  0.00  0.00    +0.133 C 
BRANCH  10  11
ATOM     11  N   UNL     1      -3.192  12.252  29.555  0.00  0.00    -0.308 N 
ATOM     12  H   UNL     1      -2.183  12.230  29.598  0.00  0.00    +0.149 HD
ATOM     13  C   UNL     1      -3.815  13.320  30.060  0.00  0.00    +0.210 C 
ATOM     14  C   UNL     1      -5.355  13.311  30.003  0.00  0.00    +0.109 C 
ATOM     15  O   UNL     1      -3.214  14.273  30.556  0.00  0.00    -0.276 OA
ENDBRANCH  10  11
BRANCH   7  16
ATOM     16  C   UNL     1      -2.357   8.004  27.581  0.00  0.00    +0.414 C 
ATOM     17  O   UNL     1      -1.640   8.288  26.622  0.00  0.00    -0.240 OA
ATOM     18  O   UNL     1      -1.888   7.347  28.511  0.00  0.00    -0.240 OA
ENDBRANCH   7  16
BRANCH   9  19
ATOM     19  O   UNL     1      -4.221  10.019  31.066  0.00  0.00    -0.390 OA
ATOM     20  H   UNL     1      -4.807  10.779  31.057  0.00  0.00    +0.210 HD
ENDBRANCH   9  19
BRANCH   7  21
ATOM     21  O   UNL     1      -4.668   7.479  26.966  0.00  0.00    -0.343 OA
ATOM     22  C   UNL     1      -4.809   7.643  25.532  0.00  0.00    +0.198 C 
ENDBRANCH   7  21
ENDBRANCH   4   5
BRANCH   4  23
ATOM     23  O   UNL     1      -4.885  12.557  26.618  0.00  0.00    -0.387 OA
ATOM     24  H   UNL     1      -5.287  12.289  27.448  0.00  0.00    +0.210 HD
ENDBRANCH   4  23
ENDBRANCH   1   4
BRANCH   1  25
ATOM     25  C   UNL     1      -2.692  13.022  24.403  0.00  0.00    +0.141 C 
BRANCH  25  28
ATOM     26  C   UNL     1      -4.484  13.391  22.742  0.00  0.00    +0.401 C 
ATOM     27  O   UNL     1      -5.345  13.641  23.588  0.00  0.00    -0.226 OA
ATOM     28  N   UNL     1      -3.219  13.085  23.034  0.00  0.00    -0.279 N 
ATOM     29  H   UNL     1      -2.588  12.887  22.270  0.00  0.00    +0.152 HD
BRANCH  26  30
ATOM     30  O   UNL     1      -4.840  13.421  21.357  0.00  0.00    -0.444 OA
BRANCH  30  31
ATOM     31  C   UNL     1      -5.633  12.273  21.043  0.00  0.00    +0.292 C 
BRANCH  31  33
ATOM     32  N   UNL     1      -6.498  12.324  18.722  0.00  0.00    -0.131 NA
ATOM     33  C   UNL     1      -5.524  11.948  19.610  0.00  0.00    +0.120 A 
ATOM     34  C   UNL     1      -4.534  11.274  18.931  0.00  0.00    +0.137 A 
ATOM     35  N   UNL     1      -4.971  11.265  17.641  0.00  0.00    -0.248 N 
ATOM     36  N   UNL     1      -6.147  11.900  17.515  0.00  0.00    -0.065 NA
BRANCH  35  37
ATOM     37  C   UNL     1      -4.318  10.687  16.486  0.00  0.00    +0.186 C 
BRANCH  37  38
ATOM     38  C   UNL     1      -4.193  11.691  15.345  0.00  0.00    +0.255 C 
BRANCH  38  39
ATOM     39  O   UNL     1      -2.895  11.644  14.718  0.00  0.00    -0.463 OA
BRANCH  39  40
ATOM     40  C   UNL     1      -2.891  11.572  13.361  0.00  0.00    +0.304 C 
ATOM     41  O   UNL     1      -2.137  10.871  12.700  0.00  0.00    -0.251 OA
ATOM     42  C   UNL     1      -3.960  12.444  12.776  0.00  0.00    +0.136 C 
ENDBRANCH  39  40
ENDBRANCH  38  39
ENDBRANCH  37  38
ENDBRANCH  35  37
ENDBRANCH  31  33
ENDBRANCH  30  31
ENDBRANCH  26  30
ENDBRANCH  25  28
ENDBRANCH   1  25
TORSDOF 17
