REMARK VINA RESULT:    -4.867      4.444      9.095
REMARK INTER + INTRA:         -11.756
REMARK INTER:                  -9.617
REMARK INTRA:                  -2.139
REMARK UNBOUND:                -3.049
REMARK  Name = lig_assembled_28.pdb
REMARK  17 active torsions:
REMARK  status: ('A' for Active; 'I' for Inactive)
REMARK    1  A    between atoms: _2  and  _9
REMARK    2  A    between atoms: _4  and  _22
REMARK    3  A    between atoms: _6  and  _7
REMARK    4  A    between atoms: _6  and  _22
REMARK    5  A    between atoms: _9  and  _10
REMARK    6  A    between atoms: _18  and  _38
REMARK    7  A    between atoms: _20  and  _26
REMARK    8  A    between atoms: _21  and  _25
REMARK    9  A    between atoms: _25  and  _26
REMARK   10  A    between atoms: _28  and  _29
REMARK   11  A    between atoms: _30  and  _31
REMARK   12  A    between atoms: _32  and  _34
REMARK   13  A    between atoms: _34  and  _35
REMARK   14  A    between atoms: _34  and  _36
REMARK   15  A    between atoms: _36  and  _37
REMARK   16  A    between atoms: _36  and  _38
REMARK   17  A    between atoms: _39  and  _41
REMARK                            x       y       z     vdW  Elec       q    Type
REMARK                         _______ _______ _______ _____ _____    ______ ____
ROOT
ATOM      1  C   UNL     1      -3.197  11.745  25.056  0.00  0.00    +0.163 C 
ENDROOT
BRANCH   1   2
ATOM      2  O   UNL     1      -2.003  10.947  25.099  0.00  0.00    -0.388 OA
ATOM      3  H   UNL     1      -2.235  10.018  25.029  0.00  0.00    +0.210 HD
ENDBRANCH   1   2
BRANCH   1   4
ATOM      4  C   UNL     1      -2.911  13.076  24.369  0.00  0.00    +0.141 C 
BRANCH   4   7
ATOM      5  C   UNL     1      -4.599  13.209  22.570  0.00  0.00    +0.401 C 
ATOM      6  O   UNL     1      -5.550  13.348  23.343  0.00  0.00    -0.226 OA
ATOM      7  N   UNL     1      -3.333  13.068  22.963  0.00  0.00    -0.279 N 
ATOM      8  H   UNL     1      -2.623  12.950  22.253  0.00  0.00    +0.152 HD
BRANCH   5   9
ATOM      9  O   UNL     1      -4.847  13.189  21.161  0.00  0.00    -0.444 OA
BRANCH   9  10
ATOM     10  C   UNL     1      -4.128  12.106  20.565  0.00  0.00    +0.292 C 
BRANCH  10  12
ATOM     11  N   UNL     1      -5.811  12.186  18.746  0.00  0.00    -0.131 NA
ATOM     12  C   UNL     1      -4.946  11.461  19.520  0.00  0.00    +0.120 A 
ATOM     13  C   UNL     1      -4.981  10.144  19.122  0.00  0.00    +0.137 A 
ATOM     14  N   UNL     1      -5.812  10.147  18.038  0.00  0.00    -0.247 N 
ATOM     15  N   UNL     1      -6.346  11.369  17.849  0.00  0.00    -0.065 NA
BRANCH  14  16
ATOM     16  C   UNL     1      -6.101   9.098  17.068  0.00  0.00    +0.180 C 
BRANCH  16  17
ATOM     17  C   UNL     1      -4.867   8.430  16.511  0.00  0.00    -0.022 A 
ATOM     18  C   UNL     1      -3.986   9.150  15.684  0.00  0.00    +0.055 A 
ATOM     19  C   UNL     1      -2.816   8.534  15.294  0.00  0.00    +0.167 A 
ATOM     20  O   UNL     1      -1.832   9.104  14.544  0.00  0.00    -0.453 OA
ATOM     21  C   UNL     1      -0.837   8.060  14.572  0.00  0.00    +0.466 C 
ATOM     22  O   UNL     1      -1.298   6.845  15.201  0.00  0.00    -0.453 OA
ATOM     23  C   UNL     1      -2.511   7.248  15.665  0.00  0.00    +0.166 A 
ATOM     24  C   UNL     1      -3.366   6.498  16.446  0.00  0.00    +0.050 A 
ATOM     25  C   UNL     1      -4.551   7.101  16.878  0.00  0.00    +0.009 A 
ENDBRANCH  16  17
ENDBRANCH  14  16
ENDBRANCH  10  12
ENDBRANCH   9  10
ENDBRANCH   5   9
ENDBRANCH   4   7
ENDBRANCH   1   4
BRANCH   1  26
ATOM     26  C   UNL     1      -3.737  12.003  26.473  0.00  0.00    +0.175 C 
BRANCH  26  27
ATOM     27  C   UNL     1      -3.472  10.821  27.417  0.00  0.00    +0.176 C 
ATOM     28  O   UNL     1      -4.067   9.634  26.825  0.00  0.00    -0.332 OA
ATOM     29  C   UNL     1      -3.822   8.378  27.541  0.00  0.00    +0.277 C 
ATOM     30  C   UNL     1      -4.263   8.503  29.020  0.00  0.00    +0.110 C 
ATOM     31  C   UNL     1      -3.679   9.768  29.683  0.00  0.00    +0.143 C 
ATOM     32  C   UNL     1      -3.991  11.015  28.854  0.00  0.00    +0.133 C 
BRANCH  32  33
ATOM     33  N   UNL     1      -3.356  12.202  29.450  0.00  0.00    -0.308 N 
ATOM     34  H   UNL     1      -2.347  12.227  29.489  0.00  0.00    +0.149 HD
ATOM     35  C   UNL     1      -4.027  13.247  29.941  0.00  0.00    +0.210 C 
ATOM     36  C   UNL     1      -5.564  13.167  29.889  0.00  0.00    +0.109 C 
ATOM     37  O   UNL     1      -3.468  14.234  30.421  0.00  0.00    -0.276 OA
ENDBRANCH  32  33
BRANCH  29  38
ATOM     38  C   UNL     1      -2.329   7.995  27.478  0.00  0.00    +0.414 C 
ATOM     39  O   UNL     1      -1.824   7.320  28.374  0.00  0.00    -0.240 OA
ATOM     40  O   UNL     1      -1.630   8.361  26.532  0.00  0.00    -0.240 OA
ENDBRANCH  29  38
BRANCH  29  41
ATOM     41  O   UNL     1      -4.619   7.341  26.912  0.00  0.00    -0.343 OA
ATOM     42  C   UNL     1      -4.842   7.517  25.491  0.00  0.00    +0.198 C 
ENDBRANCH  29  41
BRANCH  31  43
ATOM     43  O   UNL     1      -4.230   9.924  30.992  0.00  0.00    -0.390 OA
ATOM     44  H   UNL     1      -3.799   9.314  31.595  0.00  0.00    +0.210 HD
ENDBRANCH  31  43
ENDBRANCH  26  27
BRANCH  26  45
ATOM     45  O   UNL     1      -5.149  12.291  26.422  0.00  0.00    -0.387 OA
ATOM     46  H   UNL     1      -5.594  11.617  25.904  0.00  0.00    +0.210 HD
ENDBRANCH  26  45
ENDBRANCH   1  26
TORSDOF 15
