REMARK VINA RESULT:    -5.086      2.147      2.852
REMARK INTER + INTRA:         -11.859
REMARK INTER:                  -9.287
REMARK INTRA:                  -2.572
REMARK UNBOUND:                -2.759
REMARK  Name = lig_assembled_38.pdb
REMARK  17 active torsions:
REMARK  status: ('A' for Active; 'I' for Inactive)
REMARK    1  A    between atoms: _2  and  _9
REMARK    2  A    between atoms: _4  and  _19
REMARK    3  A    between atoms: _6  and  _7
REMARK    4  A    between atoms: _6  and  _19
REMARK    5  A    between atoms: _9  and  _10
REMARK    6  A    between atoms: _15  and  _35
REMARK    7  A    between atoms: _17  and  _23
REMARK    8  A    between atoms: _18  and  _22
REMARK    9  A    between atoms: _22  and  _23
REMARK   10  A    between atoms: _25  and  _26
REMARK   11  A    between atoms: _27  and  _28
REMARK   12  A    between atoms: _29  and  _31
REMARK   13  A    between atoms: _31  and  _32
REMARK   14  A    between atoms: _31  and  _33
REMARK   15  A    between atoms: _33  and  _34
REMARK   16  A    between atoms: _33  and  _35
REMARK   17  A    between atoms: _36  and  _38
REMARK                            x       y       z     vdW  Elec       q    Type
REMARK                         _______ _______ _______ _____ _____    ______ ____
ROOT
ATOM      1  C   UNL     1      -3.280  11.814  25.114  0.00  0.00    +0.163 C 
ENDROOT
BRANCH   1   2
ATOM      2  O   UNL     1      -2.220  10.852  24.988  0.00  0.00    -0.388 OA
ATOM      3  H   UNL     1      -2.206  10.505  24.093  0.00  0.00    +0.210 HD
ENDBRANCH   1   2
BRANCH   1   4
ATOM      4  C   UNL     1      -2.897  13.109  24.406  0.00  0.00    +0.141 C 
BRANCH   4   7
ATOM      5  C   UNL     1      -4.946  14.019  23.366  0.00  0.00    +0.401 C 
ATOM      6  O   UNL     1      -5.420  14.422  24.431  0.00  0.00    -0.226 OA
ATOM      7  N   UNL     1      -3.775  13.389  23.263  0.00  0.00    -0.279 N 
ATOM      8  H   UNL     1      -3.475  13.088  22.346  0.00  0.00    +0.152 HD
BRANCH   5   9
ATOM      9  O   UNL     1      -5.681  14.224  22.157  0.00  0.00    -0.444 OA
BRANCH   9  10
ATOM     10  C   UNL     1      -6.552  13.113  21.933  0.00  0.00    +0.292 C 
BRANCH  10  12
ATOM     11  N   UNL     1      -4.873  11.496  21.094  0.00  0.00    -0.131 NA
ATOM     12  C   UNL     1      -6.007  12.235  20.878  0.00  0.00    +0.120 A 
ATOM     13  C   UNL     1      -6.484  11.970  19.614  0.00  0.00    +0.137 A 
ATOM     14  N   UNL     1      -5.630  11.020  19.132  0.00  0.00    -0.247 N 
ATOM     15  N   UNL     1      -4.656  10.750  20.020  0.00  0.00    -0.065 NA
BRANCH  14  16
ATOM     16  C   UNL     1      -5.812  10.176  17.964  0.00  0.00    +0.180 C 
BRANCH  16  17
ATOM     17  C   UNL     1      -4.891  10.524  16.821  0.00  0.00    -0.025 A 
ATOM     18  C   UNL     1      -4.757  11.851  16.382  0.00  0.00    +0.005 A 
ATOM     19  C   UNL     1      -3.834  12.180  15.384  0.00  0.00    +0.001 A 
ATOM     20  C   UNL     1      -3.037  11.189  14.812  0.00  0.00    +0.015 A 
ATOM     21  C   UNL     1      -3.172   9.871  15.236  0.00  0.00    +0.018 A 
ATOM     22 BR   UNL     1      -2.086   8.525  14.471  0.00  0.00    -0.050 Br
ATOM     23  C   UNL     1      -4.090   9.533  16.232  0.00  0.00    +0.020 A 
ENDBRANCH  16  17
ENDBRANCH  14  16
ENDBRANCH  10  12
ENDBRANCH   9  10
ENDBRANCH   5   9
ENDBRANCH   4   7
ENDBRANCH   1   4
BRANCH   1  24
ATOM     24  C   UNL     1      -3.585  12.108  26.593  0.00  0.00    +0.175 C 
BRANCH  24  25
ATOM     25  C   UNL     1      -3.337  10.884  27.488  0.00  0.00    +0.176 C 
ATOM     26  O   UNL     1      -3.964   9.734  26.857  0.00  0.00    -0.332 OA
ATOM     27  C   UNL     1      -3.740   8.446  27.521  0.00  0.00    +0.277 C 
ATOM     28  C   UNL     1      -4.164   8.523  29.008  0.00  0.00    +0.110 C 
ATOM     29  C   UNL     1      -3.546   9.749  29.713  0.00  0.00    +0.143 C 
ATOM     30  C   UNL     1      -3.838  11.034  28.936  0.00  0.00    +0.133 C 
BRANCH  30  31
ATOM     31  N   UNL     1      -3.172  12.182  29.571  0.00  0.00    -0.308 N 
ATOM     32  H   UNL     1      -2.162  12.194  29.583  0.00  0.00    +0.149 HD
ATOM     33  C   UNL     1      -3.815  13.210  30.131  0.00  0.00    +0.210 C 
ATOM     34  C   UNL     1      -5.354  13.150  30.119  0.00  0.00    +0.109 C 
ATOM     35  O   UNL     1      -3.231  14.166  30.642  0.00  0.00    -0.276 OA
ENDBRANCH  30  31
BRANCH  27  36
ATOM     36  C   UNL     1      -2.256   8.034  27.428  0.00  0.00    +0.414 C 
ATOM     37  O   UNL     1      -1.699   7.502  28.387  0.00  0.00    -0.240 OA
ATOM     38  O   UNL     1      -1.616   8.234  26.395  0.00  0.00    -0.240 OA
ENDBRANCH  27  36
BRANCH  27  39
ATOM     39  O   UNL     1      -4.565   7.452  26.861  0.00  0.00    -0.343 OA
ATOM     40  C   UNL     1      -5.202   7.899  25.638  0.00  0.00    +0.198 C 
ENDBRANCH  27  39
BRANCH  29  41
ATOM     41  O   UNL     1      -4.081   9.866  31.033  0.00  0.00    -0.390 OA
ATOM     42  H   UNL     1      -4.606  10.667  31.096  0.00  0.00    +0.210 HD
ENDBRANCH  29  41
ENDBRANCH  24  25
BRANCH  24  43
ATOM     43  O   UNL     1      -4.945  12.562  26.739  0.00  0.00    -0.387 OA
ATOM     44  H   UNL     1      -5.031  13.058  27.557  0.00  0.00    +0.210 HD
ENDBRANCH  24  43
ENDBRANCH   1  24
TORSDOF 15
