REMARK VINA RESULT:    -6.396      0.000      0.000
REMARK INTER + INTRA:         -13.261
REMARK INTER:                 -11.645
REMARK INTRA:                  -1.616
REMARK UNBOUND:                -2.191
REMARK  Name = lig_assembled_48.pdb
REMARK  16 active torsions:
REMARK  status: ('A' for Active; 'I' for Inactive)
REMARK    1  A    between atoms: _2  and  _9
REMARK    2  A    between atoms: _4  and  _18
REMARK    3  A    between atoms: _6  and  _7
REMARK    4  A    between atoms: _6  and  _18
REMARK    5  A    between atoms: _14  and  _34
REMARK    6  A    between atoms: _16  and  _22
REMARK    7  A    between atoms: _17  and  _21
REMARK    8  A    between atoms: _21  and  _22
REMARK    9  A    between atoms: _24  and  _25
REMARK   10  A    between atoms: _26  and  _27
REMARK   11  A    between atoms: _28  and  _30
REMARK   12  A    between atoms: _30  and  _31
REMARK   13  A    between atoms: _30  and  _32
REMARK   14  A    between atoms: _32  and  _33
REMARK   15  A    between atoms: _32  and  _34
REMARK   16  A    between atoms: _35  and  _37
REMARK                            x       y       z     vdW  Elec       q    Type
REMARK                         _______ _______ _______ _____ _____    ______ ____
ROOT
ATOM      1  C   UNL     1       3.525   3.661  32.474  0.00  0.00    +0.163 C 
ENDROOT
BRANCH   1   2
ATOM      2  O   UNL     1       2.634   3.895  33.577  0.00  0.00    -0.388 OA
ATOM      3  H   UNL     1       1.766   3.541  33.368  0.00  0.00    +0.210 HD
ENDBRANCH   1   2
BRANCH   1   4
ATOM      4  C   UNL     1       2.862   2.742  31.453  0.00  0.00    +0.141 C 
BRANCH   4   7
ATOM      5  C   UNL     1       2.050   2.844  29.122  0.00  0.00    +0.401 C 
ATOM      6  O   UNL     1       1.614   1.691  29.124  0.00  0.00    -0.226 OA
ATOM      7  N   UNL     1       2.653   3.415  30.165  0.00  0.00    -0.279 N 
ATOM      8  H   UNL     1       2.985   4.364  30.064  0.00  0.00    +0.152 HD
BRANCH   5   9
ATOM      9  O   UNL     1       1.914   3.636  27.939  0.00  0.00    -0.444 OA
BRANCH   9  10
ATOM     10  C   UNL     1       0.574   3.539  27.449  0.00  0.00    +0.292 C 
BRANCH  10  12
ATOM     11  N   UNL     1      -0.391   5.155  25.848  0.00  0.00    -0.131 NA
ATOM     12  C   UNL     1       0.482   4.135  26.104  0.00  0.00    +0.120 A 
ATOM     13  C   UNL     1       1.188   3.848  24.957  0.00  0.00    +0.137 A 
ATOM     14  N   UNL     1       0.770   4.788  24.062  0.00  0.00    -0.248 N 
ATOM     15  N   UNL     1      -0.235   5.523  24.586  0.00  0.00    -0.065 NA
BRANCH  14  16
ATOM     16  C   UNL     1       1.266   5.124  22.733  0.00  0.00    +0.109 C 
ATOM     17  C   UNL     1       1.955   3.911  22.077  0.00  0.00    +0.027 C 
ATOM     18  C   UNL     1       0.940   2.851  21.656  0.00  0.00    +0.002 C 
ATOM     19  C   UNL     1      -0.059   3.423  20.658  0.00  0.00    +0.000 C 
ATOM     20  C   UNL     1      -0.749   4.681  21.178  0.00  0.00    +0.002 C 
ATOM     21  C   UNL     1       0.227   5.712  21.758  0.00  0.00    +0.027 C 
ENDBRANCH  14  16
ENDBRANCH  10  12
ENDBRANCH   9  10
ENDBRANCH   5   9
ENDBRANCH   4   7
ENDBRANCH   1   4
BRANCH   1  22
ATOM     22  C   UNL     1       4.842   3.028  32.956  0.00  0.00    +0.175 C 
BRANCH  22  23
ATOM     23  C   UNL     1       5.395   3.726  34.207  0.00  0.00    +0.176 C 
ATOM     24  O   UNL     1       5.381   5.159  33.962  0.00  0.00    -0.332 OA
ATOM     25  C   UNL     1       5.779   6.000  35.096  0.00  0.00    +0.277 C 
ATOM     26  C   UNL     1       7.170   5.573  35.624  0.00  0.00    +0.110 C 
ATOM     27  C   UNL     1       7.244   4.051  35.868  0.00  0.00    +0.143 C 
ATOM     28  C   UNL     1       6.806   3.274  34.627  0.00  0.00    +0.133 C 
BRANCH  28  29
ATOM     29  N   UNL     1       6.797   1.828  34.900  0.00  0.00    -0.308 N 
ATOM     30  H   UNL     1       6.126   1.478  35.569  0.00  0.00    +0.149 HD
ATOM     31  C   UNL     1       7.619   0.948  34.323  0.00  0.00    +0.210 C 
ATOM     32  C   UNL     1       8.649   1.515  33.327  0.00  0.00    +0.109 C 
ATOM     33  O   UNL     1       7.579  -0.260  34.560  0.00  0.00    -0.276 OA
ENDBRANCH  28  29
BRANCH  25  34
ATOM     34  C   UNL     1       4.744   5.906  36.236  0.00  0.00    +0.414 C 
ATOM     35  O   UNL     1       5.056   6.219  37.384  0.00  0.00    -0.240 OA
ATOM     36  O   UNL     1       3.597   5.518  36.008  0.00  0.00    -0.240 OA
ENDBRANCH  25  34
BRANCH  27  37
ATOM     37  O   UNL     1       8.581   3.682  36.207  0.00  0.00    -0.390 OA
ATOM     38  H   UNL     1       8.989   3.235  35.462  0.00  0.00    +0.210 HD
ENDBRANCH  27  37
BRANCH  25  39
ATOM     39  O   UNL     1       5.868   7.371  34.629  0.00  0.00    -0.343 OA
ATOM     40  C   UNL     1       7.216   7.887  34.500  0.00  0.00    +0.198 C 
ENDBRANCH  25  39
ENDBRANCH  22  23
BRANCH  22  41
ATOM     41  O   UNL     1       5.822   3.055  31.898  0.00  0.00    -0.387 OA
ATOM     42  H   UNL     1       5.718   3.860  31.386  0.00  0.00    +0.210 HD
ENDBRANCH  22  41
ENDBRANCH   1  22
TORSDOF 14
