REMARK VINA RESULT:    -6.745      0.000      0.000
REMARK INTER + INTRA:         -13.310
REMARK INTER:                 -11.246
REMARK INTRA:                  -2.064
REMARK UNBOUND:                -1.636
REMARK  Name = lig_assembled_52.pdb
REMARK  16 active torsions:
REMARK  status: ('A' for Active; 'I' for Inactive)
REMARK    1  A    between atoms: _2  and  _10
REMARK    2  A    between atoms: _5  and  _18
REMARK    3  A    between atoms: _7  and  _8
REMARK    4  A    between atoms: _7  and  _18
REMARK    5  A    between atoms: _14  and  _34
REMARK    6  A    between atoms: _16  and  _22
REMARK    7  A    between atoms: _17  and  _21
REMARK    8  A    between atoms: _21  and  _22
REMARK    9  A    between atoms: _24  and  _25
REMARK   10  A    between atoms: _26  and  _27
REMARK   11  A    between atoms: _28  and  _30
REMARK   12  A    between atoms: _30  and  _31
REMARK   13  A    between atoms: _30  and  _32
REMARK   14  A    between atoms: _32  and  _33
REMARK   15  A    between atoms: _32  and  _34
REMARK   16  A    between atoms: _35  and  _37
REMARK                            x       y       z     vdW  Elec       q    Type
REMARK                         _______ _______ _______ _____ _____    ______ ____
ROOT
ATOM      1  C   UNL     1       7.936   2.414  34.125  0.00  0.00    +0.163 C 
ENDROOT
BRANCH   1   2
ATOM      2  O   UNL     1       8.555   2.706  35.389  0.00  0.00    -0.388 OA
ATOM      3  H   UNL     1       7.905   3.092  35.982  0.00  0.00    +0.210 HD
ENDBRANCH   1   2
BRANCH   1   4
ATOM      4  C   UNL     1       8.724   1.330  33.397  0.00  0.00    +0.141 C 
BRANCH   4   7
ATOM      5  C   UNL     1       7.720  -0.922  33.235  0.00  0.00    +0.401 C 
ATOM      6  O   UNL     1       8.344  -1.373  34.199  0.00  0.00    -0.226 OA
ATOM      7  N   UNL     1       7.841   0.328  32.787  0.00  0.00    -0.279 N 
ATOM      8  H   UNL     1       7.293   0.602  31.983  0.00  0.00    +0.152 HD
BRANCH   5   9
ATOM      9  O   UNL     1       6.809  -1.776  32.537  0.00  0.00    -0.444 OA
BRANCH   9  10
ATOM     10  C   UNL     1       5.734  -0.996  32.008  0.00  0.00    +0.292 C 
BRANCH  10  12
ATOM     11  N   UNL     1       4.517  -0.795  29.864  0.00  0.00    -0.131 NA
ATOM     12  C   UNL     1       5.628  -1.191  30.550  0.00  0.00    +0.121 A 
ATOM     13  C   UNL     1       6.526  -1.744  29.666  0.00  0.00    +0.143 A 
ATOM     14  N   UNL     1       5.921  -1.646  28.434  0.00  0.00    -0.218 N 
ATOM     15  N   UNL     1       4.700  -1.077  28.581  0.00  0.00    -0.060 NA
BRANCH  14  16
ATOM     16  C   UNL     1       6.421  -2.030  27.172  0.00  0.00    +0.085 A 
ATOM     17  C   UNL     1       5.618  -2.036  26.029  0.00  0.00    +0.031 A 
ATOM     18  C   UNL     1       6.165  -2.446  24.814  0.00  0.00    +0.022 A 
ATOM     19  C   UNL     1       7.495  -2.833  24.786  0.00  0.00    +0.111 A 
ATOM     20  N   UNL     1       8.298  -2.830  25.871  0.00  0.00    -0.261 NA
ATOM     21  C   UNL     1       7.746  -2.429  27.043  0.00  0.00    +0.138 A 
ENDBRANCH  14  16
ENDBRANCH  10  12
ENDBRANCH   9  10
ENDBRANCH   5   9
ENDBRANCH   4   7
ENDBRANCH   1   4
BRANCH   1  22
ATOM     22  C   UNL     1       7.863   3.674  33.245  0.00  0.00    +0.175 C 
BRANCH  22  23
ATOM     23  C   UNL     1       6.996   4.772  33.879  0.00  0.00    +0.176 C 
ATOM     24  O   UNL     1       7.746   5.353  34.981  0.00  0.00    -0.332 OA
ATOM     25  C   UNL     1       7.114   6.498  35.644  0.00  0.00    +0.277 C 
ATOM     26  C   UNL     1       5.687   6.128  36.119  0.00  0.00    +0.110 C 
ATOM     27  C   UNL     1       4.862   5.477  34.989  0.00  0.00    +0.143 C 
ATOM     28  C   UNL     1       5.614   4.300  34.368  0.00  0.00    +0.133 C 
BRANCH  28  29
ATOM     29  N   UNL     1       4.856   3.743  33.236  0.00  0.00    -0.308 N 
ATOM     30  H   UNL     1       4.770   4.308  32.403  0.00  0.00    +0.149 HD
ATOM     31  C   UNL     1       4.274   2.541  33.239  0.00  0.00    +0.210 C 
ATOM     32  C   UNL     1       4.401   1.716  34.533  0.00  0.00    +0.109 C 
ATOM     33  O   UNL     1       3.658   2.094  32.271  0.00  0.00    -0.276 OA
ENDBRANCH  28  29
BRANCH  25  34
ATOM     34  C   UNL     1       7.042   7.710  34.692  0.00  0.00    +0.414 C 
ATOM     35  O   UNL     1       5.953   8.180  34.368  0.00  0.00    -0.240 OA
ATOM     36  O   UNL     1       8.073   8.217  34.249  0.00  0.00    -0.240 OA
ENDBRANCH  25  34
BRANCH  27  37
ATOM     37  O   UNL     1       3.613   5.017  35.508  0.00  0.00    -0.390 OA
ATOM     38  H   UNL     1       3.153   4.510  34.835  0.00  0.00    +0.210 HD
ENDBRANCH  27  37
BRANCH  25  39
ATOM     39  O   UNL     1       7.909   6.838  36.809  0.00  0.00    -0.343 OA
ATOM     40  C   UNL     1       7.173   6.901  38.056  0.00  0.00    +0.198 C 
ENDBRANCH  25  39
ENDBRANCH  22  23
BRANCH  22  41
ATOM     41  O   UNL     1       7.360   3.338  31.937  0.00  0.00    -0.387 OA
ATOM     42  H   UNL     1       6.967   4.116  31.535  0.00  0.00    +0.210 HD
ENDBRANCH  22  41
ENDBRANCH   1  22
TORSDOF 14
