REMARK VINA RESULT:    -7.091      0.000      0.000
REMARK INTER + INTRA:         -14.126
REMARK INTER:                 -12.142
REMARK INTRA:                  -1.984
REMARK UNBOUND:                -1.853
REMARK  Name = lig_assembled_86.pdb
REMARK  17 active torsions:
REMARK  status: ('A' for Active; 'I' for Inactive)
REMARK    1  A    between atoms: _2  and  _10
REMARK    2  A    between atoms: _3  and  _13
REMARK    3  A    between atoms: _5  and  _21
REMARK    4  A    between atoms: _7  and  _8
REMARK    5  A    between atoms: _7  and  _21
REMARK    6  A    between atoms: _17  and  _37
REMARK    7  A    between atoms: _19  and  _25
REMARK    8  A    between atoms: _20  and  _24
REMARK    9  A    between atoms: _24  and  _25
REMARK   10  A    between atoms: _27  and  _28
REMARK   11  A    between atoms: _29  and  _30
REMARK   12  A    between atoms: _31  and  _33
REMARK   13  A    between atoms: _33  and  _34
REMARK   14  A    between atoms: _33  and  _35
REMARK   15  A    between atoms: _35  and  _36
REMARK   16  A    between atoms: _35  and  _37
REMARK   17  A    between atoms: _38  and  _40
REMARK                            x       y       z     vdW  Elec       q    Type
REMARK                         _______ _______ _______ _____ _____    ______ ____
ROOT
ATOM      1  C   UNL     1       3.452   3.668  32.404  0.00  0.00    +0.163 C 
ENDROOT
BRANCH   1   2
ATOM      2  O   UNL     1       2.617   3.990  33.529  0.00  0.00    -0.388 OA
ATOM      3  H   UNL     1       3.021   3.656  34.334  0.00  0.00    +0.210 HD
ENDBRANCH   1   2
BRANCH   1   4
ATOM      4  C   UNL     1       2.718   2.716  31.465  0.00  0.00    +0.141 C 
BRANCH   4   7
ATOM      5  C   UNL     1       1.844   3.318  29.234  0.00  0.00    +0.401 C 
ATOM      6  O   UNL     1       0.662   3.193  29.559  0.00  0.00    -0.226 OA
ATOM      7  N   UNL     1       2.871   3.109  30.059  0.00  0.00    -0.279 N 
ATOM      8  H   UNL     1       3.807   3.228  29.696  0.00  0.00    +0.152 HD
BRANCH   5   9
ATOM      9  O   UNL     1       2.159   3.706  27.894  0.00  0.00    -0.444 OA
BRANCH   9  10
ATOM     10  C   UNL     1       1.516   2.817  26.976  0.00  0.00    +0.292 C 
BRANCH  10  12
ATOM     11  N   UNL     1       0.690   4.876  25.867  0.00  0.00    -0.131 NA
ATOM     12  C   UNL     1       1.056   3.558  25.786  0.00  0.00    +0.120 A 
ATOM     13  C   UNL     1       0.926   3.139  24.483  0.00  0.00    +0.137 A 
ATOM     14  N   UNL     1       0.514   4.251  23.816  0.00  0.00    -0.248 N 
ATOM     15  N   UNL     1       0.341   5.287  24.655  0.00  0.00    -0.065 NA
BRANCH  14  16
ATOM     16  C   UNL     1       0.277   4.387  22.387  0.00  0.00    +0.112 C 
ATOM     17  C   UNL     1       1.594   4.546  21.600  0.00  0.00    +0.045 C 
ATOM     18  C   UNL     1       1.698   3.673  20.346  0.00  0.00    +0.059 C 
ATOM     19  C   UNL     1       2.005   2.216  20.710  0.00  0.00    +0.020 C 
ATOM     20  C   UNL     1       0.637   1.542  20.783  0.00  0.00    +0.020 C 
ATOM     21  C   UNL     1      -0.362   2.674  20.537  0.00  0.00    +0.059 C 
ATOM     22  N   UNL     1       0.421   3.532  19.647  0.00  0.00    -0.299 NA
ATOM     23  C   UNL     1      -0.220   4.754  19.200  0.00  0.00    +0.105 C 
ATOM     24  C   UNL     1      -0.753   3.368  21.849  0.00  0.00    +0.045 C 
ENDBRANCH  14  16
ENDBRANCH  10  12
ENDBRANCH   9  10
ENDBRANCH   5   9
ENDBRANCH   4   7
ENDBRANCH   1   4
BRANCH   1  25
ATOM     25  C   UNL     1       4.770   3.021  32.865  0.00  0.00    +0.175 C 
BRANCH  25  26
ATOM     26  C   UNL     1       5.334   3.693  34.125  0.00  0.00    +0.176 C 
ATOM     27  O   UNL     1       5.334   5.130  33.904  0.00  0.00    -0.332 OA
ATOM     28  C   UNL     1       5.744   5.948  35.050  0.00  0.00    +0.277 C 
ATOM     29  C   UNL     1       7.132   5.498  35.566  0.00  0.00    +0.110 C 
ATOM     30  C   UNL     1       7.191   3.972  35.786  0.00  0.00    +0.143 C 
ATOM     31  C   UNL     1       6.741   3.219  34.533  0.00  0.00    +0.133 C 
BRANCH  31  32
ATOM     32  N   UNL     1       6.718   1.770  34.784  0.00  0.00    -0.308 N 
ATOM     33  H   UNL     1       6.050   1.417  35.455  0.00  0.00    +0.149 HD
ATOM     34  C   UNL     1       7.523   0.889  34.182  0.00  0.00    +0.210 C 
ATOM     35  C   UNL     1       8.548   1.461  33.185  0.00  0.00    +0.109 C 
ATOM     36  O   UNL     1       7.471  -0.322  34.401  0.00  0.00    -0.276 OA
ENDBRANCH  31  32
BRANCH  28  37
ATOM     37  C   UNL     1       4.711   5.847  36.192  0.00  0.00    +0.414 C 
ATOM     38  O   UNL     1       3.560   5.481  35.957  0.00  0.00    -0.240 OA
ATOM     39  O   UNL     1       5.029   6.131  37.347  0.00  0.00    -0.240 OA
ENDBRANCH  28  37
BRANCH  30  40
ATOM     40  O   UNL     1       8.525   3.583  36.115  0.00  0.00    -0.390 OA
ATOM     41  H   UNL     1       9.104   3.760  35.369  0.00  0.00    +0.210 HD
ENDBRANCH  30  40
BRANCH  28  42
ATOM     42  O   UNL     1       5.846   7.325  34.605  0.00  0.00    -0.343 OA
ATOM     43  C   UNL     1       7.199   7.803  34.396  0.00  0.00    +0.198 C 
ENDBRANCH  28  42
ENDBRANCH  25  26
BRANCH  25  44
ATOM     44  O   UNL     1       5.742   3.065  31.802  0.00  0.00    -0.387 OA
ATOM     45  H   UNL     1       6.158   2.204  31.712  0.00  0.00    +0.210 HD
ENDBRANCH  25  44
ENDBRANCH   1  25
TORSDOF 14
