REMARK VINA RESULT:    -6.959      0.000      0.000
REMARK INTER + INTRA:         -17.537
REMARK INTER:                 -14.322
REMARK INTRA:                  -3.215
REMARK UNBOUND:                -3.256
REMARK  Name = lig_assembled_47.pdb
REMARK  22 active torsions:
REMARK  status: ('A' for Active; 'I' for Inactive)
REMARK    1  A    between atoms: _2  and  _9
REMARK    2  A    between atoms: _4  and  _30
REMARK    3  A    between atoms: _6  and  _7
REMARK    4  A    between atoms: _6  and  _30
REMARK    5  A    between atoms: _9  and  _10
REMARK    6  A    between atoms: _10  and  _11
REMARK    7  A    between atoms: _10  and  _12
REMARK    8  A    between atoms: _11  and  _24
REMARK    9  A    between atoms: _12  and  _13
REMARK   10  A    between atoms: _12  and  _19
REMARK   11  A    between atoms: _26  and  _46
REMARK   12  A    between atoms: _28  and  _34
REMARK   13  A    between atoms: _29  and  _33
REMARK   14  A    between atoms: _33  and  _34
REMARK   15  A    between atoms: _36  and  _37
REMARK   16  A    between atoms: _38  and  _39
REMARK   17  A    between atoms: _40  and  _42
REMARK   18  A    between atoms: _42  and  _43
REMARK   19  A    between atoms: _42  and  _44
REMARK   20  A    between atoms: _44  and  _45
REMARK   21  A    between atoms: _44  and  _46
REMARK   22  A    between atoms: _47  and  _49
REMARK                            x       y       z     vdW  Elec       q    Type
REMARK                         _______ _______ _______ _____ _____    ______ ____
ROOT
ATOM      1  C   UNL     1       0.676  21.681  14.838  0.00  0.00    +0.401 C 
ATOM      2  O   UNL     1       0.891  22.858  14.539  0.00  0.00    -0.226 OA
ATOM      3  N   UNL     1       1.177  20.639  14.173  0.00  0.00    -0.279 N 
ATOM      4  H   UNL     1       0.951  19.711  14.502  0.00  0.00    +0.152 HD
ENDROOT
BRANCH   3   5
ATOM      5  C   UNL     1       2.038  20.765  12.991  0.00  0.00    +0.141 C 
BRANCH   5   6
ATOM      6  C   UNL     1       3.217  19.798  13.041  0.00  0.00    +0.163 C 
BRANCH   6   7
ATOM      7  O   UNL     1       3.480  19.277  11.728  0.00  0.00    -0.388 OA
ATOM      8  H   UNL     1       2.668  19.275  11.215  0.00  0.00    +0.210 HD
ENDBRANCH   6   7
BRANCH   6   9
ATOM      9  C   UNL     1       4.452  20.521  13.603  0.00  0.00    +0.175 C 
BRANCH   9  10
ATOM     10  C   UNL     1       4.763  21.815  12.836  0.00  0.00    +0.176 C 
ATOM     11  O   UNL     1       5.836  21.530  11.896  0.00  0.00    -0.332 OA
ATOM     12  C   UNL     1       6.198  22.629  10.996  0.00  0.00    +0.277 C 
ATOM     13  C   UNL     1       6.538  23.904  11.808  0.00  0.00    +0.110 C 
ATOM     14  C   UNL     1       5.441  24.229  12.843  0.00  0.00    +0.143 C 
ATOM     15  C   UNL     1       5.141  23.016  13.724  0.00  0.00    +0.133 C 
BRANCH  15  16
ATOM     16  N   UNL     1       4.034  23.311  14.648  0.00  0.00    -0.308 N 
ATOM     17  H   UNL     1       3.109  23.419  14.257  0.00  0.00    +0.149 HD
ATOM     18  C   UNL     1       4.173  23.444  15.970  0.00  0.00    +0.210 C 
ATOM     19  C   UNL     1       5.600  23.299  16.532  0.00  0.00    +0.109 C 
ATOM     20  O   UNL     1       3.225  23.677  16.721  0.00  0.00    -0.276 OA
ENDBRANCH  15  16
BRANCH  12  21
ATOM     21  C   UNL     1       5.048  22.935  10.015  0.00  0.00    +0.414 C 
ATOM     22  O   UNL     1       4.221  22.066   9.739  0.00  0.00    -0.240 OA
ATOM     23  O   UNL     1       4.946  24.048   9.499  0.00  0.00    -0.240 OA
ENDBRANCH  12  21
BRANCH  12  24
ATOM     24  O   UNL     1       7.380  22.231  10.254  0.00  0.00    -0.343 OA
ATOM     25  C   UNL     1       8.459  23.199  10.257  0.00  0.00    +0.198 C 
ENDBRANCH  12  24
BRANCH  14  26
ATOM     26  O   UNL     1       5.863  25.316  13.667  0.00  0.00    -0.390 OA
ATOM     27  H   UNL     1       6.822  25.336  13.705  0.00  0.00    +0.210 HD
ENDBRANCH  14  26
ENDBRANCH   9  10
BRANCH   9  28
ATOM     28  O   UNL     1       5.595  19.643  13.581  0.00  0.00    -0.387 OA
ATOM     29  H   UNL     1       6.346  20.085  13.983  0.00  0.00    +0.210 HD
ENDBRANCH   9  28
ENDBRANCH   6   9
ENDBRANCH   5   6
ENDBRANCH   3   5
BRANCH   1  30
ATOM     30  O   UNL     1      -0.155  21.392  15.965  0.00  0.00    -0.444 OA
BRANCH  30  31
ATOM     31  C   UNL     1      -0.103  22.483  16.889  0.00  0.00    +0.292 C 
BRANCH  31  33
ATOM     32  N   UNL     1       0.967  22.468  19.129  0.00  0.00    -0.131 NA
ATOM     33  C   UNL     1       0.001  21.996  18.279  0.00  0.00    +0.120 A 
ATOM     34  C   UNL     1      -0.748  21.047  18.939  0.00  0.00    +0.137 A 
ATOM     35  N   UNL     1      -0.159  20.952  20.166  0.00  0.00    -0.251 N 
ATOM     36  N   UNL     1       0.858  21.822  20.284  0.00  0.00    -0.065 NA
BRANCH  35  37
ATOM     37  C   UNL     1      -0.406  19.965  21.207  0.00  0.00    +0.160 C 
BRANCH  37  38
ATOM     38  C   UNL     1      -1.419  18.886  20.812  0.00  0.00    +0.131 C 
BRANCH  38  39
ATOM     39  C   UNL     1      -0.693  17.548  20.832  0.00  0.00    +0.311 C 
ATOM     40  O   UNL     1      -0.968  16.655  21.620  0.00  0.00    -0.251 OA
BRANCH  39  41
ATOM     41  O   UNL     1       0.214  17.333  19.856  0.00  0.00    -0.480 OA
ATOM     42  H   UNL     1       0.664  18.097  19.459  0.00  0.00    +0.295 HD
ENDBRANCH  39  41
ENDBRANCH  38  39
BRANCH  38  43
ATOM     43  C   UNL     1      -2.715  18.859  21.683  0.00  0.00    +0.064 C 
BRANCH  43  44
ATOM     44  C   UNL     1      -2.850  19.986  22.708  0.00  0.00    -0.039 A 
ATOM     45  C   UNL     1      -2.823  19.686  24.084  0.00  0.00    +0.004 A 
ATOM     46  C   UNL     1      -2.944  20.693  25.048  0.00  0.00    +0.000 A 
ATOM     47  C   UNL     1      -3.112  22.017  24.656  0.00  0.00    +0.000 A 
ATOM     48  C   UNL     1      -3.161  22.332  23.301  0.00  0.00    +0.000 A 
ATOM     49  C   UNL     1      -3.022  21.328  22.336  0.00  0.00    +0.004 A 
ENDBRANCH  43  44
BRANCH  43  50
ATOM     50  C   UNL     1      -3.952  18.713  20.787  0.00  0.00    -0.039 A 
ATOM     51  C   UNL     1      -4.017  19.377  19.551  0.00  0.00    +0.004 A 
ATOM     52  C   UNL     1      -5.205  19.388  18.813  0.00  0.00    +0.000 A 
ATOM     53  C   UNL     1      -6.331  18.717  19.283  0.00  0.00    +0.000 A 
ATOM     54  C   UNL     1      -6.272  18.024  20.486  0.00  0.00    +0.000 A 
ATOM     55  C   UNL     1      -5.093  18.023  21.231  0.00  0.00    +0.004 A 
ENDBRANCH  43  50
ENDBRANCH  38  43
ENDBRANCH  37  38
ENDBRANCH  35  37
ENDBRANCH  31  33
ENDBRANCH  30  31
ENDBRANCH   1  30
TORSDOF 20
