REMARK VINA RESULT:    -7.065      0.000      0.000
REMARK INTER + INTRA:         -14.199
REMARK INTER:                 -12.070
REMARK INTRA:                  -2.129
REMARK UNBOUND:                -1.557
REMARK  Name = lig_assembled_28.pdb
REMARK  17 active torsions:
REMARK  status: ('A' for Active; 'I' for Inactive)
REMARK    1  A    between atoms: _2  and  _9
REMARK    2  A    between atoms: _4  and  _22
REMARK    3  A    between atoms: _6  and  _7
REMARK    4  A    between atoms: _6  and  _22
REMARK    5  A    between atoms: _9  and  _10
REMARK    6  A    between atoms: _18  and  _38
REMARK    7  A    between atoms: _20  and  _26
REMARK    8  A    between atoms: _21  and  _25
REMARK    9  A    between atoms: _25  and  _26
REMARK   10  A    between atoms: _28  and  _29
REMARK   11  A    between atoms: _30  and  _31
REMARK   12  A    between atoms: _32  and  _34
REMARK   13  A    between atoms: _34  and  _35
REMARK   14  A    between atoms: _34  and  _36
REMARK   15  A    between atoms: _36  and  _37
REMARK   16  A    between atoms: _36  and  _38
REMARK   17  A    between atoms: _39  and  _41
REMARK                            x       y       z     vdW  Elec       q    Type
REMARK                         _______ _______ _______ _____ _____    ______ ____
ROOT
ATOM      1  C   UNL     1       3.439   1.797  32.030  0.00  0.00    +0.163 C 
ENDROOT
BRANCH   1   2
ATOM      2  O   UNL     1       4.366   0.857  31.463  0.00  0.00    -0.388 OA
ATOM      3  H   UNL     1       5.048   0.652  32.107  0.00  0.00    +0.210 HD
ENDBRANCH   1   2
BRANCH   1   4
ATOM      4  C   UNL     1       2.179   1.870  31.173  0.00  0.00    +0.141 C 
BRANCH   4   7
ATOM      5  C   UNL     1       1.830   3.376  29.245  0.00  0.00    +0.401 C 
ATOM      6  O   UNL     1       0.925   4.014  29.788  0.00  0.00    -0.226 OA
ATOM      7  N   UNL     1       2.467   2.353  29.817  0.00  0.00    -0.279 N 
ATOM      8  H   UNL     1       3.189   1.885  29.287  0.00  0.00    +0.152 HD
BRANCH   5   9
ATOM      9  O   UNL     1       2.233   3.732  27.920  0.00  0.00    -0.444 OA
BRANCH   9  10
ATOM     10  C   UNL     1       1.438   3.017  26.970  0.00  0.00    +0.292 C 
BRANCH  10  12
ATOM     11  N   UNL     1       0.292   4.858  25.768  0.00  0.00    -0.131 NA
ATOM     12  C   UNL     1       1.209   3.842  25.768  0.00  0.00    +0.120 A 
ATOM     13  C   UNL     1       1.827   3.793  24.540  0.00  0.00    +0.137 A 
ATOM     14  N   UNL     1       1.315   4.866  23.866  0.00  0.00    -0.247 N 
ATOM     15  N   UNL     1       0.356   5.471  24.593  0.00  0.00    -0.065 NA
BRANCH  14  16
ATOM     16  C   UNL     1       1.710   5.458  22.595  0.00  0.00    +0.180 C 
BRANCH  16  17
ATOM     17  C   UNL     1       1.128   4.756  21.391  0.00  0.00    -0.022 A 
ATOM     18  C   UNL     1      -0.214   4.971  21.028  0.00  0.00    +0.055 A 
ATOM     19  C   UNL     1      -0.666   4.400  19.858  0.00  0.00    +0.167 A 
ATOM     20  O   UNL     1      -1.914   4.551  19.334  0.00  0.00    -0.453 OA
ATOM     21  C   UNL     1      -1.762   3.855  18.079  0.00  0.00    +0.466 C 
ATOM     22  O   UNL     1      -0.492   3.182  17.947  0.00  0.00    -0.453 OA
ATOM     23  C   UNL     1       0.141   3.619  19.070  0.00  0.00    +0.166 A 
ATOM     24  C   UNL     1       1.451   3.357  19.410  0.00  0.00    +0.050 A 
ATOM     25  C   UNL     1       1.949   3.939  20.579  0.00  0.00    +0.009 A 
ENDBRANCH  16  17
ENDBRANCH  14  16
ENDBRANCH  10  12
ENDBRANCH   9  10
ENDBRANCH   5   9
ENDBRANCH   4   7
ENDBRANCH   1   4
BRANCH   1  26
ATOM     26  C   UNL     1       4.070   3.196  32.135  0.00  0.00    +0.175 C 
BRANCH  26  27
ATOM     27  C   UNL     1       4.922   3.352  33.403  0.00  0.00    +0.176 C 
ATOM     28  O   UNL     1       6.113   2.532  33.245  0.00  0.00    -0.332 OA
ATOM     29  C   UNL     1       7.102   2.637  34.322  0.00  0.00    +0.277 C 
ATOM     30  C   UNL     1       6.444   2.346  35.692  0.00  0.00    +0.110 C 
ATOM     31  C   UNL     1       5.156   3.172  35.893  0.00  0.00    +0.143 C 
ATOM     32  C   UNL     1       4.199   2.991  34.714  0.00  0.00    +0.133 C 
BRANCH  32  33
ATOM     33  N   UNL     1       3.015   3.849  34.874  0.00  0.00    -0.308 N 
ATOM     34  H   UNL     1       3.146   4.849  34.815  0.00  0.00    +0.149 HD
ATOM     35  C   UNL     1       1.779   3.394  35.094  0.00  0.00    +0.210 C 
ATOM     36  C   UNL     1       1.617   1.866  35.205  0.00  0.00    +0.109 C 
ATOM     37  O   UNL     1       0.803   4.136  35.210  0.00  0.00    -0.276 OA
ENDBRANCH  32  33
BRANCH  29  38
ATOM     38  C   UNL     1       7.739   4.042  34.344  0.00  0.00    +0.414 C 
ATOM     39  O   UNL     1       8.162   4.515  35.398  0.00  0.00    -0.240 OA
ATOM     40  O   UNL     1       7.830   4.703  33.308  0.00  0.00    -0.240 OA
ENDBRANCH  29  38
BRANCH  29  41
ATOM     41  O   UNL     1       8.129   1.639  34.086  0.00  0.00    -0.343 OA
ATOM     42  C   UNL     1       7.850   0.717  33.003  0.00  0.00    +0.198 C 
ENDBRANCH  29  41
BRANCH  31  43
ATOM     43  O   UNL     1       4.503   2.763  37.095  0.00  0.00    -0.390 OA
ATOM     44  H   UNL     1       5.059   2.974  37.849  0.00  0.00    +0.210 HD
ENDBRANCH  31  43
ENDBRANCH  26  27
BRANCH  26  45
ATOM     45  O   UNL     1       3.044   4.208  32.099  0.00  0.00    -0.387 OA
ATOM     46  H   UNL     1       2.434   4.021  31.381  0.00  0.00    +0.210 HD
ENDBRANCH  26  45
ENDBRANCH   1  26
TORSDOF 15
