REMARK VINA RESULT:    -6.717      0.000      0.000
REMARK INTER + INTRA:         -15.446
REMARK INTER:                 -13.161
REMARK INTRA:                  -2.285
REMARK UNBOUND:                -2.643
REMARK  Name = lig_assembled_21.pdb
REMARK  20 active torsions:
REMARK  status: ('A' for Active; 'I' for Inactive)
REMARK    1  A    between atoms: _2  and  _9
REMARK    2  A    between atoms: _4  and  _23
REMARK    3  A    between atoms: _6  and  _7
REMARK    4  A    between atoms: _6  and  _23
REMARK    5  A    between atoms: _9  and  _10
REMARK    6  A    between atoms: _11  and  _18
REMARK    7  A    between atoms: _12  and  _13
REMARK    8  A    between atoms: _12  and  _18
REMARK    9  A    between atoms: _19  and  _39
REMARK   10  A    between atoms: _21  and  _27
REMARK   11  A    between atoms: _22  and  _26
REMARK   12  A    between atoms: _26  and  _27
REMARK   13  A    between atoms: _29  and  _30
REMARK   14  A    between atoms: _31  and  _32
REMARK   15  A    between atoms: _33  and  _35
REMARK   16  A    between atoms: _35  and  _36
REMARK   17  A    between atoms: _35  and  _37
REMARK   18  A    between atoms: _37  and  _38
REMARK   19  A    between atoms: _37  and  _39
REMARK   20  A    between atoms: _40  and  _42
REMARK                            x       y       z     vdW  Elec       q    Type
REMARK                         _______ _______ _______ _____ _____    ______ ____
ROOT
ATOM      1  C   UNL     1       3.298   2.651  32.610  0.00  0.00    +0.163 C 
ENDROOT
BRANCH   1   2
ATOM      2  O   UNL     1       4.141   1.819  31.796  0.00  0.00    -0.388 OA
ATOM      3  H   UNL     1       3.868   1.887  30.878  0.00  0.00    +0.210 HD
ENDBRANCH   1   2
BRANCH   1   4
ATOM      4  C   UNL     1       4.116   3.761  33.292  0.00  0.00    +0.175 C 
BRANCH   4   5
ATOM      5  C   UNL     1       5.538   3.298  33.643  0.00  0.00    +0.176 C 
ATOM      6  O   UNL     1       5.453   1.937  34.148  0.00  0.00    -0.332 OA
ATOM      7  C   UNL     1       6.735   1.288  34.438  0.00  0.00    +0.277 C 
ATOM      8  C   UNL     1       7.574   2.155  35.409  0.00  0.00    +0.110 C 
ATOM      9  C   UNL     1       7.666   3.619  34.930  0.00  0.00    +0.143 C 
ATOM     10  C   UNL     1       6.276   4.195  34.655  0.00  0.00    +0.133 C 
BRANCH  10  11
ATOM     11  N   UNL     1       6.381   5.560  34.117  0.00  0.00    -0.308 N 
ATOM     12  H   UNL     1       6.723   5.670  33.173  0.00  0.00    +0.149 HD
ATOM     13  C   UNL     1       6.053   6.663  34.795  0.00  0.00    +0.210 C 
ATOM     14  C   UNL     1       5.560   6.464  36.241  0.00  0.00    +0.109 C 
ATOM     15  O   UNL     1       6.138   7.794  34.314  0.00  0.00    -0.276 OA
ENDBRANCH  10  11
BRANCH   7  16
ATOM     16  C   UNL     1       7.533   1.049  33.139  0.00  0.00    +0.414 C 
ATOM     17  O   UNL     1       6.962   0.651  32.125  0.00  0.00    -0.240 OA
ATOM     18  O   UNL     1       8.747   1.255  33.106  0.00  0.00    -0.240 OA
ENDBRANCH   7  16
BRANCH   9  19
ATOM     19  O   UNL     1       8.315   4.412  35.925  0.00  0.00    -0.390 OA
ATOM     20  H   UNL     1       8.883   5.058  35.500  0.00  0.00    +0.210 HD
ENDBRANCH   9  19
BRANCH   7  21
ATOM     21  O   UNL     1       6.459   0.017  35.082  0.00  0.00    -0.343 OA
ATOM     22  C   UNL     1       5.109  -0.479  34.903  0.00  0.00    +0.198 C 
ENDBRANCH   7  21
ENDBRANCH   4   5
BRANCH   4  23
ATOM     23  O   UNL     1       3.437   4.221  34.477  0.00  0.00    -0.387 OA
ATOM     24  H   UNL     1       3.151   3.466  34.997  0.00  0.00    +0.210 HD
ENDBRANCH   4  23
ENDBRANCH   1   4
BRANCH   1  25
ATOM     25  C   UNL     1       2.202   3.279  31.754  0.00  0.00    +0.141 C 
BRANCH  25  28
ATOM     26  C   UNL     1       1.702   3.600  29.356  0.00  0.00    +0.401 C 
ATOM     27  O   UNL     1       0.520   3.897  29.546  0.00  0.00    -0.226 OA
ATOM     28  N   UNL     1       2.558   3.291  30.330  0.00  0.00    -0.279 N 
ATOM     29  H   UNL     1       3.506   3.051  30.074  0.00  0.00    +0.152 HD
BRANCH  26  30
ATOM     30  O   UNL     1       2.205   3.575  28.018  0.00  0.00    -0.444 OA
BRANCH  30  31
ATOM     31  C   UNL     1       1.230   2.990  27.151  0.00  0.00    +0.292 C 
BRANCH  31  33
ATOM     32  N   UNL     1       0.042   4.881  26.093  0.00  0.00    -0.131 NA
ATOM     33  C   UNL     1       0.969   3.879  26.005  0.00  0.00    +0.120 A 
ATOM     34  C   UNL     1       1.552   3.916  24.758  0.00  0.00    +0.137 A 
ATOM     35  N   UNL     1       1.003   5.021  24.166  0.00  0.00    -0.247 N 
ATOM     36  N   UNL     1       0.069   5.571  24.963  0.00  0.00    -0.065 NA
BRANCH  35  37
ATOM     37  C   UNL     1       1.412   5.604  22.893  0.00  0.00    +0.184 C 
BRANCH  37  38
ATOM     38  C   UNL     1       0.974   4.855  21.658  0.00  0.00    +0.016 A 
ATOM     39  C   UNL     1      -0.349   4.913  21.183  0.00  0.00    +0.137 A 
ATOM     40  C   UNL     1      -0.734   4.216  20.037  0.00  0.00    +0.047 A 
ATOM     41  C   UNL     1       0.208   3.461  19.338  0.00  0.00    +0.004 A 
ATOM     42  C   UNL     1       1.520   3.379  19.801  0.00  0.00    +0.001 A 
ATOM     43  C   UNL     1       1.902   4.073  20.950  0.00  0.00    +0.009 A 
BRANCH  39  44
ATOM     44  O   UNL     1      -1.278   5.638  21.968  0.00  0.00    -0.426 OA
BRANCH  44  45
ATOM     45  C   UNL     1      -2.333   5.021  22.643  0.00  0.00    +0.309 C 
ATOM     46  O   UNL     1      -2.317   3.936  23.208  0.00  0.00    -0.251 OA
ATOM     47  C   UNL     1      -3.515   5.945  22.643  0.00  0.00    +0.136 C 
ENDBRANCH  44  45
ENDBRANCH  39  44
ENDBRANCH  37  38
ENDBRANCH  35  37
ENDBRANCH  31  33
ENDBRANCH  30  31
ENDBRANCH  26  30
ENDBRANCH  25  28
ENDBRANCH   1  25
TORSDOF 17
