REMARK VINA RESULT:    -6.817      0.000      0.000
REMARK INTER + INTRA:         -14.443
REMARK INTER:                 -12.567
REMARK INTRA:                  -1.877
REMARK UNBOUND:                -2.246
REMARK  Name = lig_assembled_5.pdb
REMARK  18 active torsions:
REMARK  status: ('A' for Active; 'I' for Inactive)
REMARK    1  A    between atoms: _2  and  _9
REMARK    2  A    between atoms: _4  and  _20
REMARK    3  A    between atoms: _6  and  _7
REMARK    4  A    between atoms: _6  and  _20
REMARK    5  A    between atoms: _12  and  _15
REMARK    6  A    between atoms: _13  and  _15
REMARK    7  A    between atoms: _16  and  _36
REMARK    8  A    between atoms: _18  and  _24
REMARK    9  A    between atoms: _19  and  _23
REMARK   10  A    between atoms: _23  and  _24
REMARK   11  A    between atoms: _26  and  _27
REMARK   12  A    between atoms: _28  and  _29
REMARK   13  A    between atoms: _30  and  _32
REMARK   14  A    between atoms: _32  and  _33
REMARK   15  A    between atoms: _32  and  _34
REMARK   16  A    between atoms: _34  and  _35
REMARK   17  A    between atoms: _34  and  _36
REMARK   18  A    between atoms: _37  and  _39
REMARK                            x       y       z     vdW  Elec       q    Type
REMARK                         _______ _______ _______ _____ _____    ______ ____
ROOT
ATOM      1  C   UNL     1       3.797   3.638  32.466  0.00  0.00    +0.163 C 
ENDROOT
BRANCH   1   2
ATOM      2  O   UNL     1       2.920   3.991  33.549  0.00  0.00    -0.388 OA
ATOM      3  H   UNL     1       2.444   4.795  33.326  0.00  0.00    +0.210 HD
ENDBRANCH   1   2
BRANCH   1   4
ATOM      4  C   UNL     1       3.127   2.603  31.569  0.00  0.00    +0.141 C 
BRANCH   4   7
ATOM      5  C   UNL     1       1.179   3.359  30.251  0.00  0.00    +0.401 C 
ATOM      6  O   UNL     1       0.350   2.974  31.079  0.00  0.00    -0.226 OA
ATOM      7  N   UNL     1       2.497   3.221  30.396  0.00  0.00    -0.279 N 
ATOM      8  H   UNL     1       3.097   3.561  29.657  0.00  0.00    +0.152 HD
BRANCH   5   9
ATOM      9  O   UNL     1       0.721   3.992  29.053  0.00  0.00    -0.444 OA
BRANCH   9  10
ATOM     10  C   UNL     1       0.383   2.995  28.085  0.00  0.00    +0.292 C 
BRANCH  10  12
ATOM     11  N   UNL     1       2.234   3.940  26.742  0.00  0.00    -0.131 NA
ATOM     12  C   UNL     1       1.035   3.291  26.795  0.00  0.00    +0.121 A 
ATOM     13  C   UNL     1       0.622   3.004  25.515  0.00  0.00    +0.143 A 
ATOM     14  N   UNL     1       1.627   3.476  24.701  0.00  0.00    -0.220 N 
ATOM     15  N   UNL     1       2.584   4.055  25.468  0.00  0.00    -0.060 NA
BRANCH  14  16
ATOM     16  C   UNL     1       1.743   3.386  23.290  0.00  0.00    +0.067 A 
ATOM     17  C   UNL     1       1.746   4.539  22.496  0.00  0.00    +0.031 A 
ATOM     18  C   UNL     1       1.800   4.427  21.105  0.00  0.00    +0.048 A 
ATOM     19  C   UNL     1       1.873   3.177  20.489  0.00  0.00    +0.120 A 
ATOM     20  C   UNL     1       1.888   2.027  21.277  0.00  0.00    +0.048 A 
ATOM     21  C   UNL     1       1.822   2.129  22.674  0.00  0.00    +0.031 A 
BRANCH  19  22
ATOM     22  O   UNL     1       1.858   3.207  19.122  0.00  0.00    -0.495 OA
ATOM     23  C   UNL     1       2.638   2.221  18.461  0.00  0.00    +0.277 C 
ENDBRANCH  19  22
ENDBRANCH  14  16
ENDBRANCH  10  12
ENDBRANCH   9  10
ENDBRANCH   5   9
ENDBRANCH   4   7
ENDBRANCH   1   4
BRANCH   1  24
ATOM     24  C   UNL     1       5.127   3.075  32.997  0.00  0.00    +0.175 C 
BRANCH  24  25
ATOM     25  C   UNL     1       5.569   3.764  34.296  0.00  0.00    +0.176 C 
ATOM     26  O   UNL     1       5.558   5.200  34.067  0.00  0.00    -0.332 OA
ATOM     27  C   UNL     1       5.854   6.031  35.238  0.00  0.00    +0.277 C 
ATOM     28  C   UNL     1       7.203   5.613  35.872  0.00  0.00    +0.110 C 
ATOM     29  C   UNL     1       7.274   4.089  36.106  0.00  0.00    +0.143 C 
ATOM     30  C   UNL     1       6.946   3.322  34.824  0.00  0.00    +0.133 C 
BRANCH  30  31
ATOM     31  N   UNL     1       6.932   1.873  35.081  0.00  0.00    -0.308 N 
ATOM     32  H   UNL     1       6.210   1.508  35.687  0.00  0.00    +0.149 HD
ATOM     33  C   UNL     1       7.810   1.008  34.565  0.00  0.00    +0.210 C 
ATOM     34  C   UNL     1       8.912   1.599  33.666  0.00  0.00    +0.109 C 
ATOM     35  O   UNL     1       7.764  -0.203  34.785  0.00  0.00    -0.276 OA
ENDBRANCH  30  31
BRANCH  27  36
ATOM     36  C   UNL     1       4.731   5.914  36.289  0.00  0.00    +0.414 C 
ATOM     37  O   UNL     1       4.951   6.200  37.466  0.00  0.00    -0.240 OA
ATOM     38  O   UNL     1       3.606   5.534  35.962  0.00  0.00    -0.240 OA
ENDBRANCH  27  36
BRANCH  27  39
ATOM     39  O   UNL     1       5.965   7.408  34.794  0.00  0.00    -0.343 OA
ATOM     40  C   UNL     1       7.295   7.814  34.384  0.00  0.00    +0.198 C 
ENDBRANCH  27  39
BRANCH  29  41
ATOM     41  O   UNL     1       8.584   3.730  36.547  0.00  0.00    -0.390 OA
ATOM     42  H   UNL     1       9.219   3.920  35.854  0.00  0.00    +0.210 HD
ENDBRANCH  29  41
ENDBRANCH  24  25
BRANCH  24  43
ATOM     43  O   UNL     1       6.155   3.200  31.994  0.00  0.00    -0.387 OA
ATOM     44  H   UNL     1       6.460   4.110  31.960  0.00  0.00    +0.210 HD
ENDBRANCH  24  43
ENDBRANCH   1  24
TORSDOF 15
