REMARK VINA RESULT:    -6.748      0.000      0.000
REMARK INTER + INTRA:         -13.979
REMARK INTER:                 -12.525
REMARK INTRA:                  -1.454
REMARK UNBOUND:                -1.905
REMARK  Name = lig_assembled_38.pdb
REMARK  17 active torsions:
REMARK  status: ('A' for Active; 'I' for Inactive)
REMARK    1  A    between atoms: _2  and  _9
REMARK    2  A    between atoms: _4  and  _19
REMARK    3  A    between atoms: _6  and  _7
REMARK    4  A    between atoms: _6  and  _19
REMARK    5  A    between atoms: _9  and  _10
REMARK    6  A    between atoms: _15  and  _35
REMARK    7  A    between atoms: _17  and  _23
REMARK    8  A    between atoms: _18  and  _22
REMARK    9  A    between atoms: _22  and  _23
REMARK   10  A    between atoms: _25  and  _26
REMARK   11  A    between atoms: _27  and  _28
REMARK   12  A    between atoms: _29  and  _31
REMARK   13  A    between atoms: _31  and  _32
REMARK   14  A    between atoms: _31  and  _33
REMARK   15  A    between atoms: _33  and  _34
REMARK   16  A    between atoms: _33  and  _35
REMARK   17  A    between atoms: _36  and  _38
REMARK                            x       y       z     vdW  Elec       q    Type
REMARK                         _______ _______ _______ _____ _____    ______ ____
ROOT
ATOM      1  C   UNL     1       2.774   2.942  32.669  0.00  0.00    +0.163 C 
ENDROOT
BRANCH   1   2
ATOM      2  O   UNL     1       2.441   1.767  33.425  0.00  0.00    -0.388 OA
ATOM      3  H   UNL     1       1.689   1.327  33.021  0.00  0.00    +0.210 HD
ENDBRANCH   1   2
BRANCH   1   4
ATOM      4  C   UNL     1       3.479   2.547  31.375  0.00  0.00    +0.141 C 
BRANCH   4   7
ATOM      5  C   UNL     1       1.969   2.785  29.434  0.00  0.00    +0.401 C 
ATOM      6  O   UNL     1       1.437   1.684  29.594  0.00  0.00    -0.226 OA
ATOM      7  N   UNL     1       2.937   3.266  30.216  0.00  0.00    -0.279 N 
ATOM      8  H   UNL     1       3.318   4.176  29.998  0.00  0.00    +0.152 HD
BRANCH   5   9
ATOM      9  O   UNL     1       1.543   3.611  28.347  0.00  0.00    -0.444 OA
BRANCH   9  10
ATOM     10  C   UNL     1       1.434   2.821  27.160  0.00  0.00    +0.292 C 
BRANCH  10  12
ATOM     11  N   UNL     1       0.309   4.720  26.034  0.00  0.00    -0.131 NA
ATOM     12  C   UNL     1       1.207   3.686  25.985  0.00  0.00    +0.120 A 
ATOM     13  C   UNL     1       1.807   3.669  24.746  0.00  0.00    +0.137 A 
ATOM     14  N   UNL     1       1.273   4.751  24.106  0.00  0.00    -0.247 N 
ATOM     15  N   UNL     1       0.363   5.370  24.880  0.00  0.00    -0.065 NA
BRANCH  14  16
ATOM     16  C   UNL     1       1.742   5.377  22.883  0.00  0.00    +0.180 C 
BRANCH  16  17
ATOM     17  C   UNL     1       1.156   4.768  21.633  0.00  0.00    -0.025 A 
ATOM     18  C   UNL     1      -0.164   5.046  21.247  0.00  0.00    +0.005 A 
ATOM     19  C   UNL     1      -0.672   4.551  20.040  0.00  0.00    +0.001 A 
ATOM     20  C   UNL     1       0.133   3.775  19.208  0.00  0.00    +0.015 A 
ATOM     21  C   UNL     1       1.440   3.488  19.590  0.00  0.00    +0.018 A 
ATOM     22 BR   UNL     1       2.538   2.443  18.459  0.00  0.00    -0.050 Br
ATOM     23  C   UNL     1       1.955   3.977  20.792  0.00  0.00    +0.020 A 
ENDBRANCH  16  17
ENDBRANCH  14  16
ENDBRANCH  10  12
ENDBRANCH   9  10
ENDBRANCH   5   9
ENDBRANCH   4   7
ENDBRANCH   1   4
BRANCH   1  24
ATOM     24  C   UNL     1       3.681   3.881  33.483  0.00  0.00    +0.175 C 
BRANCH  24  25
ATOM     25  C   UNL     1       5.104   3.323  33.633  0.00  0.00    +0.176 C 
ATOM     26  O   UNL     1       4.999   1.950  34.100  0.00  0.00    -0.332 OA
ATOM     27  C   UNL     1       6.264   1.216  34.202  0.00  0.00    +0.277 C 
ATOM     28  C   UNL     1       7.271   1.993  35.085  0.00  0.00    +0.110 C 
ATOM     29  C   UNL     1       7.393   3.467  34.646  0.00  0.00    +0.143 C 
ATOM     30  C   UNL     1       6.018   4.133  34.571  0.00  0.00    +0.133 C 
BRANCH  30  31
ATOM     31  N   UNL     1       6.140   5.511  34.069  0.00  0.00    -0.308 N 
ATOM     32  H   UNL     1       6.410   5.639  33.103  0.00  0.00    +0.149 HD
ATOM     33  C   UNL     1       5.917   6.603  34.805  0.00  0.00    +0.210 C 
ATOM     34  C   UNL     1       5.534   6.374  36.279  0.00  0.00    +0.109 C 
ATOM     35  O   UNL     1       6.013   7.745  34.353  0.00  0.00    -0.276 OA
ENDBRANCH  30  31
BRANCH  27  36
ATOM     36  C   UNL     1       6.875   0.984  32.804  0.00  0.00    +0.414 C 
ATOM     37  O   UNL     1       8.072   1.193  32.608  0.00  0.00    -0.240 OA
ATOM     38  O   UNL     1       6.173   0.587  31.874  0.00  0.00    -0.240 OA
ENDBRANCH  27  36
BRANCH  27  39
ATOM     39  O   UNL     1       5.992  -0.062  34.834  0.00  0.00    -0.343 OA
ATOM     40  C   UNL     1       4.712  -0.151  35.509  0.00  0.00    +0.198 C 
ENDBRANCH  27  39
BRANCH  29  41
ATOM     41  O   UNL     1       8.211   4.180  35.575  0.00  0.00    -0.390 OA
ATOM     42  H   UNL     1       8.419   3.612  36.320  0.00  0.00    +0.210 HD
ENDBRANCH  29  41
ENDBRANCH  24  25
BRANCH  24  43
ATOM     43  O   UNL     1       3.104   4.127  34.781  0.00  0.00    -0.387 OA
ATOM     44  H   UNL     1       2.527   4.893  34.735  0.00  0.00    +0.210 HD
ENDBRANCH  24  43
ENDBRANCH   1  24
TORSDOF 15
