REMARK VINA RESULT:    -5.487      0.000      0.000
REMARK INTER + INTRA:         -14.004
REMARK INTER:                 -12.141
REMARK INTRA:                  -1.864
REMARK UNBOUND:                -3.545
REMARK  Name = lig_assembled_55.pdb
REMARK  20 active torsions:
REMARK  status: ('A' for Active; 'I' for Inactive)
REMARK    1  A    between atoms: _2  and  _10
REMARK    2  A    between atoms: _3  and  _11
REMARK    3  A    between atoms: _3  and  _38
REMARK    4  A    between atoms: _5  and  _18
REMARK    5  A    between atoms: _6  and  _38
REMARK    6  A    between atoms: _7  and  _8
REMARK    7  A    between atoms: _7  and  _18
REMARK    8  A    between atoms: _10  and  _11
REMARK    9  A    between atoms: _14  and  _34
REMARK   10  A    between atoms: _16  and  _22
REMARK   11  A    between atoms: _17  and  _21
REMARK   12  A    between atoms: _21  and  _22
REMARK   13  A    between atoms: _24  and  _25
REMARK   14  A    between atoms: _26  and  _27
REMARK   15  A    between atoms: _28  and  _30
REMARK   16  A    between atoms: _30  and  _31
REMARK   17  A    between atoms: _30  and  _32
REMARK   18  A    between atoms: _32  and  _33
REMARK   19  A    between atoms: _32  and  _34
REMARK   20  A    between atoms: _35  and  _37
REMARK                            x       y       z     vdW  Elec       q    Type
REMARK                         _______ _______ _______ _____ _____    ______ ____
ROOT
ATOM      1  C   UNL     1       7.275   2.464  34.420  0.00  0.00    +0.163 C 
ENDROOT
BRANCH   1   2
ATOM      2  O   UNL     1       7.261   2.479  35.857  0.00  0.00    -0.388 OA
ATOM      3  H   UNL     1       7.720   1.704  36.190  0.00  0.00    +0.210 HD
ENDBRANCH   1   2
BRANCH   1   4
ATOM      4  C   UNL     1       7.762   3.812  33.860  0.00  0.00    +0.175 C 
BRANCH   4   5
ATOM      5  C   UNL     1       7.142   5.004  34.604  0.00  0.00    +0.176 C 
ATOM      6  O   UNL     1       7.835   5.148  35.874  0.00  0.00    -0.332 OA
ATOM      7  C   UNL     1       7.446   6.309  36.680  0.00  0.00    +0.277 C 
ATOM      8  C   UNL     1       5.915   6.316  36.915  0.00  0.00    +0.110 C 
ATOM      9  C   UNL     1       5.136   6.134  35.595  0.00  0.00    +0.143 C 
ATOM     10  C   UNL     1       5.623   4.900  34.836  0.00  0.00    +0.133 C 
BRANCH  10  11
ATOM     11  N   UNL     1       4.935   4.786  33.541  0.00  0.00    -0.308 N 
ATOM     12  H   UNL     1       5.152   5.470  32.830  0.00  0.00    +0.149 HD
ATOM     13  C   UNL     1       4.041   3.839  33.244  0.00  0.00    +0.210 C 
ATOM     14  C   UNL     1       3.713   2.827  34.358  0.00  0.00    +0.109 C 
ATOM     15  O   UNL     1       3.491   3.759  32.145  0.00  0.00    -0.276 OA
ENDBRANCH  10  11
BRANCH   7  16
ATOM     16  C   UNL     1       7.868   7.621  35.989  0.00  0.00    +0.414 C 
ATOM     17  O   UNL     1       7.903   7.692  34.761  0.00  0.00    -0.240 OA
ATOM     18  O   UNL     1       8.174   8.609  36.658  0.00  0.00    -0.240 OA
ENDBRANCH   7  16
BRANCH   7  19
ATOM     19  O   UNL     1       8.105   6.201  37.968  0.00  0.00    -0.343 OA
ATOM     20  C   UNL     1       7.214   6.171  39.112  0.00  0.00    +0.198 C 
ENDBRANCH   7  19
BRANCH   9  21
ATOM     21  O   UNL     1       3.742   5.996  35.874  0.00  0.00    -0.390 OA
ATOM     22  H   UNL     1       3.592   5.181  36.359  0.00  0.00    +0.210 HD
ENDBRANCH   9  21
ENDBRANCH   4   5
BRANCH   4  23
ATOM     23  O   UNL     1       7.470   3.899  32.451  0.00  0.00    -0.387 OA
ATOM     24  H   UNL     1       6.519   3.889  32.320  0.00  0.00    +0.210 HD
ENDBRANCH   4  23
ENDBRANCH   1   4
BRANCH   1  25
ATOM     25  C   UNL     1       8.183   1.346  33.918  0.00  0.00    +0.141 C 
BRANCH  25  28
ATOM     26  C   UNL     1      10.428   1.703  34.886  0.00  0.00    +0.401 C 
ATOM     27  O   UNL     1      10.114   1.293  36.006  0.00  0.00    -0.226 OA
ATOM     28  N   UNL     1       9.587   1.769  33.853  0.00  0.00    -0.279 N 
ATOM     29  H   UNL     1       9.936   2.130  32.976  0.00  0.00    +0.152 HD
BRANCH  26  30
ATOM     30  O   UNL     1      11.769   2.146  34.659  0.00  0.00    -0.444 OA
BRANCH  30  31
ATOM     31  C   UNL     1      12.282   2.746  35.852  0.00  0.00    +0.292 C 
BRANCH  31  33
ATOM     32  N   UNL     1      13.843   3.849  34.283  0.00  0.00    -0.131 NA
ATOM     33  C   UNL     1      13.253   3.804  35.519  0.00  0.00    +0.120 A 
ATOM     34  C   UNL     1      13.725   4.851  36.281  0.00  0.00    +0.137 A 
ATOM     35  N   UNL     1      14.611   5.482  35.461  0.00  0.00    -0.250 N 
ATOM     36  N   UNL     1      14.677   4.878  34.260  0.00  0.00    -0.065 NA
BRANCH  35  37
ATOM     37  C   UNL     1      15.400   6.663  35.735  0.00  0.00    +0.162 C 
BRANCH  37  38
ATOM     38  C   UNL     1      16.697   6.744  34.923  0.00  0.00    +0.129 C 
BRANCH  38  39
ATOM     39  N   UNL     1      16.479   6.986  33.467  0.00  0.00    -0.193 NA
ATOM     40  H   UNL     1      15.582   6.586  33.166  0.00  0.00    +0.148 HD
BRANCH  39  41
ATOM     41  S   UNL     1      16.705   8.568  32.934  0.00  0.00    +0.027 S 
ATOM     42  O   UNL     1      16.925   8.498  31.505  0.00  0.00    -0.158 OA
ATOM     43  O   UNL     1      15.642   9.373  33.492  0.00  0.00    -0.158 OA
ATOM     44  C   UNL     1      18.244   8.992  33.716  0.00  0.00    +0.214 C 
ENDBRANCH  39  41
ENDBRANCH  38  39
ENDBRANCH  37  38
ENDBRANCH  35  37
ENDBRANCH  31  33
ENDBRANCH  30  31
ENDBRANCH  26  30
ENDBRANCH  25  28
ENDBRANCH   1  25
TORSDOF 17
