REMARK VINA RESULT:    -6.680      0.000      0.000
REMARK INTER + INTRA:         -13.626
REMARK INTER:                 -11.973
REMARK INTRA:                  -1.653
REMARK UNBOUND:                -2.065
REMARK  Name = lig_assembled_49.pdb
REMARK  16 active torsions:
REMARK  status: ('A' for Active; 'I' for Inactive)
REMARK    1  A    between atoms: _2  and  _9
REMARK    2  A    between atoms: _4  and  _17
REMARK    3  A    between atoms: _6  and  _7
REMARK    4  A    between atoms: _6  and  _17
REMARK    5  A    between atoms: _13  and  _33
REMARK    6  A    between atoms: _15  and  _21
REMARK    7  A    between atoms: _16  and  _20
REMARK    8  A    between atoms: _20  and  _21
REMARK    9  A    between atoms: _23  and  _24
REMARK   10  A    between atoms: _25  and  _26
REMARK   11  A    between atoms: _27  and  _29
REMARK   12  A    between atoms: _29  and  _30
REMARK   13  A    between atoms: _29  and  _31
REMARK   14  A    between atoms: _31  and  _32
REMARK   15  A    between atoms: _31  and  _33
REMARK   16  A    between atoms: _34  and  _36
REMARK                            x       y       z     vdW  Elec       q    Type
REMARK                         _______ _______ _______ _____ _____    ______ ____
ROOT
ATOM      1  C   UNL     1       4.531   3.024  32.976  0.00  0.00    +0.175 C 
ENDROOT
BRANCH   1   2
ATOM      2  C   UNL     1       5.200   3.702  34.181  0.00  0.00    +0.176 C 
ATOM      3  O   UNL     1       5.232   5.133  33.927  0.00  0.00    -0.332 OA
ATOM      4  C   UNL     1       5.745   5.960  35.024  0.00  0.00    +0.277 C 
ATOM      5  C   UNL     1       7.150   5.473  35.457  0.00  0.00    +0.110 C 
ATOM      6  C   UNL     1       7.173   3.951  35.707  0.00  0.00    +0.143 C 
ATOM      7  C   UNL     1       6.615   3.188  34.505  0.00  0.00    +0.133 C 
BRANCH   7   8
ATOM      8  N   UNL     1       6.561   1.746  34.789  0.00  0.00    -0.308 N 
ATOM      9  H   UNL     1       5.902   1.426  35.485  0.00  0.00    +0.149 HD
ATOM     10  C   UNL     1       7.327   0.831  34.189  0.00  0.00    +0.210 C 
ATOM     11  C   UNL     1       8.341   1.353  33.153  0.00  0.00    +0.109 C 
ATOM     12  O   UNL     1       7.250  -0.373  34.436  0.00  0.00    -0.276 OA
ENDBRANCH   7   8
BRANCH   4  13
ATOM     13  C   UNL     1       4.789   5.918  36.234  0.00  0.00    +0.414 C 
ATOM     14  O   UNL     1       3.613   5.588  36.084  0.00  0.00    -0.240 OA
ATOM     15  O   UNL     1       5.193   6.213  37.359  0.00  0.00    -0.240 OA
ENDBRANCH   4  13
BRANCH   6  16
ATOM     16  O   UNL     1       8.513   3.523  35.955  0.00  0.00    -0.390 OA
ATOM     17  H   UNL     1       8.586   3.204  36.858  0.00  0.00    +0.210 HD
ENDBRANCH   6  16
BRANCH   4  18
ATOM     18  O   UNL     1       5.862   7.323  34.541  0.00  0.00    -0.343 OA
ATOM     19  C   UNL     1       7.206   7.867  34.564  0.00  0.00    +0.198 C 
ENDBRANCH   4  18
ENDBRANCH   1   2
BRANCH   1  20
ATOM     20  O   UNL     1       5.440   2.987  31.858  0.00  0.00    -0.387 OA
ATOM     21  H   UNL     1       5.546   3.872  31.502  0.00  0.00    +0.210 HD
ENDBRANCH   1  20
BRANCH   1  22
ATOM     22  C   UNL     1       3.222   3.724  32.571  0.00  0.00    +0.163 C 
BRANCH  22  23
ATOM     23  O   UNL     1       2.394   3.969  33.720  0.00  0.00    -0.388 OA
ATOM     24  H   UNL     1       1.605   4.446  33.451  0.00  0.00    +0.210 HD
ENDBRANCH  22  23
BRANCH  22  25
ATOM     25  C   UNL     1       2.472   2.859  31.563  0.00  0.00    +0.141 C 
BRANCH  25  28
ATOM     26  C   UNL     1       2.191   2.919  29.109  0.00  0.00    +0.401 C 
ATOM     27  O   UNL     1       2.258   1.695  28.977  0.00  0.00    -0.226 OA
ATOM     28  N   UNL     1       2.287   3.549  30.281  0.00  0.00    -0.279 N 
ATOM     29  H   UNL     1       2.228   4.557  30.287  0.00  0.00    +0.152 HD
BRANCH  26  30
ATOM     30  O   UNL     1       2.002   3.733  27.949  0.00  0.00    -0.444 OA
BRANCH  30  31
ATOM     31  C   UNL     1       0.756   3.403  27.331  0.00  0.00    +0.292 C 
BRANCH  31  33
ATOM     32  N   UNL     1      -0.296   5.126  25.902  0.00  0.00    -0.131 NA
ATOM     33  C   UNL     1       0.615   4.114  26.046  0.00  0.00    +0.120 A 
ATOM     34  C   UNL     1       1.279   3.932  24.854  0.00  0.00    +0.137 A 
ATOM     35  N   UNL     1       0.723   4.860  24.023  0.00  0.00    -0.248 N 
ATOM     36  N   UNL     1      -0.220   5.577  24.658  0.00  0.00    -0.065 NA
BRANCH  35  37
ATOM     37  C   UNL     1       1.027   5.094  22.632  0.00  0.00    +0.109 C 
ATOM     38  C   UNL     1       1.769   3.938  21.957  0.00  0.00    +0.027 C 
ATOM     39  C   UNL     1       1.571   4.226  20.479  0.00  0.00    +0.002 C 
ATOM     40  C   UNL     1       0.133   4.719  20.383  0.00  0.00    +0.002 C 
ATOM     41  C   UNL     1      -0.200   5.336  21.743  0.00  0.00    +0.027 C 
ENDBRANCH  35  37
ENDBRANCH  31  33
ENDBRANCH  30  31
ENDBRANCH  26  30
ENDBRANCH  25  28
ENDBRANCH  22  25
ENDBRANCH   1  22
TORSDOF 14
