REMARK VINA RESULT:    -6.882      0.000      0.000
REMARK INTER + INTRA:         -14.824
REMARK INTER:                 -12.720
REMARK INTRA:                  -2.104
REMARK UNBOUND:                -2.511
REMARK  Name = lig_assembled_6.pdb
REMARK  17 active torsions:
REMARK  status: ('A' for Active; 'I' for Inactive)
REMARK    1  A    between atoms: _2  and  _10
REMARK    2  A    between atoms: _3  and  _13
REMARK    3  A    between atoms: _5  and  _21
REMARK    4  A    between atoms: _7  and  _8
REMARK    5  A    between atoms: _7  and  _21
REMARK    6  A    between atoms: _17  and  _37
REMARK    7  A    between atoms: _19  and  _25
REMARK    8  A    between atoms: _20  and  _24
REMARK    9  A    between atoms: _24  and  _25
REMARK   10  A    between atoms: _27  and  _28
REMARK   11  A    between atoms: _29  and  _30
REMARK   12  A    between atoms: _31  and  _33
REMARK   13  A    between atoms: _33  and  _34
REMARK   14  A    between atoms: _33  and  _35
REMARK   15  A    between atoms: _35  and  _36
REMARK   16  A    between atoms: _35  and  _37
REMARK   17  A    between atoms: _38  and  _40
REMARK                            x       y       z     vdW  Elec       q    Type
REMARK                         _______ _______ _______ _____ _____    ______ ____
ROOT
ATOM      1  C   UNL     1       3.915   3.524  32.382  0.00  0.00    +0.163 C 
ENDROOT
BRANCH   1   2
ATOM      2  O   UNL     1       3.008   3.892  33.434  0.00  0.00    -0.388 OA
ATOM      3  H   UNL     1       2.379   4.539  33.104  0.00  0.00    +0.210 HD
ENDBRANCH   1   2
BRANCH   1   4
ATOM      4  C   UNL     1       3.283   2.449  31.502  0.00  0.00    +0.141 C 
BRANCH   4   7
ATOM      5  C   UNL     1       1.305   3.522  30.482  0.00  0.00    +0.401 C 
ATOM      6  O   UNL     1       0.653   3.531  31.529  0.00  0.00    -0.226 OA
ATOM      7  N   UNL     1       2.540   3.030  30.377  0.00  0.00    -0.279 N 
ATOM      8  H   UNL     1       2.990   3.059  29.473  0.00  0.00    +0.152 HD
BRANCH   5   9
ATOM      9  O   UNL     1       0.719   4.063  29.295  0.00  0.00    -0.444 OA
BRANCH   9  10
ATOM     10  C   UNL     1       0.458   3.006  28.367  0.00  0.00    +0.292 C 
BRANCH  10  12
ATOM     11  N   UNL     1       2.298   3.923  26.988  0.00  0.00    -0.131 NA
ATOM     12  C   UNL     1       1.087   3.299  27.066  0.00  0.00    +0.121 A 
ATOM     13  C   UNL     1       0.642   3.023  25.793  0.00  0.00    +0.143 A 
ATOM     14  N   UNL     1       1.640   3.475  24.961  0.00  0.00    -0.220 N 
ATOM     15  N   UNL     1       2.624   4.034  25.707  0.00  0.00    -0.060 NA
BRANCH  14  16
ATOM     16  C   UNL     1       1.731   3.375  23.547  0.00  0.00    +0.067 A 
ATOM     17  C   UNL     1       1.730   4.529  22.748  0.00  0.00    +0.034 A 
ATOM     18  C   UNL     1       1.758   4.416  21.353  0.00  0.00    +0.086 A 
ATOM     19  C   UNL     1       1.790   3.150  20.757  0.00  0.00    +0.273 A 
ATOM     20  C   UNL     1       1.818   1.994  21.546  0.00  0.00    +0.086 A 
ATOM     21  C   UNL     1       1.790   2.109  22.941  0.00  0.00    +0.034 A 
BRANCH  19  22
ATOM     22  N   UNL     1       1.775   3.038  19.293  0.00  0.00    +0.080 N 
ATOM     23  O   UNL     1       2.508   3.804  18.650  0.00  0.00    +0.041 OA
ATOM     24  O   UNL     1       1.026   2.191  18.787  0.00  0.00    -0.576 OA
ENDBRANCH  19  22
ENDBRANCH  14  16
ENDBRANCH  10  12
ENDBRANCH   9  10
ENDBRANCH   5   9
ENDBRANCH   4   7
ENDBRANCH   1   4
BRANCH   1  25
ATOM     25  C   UNL     1       5.242   3.002  32.957  0.00  0.00    +0.175 C 
BRANCH  25  26
ATOM     26  C   UNL     1       5.623   3.710  34.265  0.00  0.00    +0.176 C 
ATOM     27  O   UNL     1       5.597   5.144  34.021  0.00  0.00    -0.332 OA
ATOM     28  C   UNL     1       5.835   5.991  35.194  0.00  0.00    +0.277 C 
ATOM     29  C   UNL     1       7.166   5.601  35.883  0.00  0.00    +0.110 C 
ATOM     30  C   UNL     1       7.253   4.081  36.134  0.00  0.00    +0.143 C 
ATOM     31  C   UNL     1       6.987   3.296  34.849  0.00  0.00    +0.133 C 
BRANCH  31  32
ATOM     32  N   UNL     1       6.987   1.850  35.119  0.00  0.00    -0.308 N 
ATOM     33  H   UNL     1       6.258   1.481  35.714  0.00  0.00    +0.149 HD
ATOM     34  C   UNL     1       7.888   0.993  34.630  0.00  0.00    +0.210 C 
ATOM     35  C   UNL     1       9.001   1.590  33.749  0.00  0.00    +0.109 C 
ATOM     36  O   UNL     1       7.854  -0.216  34.862  0.00  0.00    -0.276 OA
ENDBRANCH  31  32
BRANCH  28  37
ATOM     37  C   UNL     1       4.675   5.864  36.204  0.00  0.00    +0.414 C 
ATOM     38  O   UNL     1       4.849   6.153  37.387  0.00  0.00    -0.240 OA
ATOM     39  O   UNL     1       3.567   5.473  35.836  0.00  0.00    -0.240 OA
ENDBRANCH  28  37
BRANCH  30  40
ATOM     40  O   UNL     1       8.551   3.749  36.628  0.00  0.00    -0.390 OA
ATOM     41  H   UNL     1       9.213   3.975  35.970  0.00  0.00    +0.210 HD
ENDBRANCH  30  40
BRANCH  28  42
ATOM     42  O   UNL     1       5.939   7.365  34.741  0.00  0.00    -0.343 OA
ATOM     43  C   UNL     1       7.283   7.802  34.415  0.00  0.00    +0.198 C 
ENDBRANCH  28  42
ENDBRANCH  25  26
BRANCH  25  44
ATOM     44  O   UNL     1       6.297   3.150  31.986  0.00  0.00    -0.387 OA
ATOM     45  H   UNL     1       6.356   4.070  31.715  0.00  0.00    +0.210 HD
ENDBRANCH  25  44
ENDBRANCH   1  25
TORSDOF 15
