REMARK VINA RESULT:    -5.841      0.000      0.000
REMARK INTER + INTRA:         -13.426
REMARK INTER:                 -10.884
REMARK INTRA:                  -2.542
REMARK UNBOUND:                -2.805
REMARK  Name = lig_assembled_72.pdb
REMARK  20 active torsions:
REMARK  status: ('A' for Active; 'I' for Inactive)
REMARK    1  A    between atoms: _2  and  _9
REMARK    2  A    between atoms: _4  and  _17
REMARK    3  A    between atoms: _5  and  _9
REMARK    4  A    between atoms: _5  and  _12
REMARK    5  A    between atoms: _6  and  _7
REMARK    6  A    between atoms: _6  and  _17
REMARK    7  A    between atoms: _9  and  _10
REMARK    8  A    between atoms: _9  and  _11
REMARK    9  A    between atoms: _13  and  _33
REMARK   10  A    between atoms: _15  and  _21
REMARK   11  A    between atoms: _16  and  _20
REMARK   12  A    between atoms: _20  and  _21
REMARK   13  A    between atoms: _23  and  _24
REMARK   14  A    between atoms: _25  and  _26
REMARK   15  A    between atoms: _27  and  _29
REMARK   16  A    between atoms: _29  and  _30
REMARK   17  A    between atoms: _29  and  _31
REMARK   18  A    between atoms: _31  and  _32
REMARK   19  A    between atoms: _31  and  _33
REMARK   20  A    between atoms: _34  and  _36
REMARK                            x       y       z     vdW  Elec       q    Type
REMARK                         _______ _______ _______ _____ _____    ______ ____
ROOT
ATOM      1  C   UNL     1      17.750   3.975  22.696  0.00  0.00    +0.163 C 
ENDROOT
BRANCH   1   2
ATOM      2  O   UNL     1      17.125   5.199  23.117  0.00  0.00    -0.388 OA
ATOM      3  H   UNL     1      17.285   5.883  22.462  0.00  0.00    +0.210 HD
ENDBRANCH   1   2
BRANCH   1   4
ATOM      4  C   UNL     1      18.313   3.202  23.900  0.00  0.00    +0.175 C 
BRANCH   4   5
ATOM      5  C   UNL     1      18.386   4.072  25.163  0.00  0.00    +0.176 C 
ATOM      6  O   UNL     1      19.652   4.786  25.142  0.00  0.00    -0.332 OA
ATOM      7  C   UNL     1      19.853   5.754  26.225  0.00  0.00    +0.277 C 
ATOM      8  C   UNL     1      19.660   5.072  27.602  0.00  0.00    +0.110 C 
ATOM      9  C   UNL     1      18.340   4.274  27.662  0.00  0.00    +0.143 C 
ATOM     10  C   UNL     1      18.234   3.301  26.487  0.00  0.00    +0.133 C 
BRANCH  10  11
ATOM     11  N   UNL     1      16.935   2.609  26.507  0.00  0.00    -0.308 N 
ATOM     12  H   UNL     1      16.099   3.175  26.482  0.00  0.00    +0.149 HD
ATOM     13  C   UNL     1      16.790   1.282  26.557  0.00  0.00    +0.210 C 
ATOM     14  C   UNL     1      18.083   0.448  26.621  0.00  0.00    +0.109 C 
ATOM     15  O   UNL     1      15.689   0.730  26.557  0.00  0.00    -0.276 OA
ENDBRANCH  10  11
BRANCH   7  16
ATOM     16  C   UNL     1      18.870   6.935  26.092  0.00  0.00    +0.414 C 
ATOM     17  O   UNL     1      18.195   7.068  25.072  0.00  0.00    -0.240 OA
ATOM     18  O   UNL     1      18.753   7.755  27.004  0.00  0.00    -0.240 OA
ENDBRANCH   7  16
BRANCH   9  19
ATOM     19  O   UNL     1      18.275   3.543  28.887  0.00  0.00    -0.390 OA
ATOM     20  H   UNL     1      17.606   3.930  29.457  0.00  0.00    +0.210 HD
ENDBRANCH   9  19
BRANCH   7  21
ATOM     21  O   UNL     1      21.217   6.241  26.144  0.00  0.00    -0.343 OA
ATOM     22  C   UNL     1      21.848   6.082  24.849  0.00  0.00    +0.198 C 
ENDBRANCH   7  21
ENDBRANCH   4   5
BRANCH   4  23
ATOM     23  O   UNL     1      19.617   2.673  23.586  0.00  0.00    -0.387 OA
ATOM     24  H   UNL     1      19.852   2.916  22.687  0.00  0.00    +0.210 HD
ENDBRANCH   4  23
ENDBRANCH   1   4
BRANCH   1  25
ATOM     25  C   UNL     1      16.742   3.103  21.956  0.00  0.00    +0.141 C 
BRANCH  25  28
ATOM     26  C   UNL     1      17.949   1.349  20.701  0.00  0.00    +0.401 C 
ATOM     27  O   UNL     1      18.251   2.094  19.766  0.00  0.00    -0.226 OA
ATOM     28  N   UNL     1      17.240   1.735  21.762  0.00  0.00    -0.279 N 
ATOM     29  H   UNL     1      17.033   1.048  22.474  0.00  0.00    +0.152 HD
BRANCH  26  30
ATOM     30  O   UNL     1      18.369  -0.017  20.664  0.00  0.00    -0.444 OA
BRANCH  30  31
ATOM     31  C   UNL     1      19.092  -0.327  21.858  0.00  0.00    +0.292 C 
BRANCH  31  33
ATOM     32  N   UNL     1      19.301  -2.689  22.561  0.00  0.00    -0.131 NA
ATOM     33  C   UNL     1      18.551  -1.547  22.483  0.00  0.00    +0.120 A 
ATOM     34  C   UNL     1      17.320  -1.779  23.057  0.00  0.00    +0.137 A 
ATOM     35  N   UNL     1      17.379  -3.082  23.469  0.00  0.00    -0.244 N 
ATOM     36  N   UNL     1      18.577  -3.619  23.164  0.00  0.00    -0.065 NA
BRANCH  35  37
ATOM     37  C   UNL     1      16.344  -3.867  24.156  0.00  0.00    +0.083 C 
ATOM     38  C   UNL     1      15.293  -4.329  23.128  0.00  0.00    +0.038 C 
ATOM     39  C   UNL     1      15.663  -2.998  25.231  0.00  0.00    +0.038 C 
BRANCH  37  40
ATOM     40  C   UNL     1      16.938  -5.136  24.828  0.00  0.00    +0.185 C 
BRANCH  40  41
ATOM     41  O   UNL     1      17.179  -6.190  23.898  0.00  0.00    -0.393 OA
ATOM     42  H   UNL     1      16.679  -5.955  23.088  0.00  0.00    +0.209 HD
ENDBRANCH  40  41
ENDBRANCH  37  40
ENDBRANCH  35  37
ENDBRANCH  31  33
ENDBRANCH  30  31
ENDBRANCH  26  30
ENDBRANCH  25  28
ENDBRANCH   1  25
TORSDOF 16
