REMARK VINA RESULT:    -6.768      0.000      0.000
REMARK INTER + INTRA:         -14.043
REMARK INTER:                 -11.296
REMARK INTRA:                  -2.747
REMARK UNBOUND:                -1.933
REMARK  Name = lig_assembled_39.pdb
REMARK  17 active torsions:
REMARK  status: ('A' for Active; 'I' for Inactive)
REMARK    1  A    between atoms: _2  and  _9
REMARK    2  A    between atoms: _4  and  _19
REMARK    3  A    between atoms: _6  and  _7
REMARK    4  A    between atoms: _6  and  _19
REMARK    5  A    between atoms: _9  and  _10
REMARK    6  A    between atoms: _15  and  _35
REMARK    7  A    between atoms: _17  and  _23
REMARK    8  A    between atoms: _18  and  _22
REMARK    9  A    between atoms: _22  and  _23
REMARK   10  A    between atoms: _25  and  _26
REMARK   11  A    between atoms: _27  and  _28
REMARK   12  A    between atoms: _29  and  _31
REMARK   13  A    between atoms: _31  and  _32
REMARK   14  A    between atoms: _31  and  _33
REMARK   15  A    between atoms: _33  and  _34
REMARK   16  A    between atoms: _33  and  _35
REMARK   17  A    between atoms: _36  and  _38
REMARK                            x       y       z     vdW  Elec       q    Type
REMARK                         _______ _______ _______ _____ _____    ______ ____
ROOT
ATOM      1  C   UNL     1      20.368   9.928  26.567  0.00  0.00    +0.163 C 
ENDROOT
BRANCH   1   2
ATOM      2  O   UNL     1      19.178  10.731  26.644  0.00  0.00    -0.388 OA
ATOM      3  H   UNL     1      18.743  10.741  25.788  0.00  0.00    +0.210 HD
ENDBRANCH   1   2
BRANCH   1   4
ATOM      4  C   UNL     1      20.867   9.872  25.127  0.00  0.00    +0.141 C 
BRANCH   4   7
ATOM      5  C   UNL     1      21.540   7.934  23.750  0.00  0.00    +0.401 C 
ATOM      6  O   UNL     1      22.640   8.406  23.455  0.00  0.00    -0.226 OA
ATOM      7  N   UNL     1      20.646   8.554  24.521  0.00  0.00    -0.279 N 
ATOM      8  H   UNL     1      19.766   8.089  24.699  0.00  0.00    +0.152 HD
BRANCH   5   9
ATOM      9  O   UNL     1      21.178   6.647  23.243  0.00  0.00    -0.444 OA
BRANCH   9  10
ATOM     10  C   UNL     1      20.440   5.932  24.238  0.00  0.00    +0.292 C 
BRANCH  10  12
ATOM     11  N   UNL     1      18.264   6.366  23.141  0.00  0.00    -0.131 NA
ATOM     12  C   UNL     1      19.149   5.476  23.692  0.00  0.00    +0.120 A 
ATOM     13  C   UNL     1      18.624   4.206  23.606  0.00  0.00    +0.137 A 
ATOM     14  N   UNL     1      17.458   4.382  22.920  0.00  0.00    -0.247 N 
ATOM     15  N   UNL     1      17.216   5.687  22.697  0.00  0.00    -0.065 NA
BRANCH  14  16
ATOM     16  C   UNL     1      16.569   3.359  22.388  0.00  0.00    +0.181 C 
BRANCH  16  17
ATOM     17  C   UNL     1      17.232   1.999  22.256  0.00  0.00    -0.012 A 
ATOM     18  C   UNL     1      17.789   1.578  21.032  0.00  0.00    +0.006 A 
ATOM     19  C   UNL     1      18.396   0.328  20.895  0.00  0.00    +0.000 A 
ATOM     20  C   UNL     1      18.442  -0.544  21.974  0.00  0.00    +0.001 A 
ATOM     21  C   UNL     1      17.862  -0.173  23.185  0.00  0.00    +0.015 A 
ATOM     22  C   UNL     1      17.251   1.082  23.324  0.00  0.00    +0.023 A 
ATOM     23 BR   UNL     1      16.443   1.454  25.005  0.00  0.00    -0.050 Br
ENDBRANCH  16  17
ENDBRANCH  14  16
ENDBRANCH  10  12
ENDBRANCH   9  10
ENDBRANCH   5   9
ENDBRANCH   4   7
ENDBRANCH   1   4
BRANCH   1  24
ATOM     24  C   UNL     1      20.102   8.501  27.074  0.00  0.00    +0.175 C 
BRANCH  24  25
ATOM     25  C   UNL     1      19.330   8.494  28.402  0.00  0.00    +0.176 C 
ATOM     26  O   UNL     1      19.935   9.486  29.276  0.00  0.00    -0.332 OA
ATOM     27  C   UNL     1      19.260   9.696  30.560  0.00  0.00    +0.277 C 
ATOM     28  C   UNL     1      19.110   8.354  31.318  0.00  0.00    +0.110 C 
ATOM     29  C   UNL     1      18.500   7.258  30.419  0.00  0.00    +0.143 C 
ATOM     30  C   UNL     1      19.277   7.126  29.109  0.00  0.00    +0.133 C 
BRANCH  30  31
ATOM     31  N   UNL     1      18.635   6.141  28.226  0.00  0.00    -0.308 N 
ATOM     32  H   UNL     1      17.725   6.367  27.849  0.00  0.00    +0.149 HD
ATOM     33  C   UNL     1      19.177   4.967  27.889  0.00  0.00    +0.210 C 
ATOM     34  C   UNL     1      20.552   4.641  28.500  0.00  0.00    +0.109 C 
ATOM     35  O   UNL     1      18.622   4.167  27.134  0.00  0.00    -0.276 OA
ENDBRANCH  30  31
BRANCH  27  36
ATOM     36  C   UNL     1      17.869  10.328  30.350  0.00  0.00    +0.414 C 
ATOM     37  O   UNL     1      17.074  10.404  31.286  0.00  0.00    -0.240 OA
ATOM     38  O   UNL     1      17.541  10.762  29.245  0.00  0.00    -0.240 OA
ENDBRANCH  27  36
BRANCH  27  39
ATOM     39  O   UNL     1      20.083  10.583  31.360  0.00  0.00    -0.343 OA
ATOM     40  C   UNL     1      20.803  11.593  30.610  0.00  0.00    +0.198 C 
ENDBRANCH  27  39
BRANCH  29  41
ATOM     41  O   UNL     1      18.519   6.006  31.106  0.00  0.00    -0.390 OA
ATOM     42  H   UNL     1      17.994   5.366  30.621  0.00  0.00    +0.210 HD
ENDBRANCH  29  41
ENDBRANCH  24  25
BRANCH  24  43
ATOM     43  O   UNL     1      21.345   7.785  27.218  0.00  0.00    -0.387 OA
ATOM     44  H   UNL     1      21.814   8.110  27.990  0.00  0.00    +0.210 HD
ENDBRANCH  24  43
ENDBRANCH   1  24
TORSDOF 15
