REMARK VINA RESULT:    -7.301      0.000      0.000
REMARK INTER + INTRA:         -15.670
REMARK INTER:                 -13.338
REMARK INTRA:                  -2.332
REMARK UNBOUND:                -2.608
REMARK  Name = lig_assembled_4.pdb
REMARK  19 active torsions:
REMARK  status: ('A' for Active; 'I' for Inactive)
REMARK    1  A    between atoms: _2  and  _9
REMARK    2  A    between atoms: _4  and  _21
REMARK    3  A    between atoms: _6  and  _7
REMARK    4  A    between atoms: _6  and  _21
REMARK    5  A    between atoms: _10  and  _11
REMARK    6  A    between atoms: _11  and  _12
REMARK    7  A    between atoms: _11  and  _13
REMARK    8  A    between atoms: _17  and  _37
REMARK    9  A    between atoms: _19  and  _25
REMARK   10  A    between atoms: _20  and  _24
REMARK   11  A    between atoms: _24  and  _25
REMARK   12  A    between atoms: _27  and  _28
REMARK   13  A    between atoms: _29  and  _30
REMARK   14  A    between atoms: _31  and  _33
REMARK   15  A    between atoms: _33  and  _34
REMARK   16  A    between atoms: _33  and  _35
REMARK   17  A    between atoms: _35  and  _36
REMARK   18  A    between atoms: _35  and  _37
REMARK   19  A    between atoms: _38  and  _40
REMARK                            x       y       z     vdW  Elec       q    Type
REMARK                         _______ _______ _______ _____ _____    ______ ____
ROOT
ATOM      1  C   UNL     1       3.789   3.676  32.572  0.00  0.00    +0.163 C 
ENDROOT
BRANCH   1   2
ATOM      2  O   UNL     1       2.954   4.058  33.678  0.00  0.00    -0.388 OA
ATOM      3  H   UNL     1       2.429   4.824  33.434  0.00  0.00    +0.210 HD
ENDBRANCH   1   2
BRANCH   1   4
ATOM      4  C   UNL     1       3.070   2.645  31.708  0.00  0.00    +0.141 C 
BRANCH   4   7
ATOM      5  C   UNL     1       1.050   3.792  30.866  0.00  0.00    +0.401 C 
ATOM      6  O   UNL     1       0.474   3.779  31.957  0.00  0.00    -0.226 OA
ATOM      7  N   UNL     1       2.263   3.278  30.658  0.00  0.00    -0.279 N 
ATOM      8  H   UNL     1       2.648   3.327  29.725  0.00  0.00    +0.152 HD
BRANCH   5   9
ATOM      9  O   UNL     1       0.395   4.383  29.741  0.00  0.00    -0.444 OA
BRANCH   9  10
ATOM     10  C   UNL     1       0.009   3.359  28.820  0.00  0.00    +0.292 C 
BRANCH  10  12
ATOM     11  N   UNL     1       2.134   3.727  27.621  0.00  0.00    -0.131 NA
ATOM     12  C   UNL     1       0.804   3.446  27.582  0.00  0.00    +0.121 A 
ATOM     13  C   UNL     1       0.408   3.319  26.269  0.00  0.00    +0.143 A 
ATOM     14  N   UNL     1       1.522   3.664  25.528  0.00  0.00    -0.219 N 
ATOM     15  N   UNL     1       2.565   3.831  26.371  0.00  0.00    -0.060 NA
BRANCH  14  16
ATOM     16  C   UNL     1       1.601   3.852  24.115  0.00  0.00    +0.070 A 
ATOM     17  C   UNL     1       1.693   2.777  23.189  0.00  0.00    -0.019 A 
ATOM     18  C   UNL     1       1.798   3.106  21.818  0.00  0.00    +0.006 A 
ATOM     19  C   UNL     1       1.825   4.428  21.372  0.00  0.00    +0.000 A 
ATOM     20  C   UNL     1       1.726   5.468  22.284  0.00  0.00    +0.002 A 
ATOM     21  C   UNL     1       1.618   5.184  23.644  0.00  0.00    +0.028 A 
BRANCH  17  22
ATOM     22  C   UNL     1       1.697   1.299  23.581  0.00  0.00    +0.015 C 
ATOM     23  C   UNL     1       2.996   0.802  24.237  0.00  0.00    +0.012 C 
ATOM     24  C   UNL     1       1.369   0.434  22.362  0.00  0.00    +0.012 C 
ENDBRANCH  17  22
ENDBRANCH  14  16
ENDBRANCH  10  12
ENDBRANCH   9  10
ENDBRANCH   5   9
ENDBRANCH   4   7
ENDBRANCH   1   4
BRANCH   1  25
ATOM     25  C   UNL     1       5.123   3.092  33.067  0.00  0.00    +0.175 C 
BRANCH  25  26
ATOM     26  C   UNL     1       5.626   3.793  34.337  0.00  0.00    +0.176 C 
ATOM     27  O   UNL     1       5.617   5.226  34.090  0.00  0.00    -0.332 OA
ATOM     28  C   UNL     1       5.969   6.070  35.236  0.00  0.00    +0.277 C 
ATOM     29  C   UNL     1       7.341   5.648  35.817  0.00  0.00    +0.110 C 
ATOM     30  C   UNL     1       7.410   4.127  36.067  0.00  0.00    +0.143 C 
ATOM     31  C   UNL     1       7.021   3.346  34.811  0.00  0.00    +0.133 C 
BRANCH  31  32
ATOM     32  N   UNL     1       7.007   1.901  35.086  0.00  0.00    -0.308 N 
ATOM     33  H   UNL     1       6.344   1.557  35.768  0.00  0.00    +0.149 HD
ATOM     34  C   UNL     1       7.811   1.014  34.495  0.00  0.00    +0.210 C 
ATOM     35  C   UNL     1       8.827   1.572  33.481  0.00  0.00    +0.109 C 
ATOM     36  O   UNL     1       7.767  -0.193  34.735  0.00  0.00    -0.276 OA
ENDBRANCH  31  32
BRANCH  28  37
ATOM     37  C   UNL     1       4.891   5.975  36.336  0.00  0.00    +0.414 C 
ATOM     38  O   UNL     1       3.749   5.614  36.056  0.00  0.00    -0.240 OA
ATOM     39  O   UNL     1       5.164   6.259  37.503  0.00  0.00    -0.240 OA
ENDBRANCH  28  37
BRANCH  30  40
ATOM     40  O   UNL     1       8.734   3.762  36.457  0.00  0.00    -0.390 OA
ATOM     41  H   UNL     1       9.370   4.261  35.938  0.00  0.00    +0.210 HD
ENDBRANCH  30  40
BRANCH  28  42
ATOM     42  O   UNL     1       6.071   7.440  34.770  0.00  0.00    -0.343 OA
ATOM     43  C   UNL     1       7.424   7.914  34.554  0.00  0.00    +0.198 C 
ENDBRANCH  28  42
ENDBRANCH  25  26
BRANCH  25  44
ATOM     44  O   UNL     1       6.117   3.175  32.026  0.00  0.00    -0.387 OA
ATOM     45  H   UNL     1       6.991   3.063  32.408  0.00  0.00    +0.210 HD
ENDBRANCH  25  44
ENDBRANCH   1  25
TORSDOF 15
