REMARK VINA RESULT:    -6.514      0.000      0.000
REMARK INTER + INTRA:         -13.904
REMARK INTER:                 -12.188
REMARK INTRA:                  -1.716
REMARK UNBOUND:                -2.248
REMARK  Name = lig_assembled_61.pdb
REMARK  17 active torsions:
REMARK  status: ('A' for Active; 'I' for Inactive)
REMARK    1  A    between atoms: _2  and  _9
REMARK    2  A    between atoms: _4  and  _17
REMARK    3  A    between atoms: _6  and  _7
REMARK    4  A    between atoms: _6  and  _17
REMARK    5  A    between atoms: _9  and  _10
REMARK    6  A    between atoms: _13  and  _33
REMARK    7  A    between atoms: _15  and  _21
REMARK    8  A    between atoms: _16  and  _20
REMARK    9  A    between atoms: _20  and  _21
REMARK   10  A    between atoms: _23  and  _24
REMARK   11  A    between atoms: _25  and  _26
REMARK   12  A    between atoms: _27  and  _29
REMARK   13  A    between atoms: _29  and  _30
REMARK   14  A    between atoms: _29  and  _31
REMARK   15  A    between atoms: _31  and  _32
REMARK   16  A    between atoms: _31  and  _33
REMARK   17  A    between atoms: _34  and  _36
REMARK                            x       y       z     vdW  Elec       q    Type
REMARK                         _______ _______ _______ _____ _____    ______ ____
ROOT
ATOM      1  C   UNL     1       3.658   3.693  32.460  0.00  0.00    +0.163 C 
ENDROOT
BRANCH   1   2
ATOM      2  O   UNL     1       2.745   3.967  33.536  0.00  0.00    -0.388 OA
ATOM      3  H   UNL     1       2.454   4.881  33.484  0.00  0.00    +0.210 HD
ENDBRANCH   1   2
BRANCH   1   4
ATOM      4  C   UNL     1       3.006   2.756  31.449  0.00  0.00    +0.141 C 
BRANCH   4   7
ATOM      5  C   UNL     1       1.982   3.000  29.214  0.00  0.00    +0.401 C 
ATOM      6  O   UNL     1       2.328   1.881  28.829  0.00  0.00    -0.226 OA
ATOM      7  N   UNL     1       2.261   3.493  30.421  0.00  0.00    -0.279 N 
ATOM      8  H   UNL     1       1.942   4.426  30.641  0.00  0.00    +0.152 HD
BRANCH   5   9
ATOM      9  O   UNL     1       1.238   3.840  28.327  0.00  0.00    -0.444 OA
BRANCH   9  10
ATOM     10  C   UNL     1       0.873   3.098  27.160  0.00  0.00    +0.292 C 
BRANCH  10  12
ATOM     11  N   UNL     1      -0.081   4.926  25.791  0.00  0.00    -0.131 NA
ATOM     12  C   UNL     1       0.885   3.970  25.971  0.00  0.00    +0.120 A 
ATOM     13  C   UNL     1       1.763   4.010  24.910  0.00  0.00    +0.137 A 
ATOM     14  N   UNL     1       1.244   4.970  24.092  0.00  0.00    -0.247 N 
ATOM     15  N   UNL     1       0.160   5.547  24.643  0.00  0.00    -0.065 NA
BRANCH  14  16
ATOM     16  C   UNL     1       1.739   5.417  22.802  0.00  0.00    +0.180 C 
BRANCH  16  17
ATOM     17  C   UNL     1       1.257   4.536  21.684  0.00  0.00    -0.019 A 
ATOM     18  C   UNL     1       1.858   3.284  21.315  0.00  0.00    +0.013 A 
ATOM     19  C   UNL     1       1.245   2.696  20.230  0.00  0.00    +0.045 A 
ATOM     20  S   UNL     1      -0.062   3.629  19.650  0.00  0.00    -0.105 S 
ATOM     21  C   UNL     1       0.196   4.827  20.841  0.00  0.00    +0.050 A 
ENDBRANCH  16  17
ENDBRANCH  14  16
ENDBRANCH  10  12
ENDBRANCH   9  10
ENDBRANCH   5   9
ENDBRANCH   4   7
ENDBRANCH   1   4
BRANCH   1  22
ATOM     22  C   UNL     1       4.955   3.056  32.989  0.00  0.00    +0.175 C 
BRANCH  22  23
ATOM     23  C   UNL     1       5.465   3.754  34.259  0.00  0.00    +0.176 C 
ATOM     24  O   UNL     1       5.459   5.188  34.014  0.00  0.00    -0.332 OA
ATOM     25  C   UNL     1       5.819   6.028  35.161  0.00  0.00    +0.277 C 
ATOM     26  C   UNL     1       7.192   5.600  35.735  0.00  0.00    +0.110 C 
ATOM     27  C   UNL     1       7.257   4.079  35.982  0.00  0.00    +0.143 C 
ATOM     28  C   UNL     1       6.861   3.302  34.726  0.00  0.00    +0.133 C 
BRANCH  28  29
ATOM     29  N   UNL     1       6.844   1.856  34.999  0.00  0.00    -0.308 N 
ATOM     30  H   UNL     1       6.153   1.507  35.648  0.00  0.00    +0.149 HD
ATOM     31  C   UNL     1       7.680   0.975  34.444  0.00  0.00    +0.210 C 
ATOM     32  C   UNL     1       8.738   1.542  33.478  0.00  0.00    +0.109 C 
ATOM     33  O   UNL     1       7.633  -0.233  34.680  0.00  0.00    -0.276 OA
ENDBRANCH  28  29
BRANCH  25  34
ATOM     34  C   UNL     1       4.746   5.934  36.265  0.00  0.00    +0.414 C 
ATOM     35  O   UNL     1       3.604   5.566  35.991  0.00  0.00    -0.240 OA
ATOM     36  O   UNL     1       5.022   6.225  37.430  0.00  0.00    -0.240 OA
ENDBRANCH  25  34
BRANCH  25  37
ATOM     37  O   UNL     1       5.924   7.398  34.697  0.00  0.00    -0.343 OA
ATOM     38  C   UNL     1       7.278   7.878  34.505  0.00  0.00    +0.198 C 
ENDBRANCH  25  37
BRANCH  27  39
ATOM     39  O   UNL     1       8.582   3.709  36.365  0.00  0.00    -0.390 OA
ATOM     40  H   UNL     1       8.694   3.849  37.309  0.00  0.00    +0.210 HD
ENDBRANCH  27  39
ENDBRANCH  22  23
BRANCH  22  41
ATOM     41  O   UNL     1       5.972   3.079  31.967  0.00  0.00    -0.387 OA
ATOM     42  H   UNL     1       6.268   3.981  31.830  0.00  0.00    +0.210 HD
ENDBRANCH  22  41
ENDBRANCH   1  22
TORSDOF 15
