REMARK VINA RESULT:    -5.950      0.000      0.000
REMARK INTER + INTRA:         -13.629
REMARK INTER:                 -11.013
REMARK INTRA:                  -2.617
REMARK UNBOUND:                -2.810
REMARK  Name = lig_assembled_53.pdb
REMARK  18 active torsions:
REMARK  status: ('A' for Active; 'I' for Inactive)
REMARK    1  A    between atoms: _2  and  _9
REMARK    2  A    between atoms: _4  and  _16
REMARK    3  A    between atoms: _5  and  _9
REMARK    4  A    between atoms: _5  and  _10
REMARK    5  A    between atoms: _6  and  _7
REMARK    6  A    between atoms: _6  and  _16
REMARK    7  A    between atoms: _12  and  _32
REMARK    8  A    between atoms: _14  and  _20
REMARK    9  A    between atoms: _15  and  _19
REMARK   10  A    between atoms: _19  and  _20
REMARK   11  A    between atoms: _22  and  _23
REMARK   12  A    between atoms: _24  and  _25
REMARK   13  A    between atoms: _26  and  _28
REMARK   14  A    between atoms: _28  and  _29
REMARK   15  A    between atoms: _28  and  _30
REMARK   16  A    between atoms: _30  and  _31
REMARK   17  A    between atoms: _30  and  _32
REMARK   18  A    between atoms: _33  and  _35
REMARK                            x       y       z     vdW  Elec       q    Type
REMARK                         _______ _______ _______ _____ _____    ______ ____
ROOT
ATOM      1  C   UNL     1      18.272   3.251  23.734  0.00  0.00    +0.175 C 
ENDROOT
BRANCH   1   2
ATOM      2  C   UNL     1      18.357   4.111  25.004  0.00  0.00    +0.176 C 
ATOM      3  O   UNL     1      19.612   4.843  24.965  0.00  0.00    -0.332 OA
ATOM      4  C   UNL     1      19.820   5.804  26.053  0.00  0.00    +0.277 C 
ATOM      5  C   UNL     1      19.664   5.107  27.427  0.00  0.00    +0.110 C 
ATOM      6  C   UNL     1      18.357   4.289  27.505  0.00  0.00    +0.143 C 
ATOM      7  C   UNL     1      18.242   3.325  26.324  0.00  0.00    +0.133 C 
BRANCH   7   8
ATOM      8  N   UNL     1      16.954   2.615  26.362  0.00  0.00    -0.308 N 
ATOM      9  H   UNL     1      16.113   3.156  26.221  0.00  0.00    +0.149 HD
ATOM     10  C   UNL     1      16.825   1.302  26.572  0.00  0.00    +0.210 C 
ATOM     11  C   UNL     1      18.124   0.510  26.809  0.00  0.00    +0.109 C 
ATOM     12  O   UNL     1      15.733   0.731  26.584  0.00  0.00    -0.276 OA
ENDBRANCH   7   8
BRANCH   4  13
ATOM     13  C   UNL     1      18.818   6.972  25.950  0.00  0.00    +0.414 C 
ATOM     14  O   UNL     1      18.770   7.827  26.833  0.00  0.00    -0.240 OA
ATOM     15  O   UNL     1      18.059   7.061  24.984  0.00  0.00    -0.240 OA
ENDBRANCH   4  13
BRANCH   4  16
ATOM     16  O   UNL     1      21.175   6.312  25.949  0.00  0.00    -0.343 OA
ATOM     17  C   UNL     1      21.886   5.921  24.747  0.00  0.00    +0.198 C 
ENDBRANCH   4  16
BRANCH   6  18
ATOM     18  O   UNL     1      18.327   3.546  28.724  0.00  0.00    -0.390 OA
ATOM     19  H   UNL     1      18.168   2.619  28.530  0.00  0.00    +0.210 HD
ENDBRANCH   6  18
ENDBRANCH   1   2
BRANCH   1  20
ATOM     20  O   UNL     1      19.574   2.731  23.398  0.00  0.00    -0.387 OA
ATOM     21  H   UNL     1      19.544   1.772  23.392  0.00  0.00    +0.210 HD
ENDBRANCH   1  20
BRANCH   1  22
ATOM     22  C   UNL     1      17.689   4.032  22.544  0.00  0.00    +0.163 C 
BRANCH  22  23
ATOM     23  O   UNL     1      17.032   5.231  22.988  0.00  0.00    -0.388 OA
ATOM     24  H   UNL     1      17.143   5.920  22.328  0.00  0.00    +0.210 HD
ENDBRANCH  22  23
BRANCH  22  25
ATOM     25  C   UNL     1      16.704   3.147  21.787  0.00  0.00    +0.141 C 
BRANCH  25  28
ATOM     26  C   UNL     1      17.946   1.337  20.652  0.00  0.00    +0.401 C 
ATOM     27  O   UNL     1      18.305   2.047  19.709  0.00  0.00    -0.226 OA
ATOM     28  N   UNL     1      17.191   1.768  21.664  0.00  0.00    -0.279 N 
ATOM     29  H   UNL     1      16.940   1.108  22.386  0.00  0.00    +0.152 HD
BRANCH  26  30
ATOM     30  O   UNL     1      18.348  -0.035  20.681  0.00  0.00    -0.444 OA
BRANCH  30  31
ATOM     31  C   UNL     1      18.895  -0.345  21.965  0.00  0.00    +0.292 C 
BRANCH  31  33
ATOM     32  N   UNL     1      18.115  -2.661  22.370  0.00  0.00    -0.131 NA
ATOM     33  C   UNL     1      18.045  -1.326  22.665  0.00  0.00    +0.120 A 
ATOM     34  C   UNL     1      17.106  -1.133  23.653  0.00  0.00    +0.137 A 
ATOM     35  N   UNL     1      16.592  -2.375  23.872  0.00  0.00    -0.241 N 
ATOM     36  N   UNL     1      17.236  -3.298  23.130  0.00  0.00    -0.065 NA
BRANCH  35  37
ATOM     37  C   UNL     1      15.624  -2.830  24.849  0.00  0.00    +0.265 C 
BRANCH  37  38
ATOM     38  C   UNL     1      16.142  -2.962  26.256  0.00  0.00    +0.326 C 
ATOM     39  O   UNL     1      16.957  -3.777  26.661  0.00  0.00    -0.249 OA
BRANCH  38  40
ATOM     40  O   UNL     1      15.586  -2.054  27.102  0.00  0.00    -0.479 OA
ATOM     41  H   UNL     1      16.020  -1.180  27.134  0.00  0.00    +0.295 HD
ENDBRANCH  38  40
ENDBRANCH  37  38
ENDBRANCH  35  37
ENDBRANCH  31  33
ENDBRANCH  30  31
ENDBRANCH  26  30
ENDBRANCH  25  28
ENDBRANCH  22  25
ENDBRANCH   1  22
TORSDOF 16
