REMARK VINA RESULT:    -6.473      0.000      0.000
REMARK INTER + INTRA:         -13.771
REMARK INTER:                 -11.678
REMARK INTRA:                  -2.093
REMARK UNBOUND:                -2.568
REMARK  Name = lig_assembled_27.pdb
REMARK  16 active torsions:
REMARK  status: ('A' for Active; 'I' for Inactive)
REMARK    1  A    between atoms: _2  and  _9
REMARK    2  A    between atoms: _4  and  _18
REMARK    3  A    between atoms: _6  and  _7
REMARK    4  A    between atoms: _6  and  _18
REMARK    5  A    between atoms: _14  and  _34
REMARK    6  A    between atoms: _16  and  _22
REMARK    7  A    between atoms: _17  and  _21
REMARK    8  A    between atoms: _21  and  _22
REMARK    9  A    between atoms: _24  and  _25
REMARK   10  A    between atoms: _26  and  _27
REMARK   11  A    between atoms: _28  and  _30
REMARK   12  A    between atoms: _30  and  _31
REMARK   13  A    between atoms: _30  and  _32
REMARK   14  A    between atoms: _32  and  _33
REMARK   15  A    between atoms: _32  and  _34
REMARK   16  A    between atoms: _35  and  _37
REMARK                            x       y       z     vdW  Elec       q    Type
REMARK                         _______ _______ _______ _____ _____    ______ ____
ROOT
ATOM      1  C   UNL     1       7.826   2.366  34.199  0.00  0.00    +0.163 C 
ENDROOT
BRANCH   1   2
ATOM      2  O   UNL     1       8.454   2.629  35.465  0.00  0.00    -0.388 OA
ATOM      3  H   UNL     1       9.389   2.800  35.329  0.00  0.00    +0.210 HD
ENDBRANCH   1   2
BRANCH   1   4
ATOM      4  C   UNL     1       8.564   1.245  33.474  0.00  0.00    +0.141 C 
BRANCH   4   7
ATOM      5  C   UNL     1       7.034  -0.693  33.570  0.00  0.00    +0.401 C 
ATOM      6  O   UNL     1       7.201  -0.884  34.777  0.00  0.00    -0.226 OA
ATOM      7  N   UNL     1       7.636   0.275  32.879  0.00  0.00    -0.279 N 
ATOM      8  H   UNL     1       7.443   0.346  31.889  0.00  0.00    +0.152 HD
BRANCH   5   9
ATOM      9  O   UNL     1       6.150  -1.553  32.846  0.00  0.00    -0.444 OA
BRANCH   9  10
ATOM     10  C   UNL     1       5.545  -0.824  31.775  0.00  0.00    +0.292 C 
BRANCH  10  12
ATOM     11  N   UNL     1       7.370  -1.746  30.380  0.00  0.00    -0.131 NA
ATOM     12  C   UNL     1       6.097  -1.262  30.480  0.00  0.00    +0.121 A 
ATOM     13  C   UNL     1       5.512  -1.279  29.235  0.00  0.00    +0.143 A 
ATOM     14  N   UNL     1       6.472  -1.796  28.396  0.00  0.00    -0.220 N 
ATOM     15  N   UNL     1       7.591  -2.067  29.112  0.00  0.00    -0.060 NA
BRANCH  14  16
ATOM     16  C   UNL     1       6.395  -2.041  27.001  0.00  0.00    +0.068 A 
ATOM     17  C   UNL     1       7.543  -2.443  26.300  0.00  0.00    +0.028 A 
ATOM     18  C   UNL     1       7.480  -2.684  24.925  0.00  0.00    +0.003 A 
ATOM     19  C   UNL     1       6.275  -2.525  24.242  0.00  0.00    +0.020 A 
ATOM     20  C   UNL     1       5.135  -2.128  24.936  0.00  0.00    +0.043 A 
ATOM     21 CL   UNL     1       3.647  -1.933  24.093  0.00  0.00    -0.083 Cl
ATOM     22  C   UNL     1       5.184  -1.885  26.310  0.00  0.00    +0.047 A 
ENDBRANCH  14  16
ENDBRANCH  10  12
ENDBRANCH   9  10
ENDBRANCH   5   9
ENDBRANCH   4   7
ENDBRANCH   1   4
BRANCH   1  23
ATOM     23  C   UNL     1       7.814   3.627  33.318  0.00  0.00    +0.175 C 
BRANCH  23  24
ATOM     24  C   UNL     1       6.966   4.751  33.930  0.00  0.00    +0.176 C 
ATOM     25  O   UNL     1       7.705   5.311  35.050  0.00  0.00    -0.332 OA
ATOM     26  C   UNL     1       7.092   6.475  35.696  0.00  0.00    +0.277 C 
ATOM     27  C   UNL     1       5.643   6.149  36.136  0.00  0.00    +0.110 C 
ATOM     28  C   UNL     1       4.827   5.522  34.987  0.00  0.00    +0.143 C 
ATOM     29  C   UNL     1       5.559   4.321  34.385  0.00  0.00    +0.133 C 
BRANCH  29  30
ATOM     30  N   UNL     1       4.812   3.786  33.236  0.00  0.00    -0.308 N 
ATOM     31  H   UNL     1       4.750   4.359  32.406  0.00  0.00    +0.149 HD
ATOM     32  C   UNL     1       4.212   2.593  33.218  0.00  0.00    +0.210 C 
ATOM     33  C   UNL     1       4.302   1.756  34.508  0.00  0.00    +0.109 C 
ATOM     34  O   UNL     1       3.606   2.164  32.235  0.00  0.00    -0.276 OA
ENDBRANCH  29  30
BRANCH  26  35
ATOM     35  C   UNL     1       7.080   7.688  34.742  0.00  0.00    +0.414 C 
ATOM     36  O   UNL     1       8.138   8.197  34.373  0.00  0.00    -0.240 OA
ATOM     37  O   UNL     1       6.014   8.157  34.341  0.00  0.00    -0.240 OA
ENDBRANCH  26  35
BRANCH  28  38
ATOM     38  O   UNL     1       3.553   5.100  35.476  0.00  0.00    -0.390 OA
ATOM     39  H   UNL     1       3.031   5.868  35.717  0.00  0.00    +0.210 HD
ENDBRANCH  28  38
BRANCH  26  40
ATOM     40  O   UNL     1       7.869   6.793  36.880  0.00  0.00    -0.343 OA
ATOM     41  C   UNL     1       9.083   6.017  37.041  0.00  0.00    +0.198 C 
ENDBRANCH  26  40
ENDBRANCH  23  24
BRANCH  23  42
ATOM     42  O   UNL     1       7.335   3.306  31.997  0.00  0.00    -0.387 OA
ATOM     43  H   UNL     1       6.502   2.833  32.065  0.00  0.00    +0.210 HD
ENDBRANCH  23  42
ENDBRANCH   1  23
TORSDOF 14
