REMARK VINA RESULT:    -7.603      0.000      0.000
REMARK INTER + INTRA:         -14.988
REMARK INTER:                 -13.074
REMARK INTRA:                  -1.914
REMARK UNBOUND:                -1.828
REMARK  Name = lig_assembled_70.pdb
REMARK  16 active torsions:
REMARK  status: ('A' for Active; 'I' for Inactive)
REMARK    1  A    between atoms: _2  and  _10
REMARK    2  A    between atoms: _5  and  _22
REMARK    3  A    between atoms: _7  and  _8
REMARK    4  A    between atoms: _7  and  _22
REMARK    5  A    between atoms: _18  and  _38
REMARK    6  A    between atoms: _20  and  _26
REMARK    7  A    between atoms: _21  and  _25
REMARK    8  A    between atoms: _25  and  _26
REMARK    9  A    between atoms: _28  and  _29
REMARK   10  A    between atoms: _30  and  _31
REMARK   11  A    between atoms: _32  and  _34
REMARK   12  A    between atoms: _34  and  _35
REMARK   13  A    between atoms: _34  and  _36
REMARK   14  A    between atoms: _36  and  _37
REMARK   15  A    between atoms: _36  and  _38
REMARK   16  A    between atoms: _39  and  _41
REMARK                            x       y       z     vdW  Elec       q    Type
REMARK                         _______ _______ _______ _____ _____    ______ ____
ROOT
ATOM      1  C   UNL     1       4.157   3.682  32.505  0.00  0.00    +0.163 C 
ENDROOT
BRANCH   1   2
ATOM      2  O   UNL     1       3.572   4.258  33.685  0.00  0.00    -0.388 OA
ATOM      3  H   UNL     1       3.367   3.562  34.314  0.00  0.00    +0.210 HD
ENDBRANCH   1   2
BRANCH   1   4
ATOM      4  C   UNL     1       3.207   2.651  31.903  0.00  0.00    +0.141 C 
BRANCH   4   7
ATOM      5  C   UNL     1       1.182   3.870  31.185  0.00  0.00    +0.401 C 
ATOM      6  O   UNL     1       0.743   4.005  32.330  0.00  0.00    -0.226 OA
ATOM      7  N   UNL     1       2.323   3.245  30.893  0.00  0.00    -0.279 N 
ATOM      8  H   UNL     1       2.595   3.177  29.923  0.00  0.00    +0.152 HD
BRANCH   5   9
ATOM      9  O   UNL     1       0.436   4.404  30.088  0.00  0.00    -0.444 OA
BRANCH   9  10
ATOM     10  C   UNL     1       0.124   3.356  29.167  0.00  0.00    +0.292 C 
BRANCH  10  12
ATOM     11  N   UNL     1       2.209   3.659  27.861  0.00  0.00    -0.131 NA
ATOM     12  C   UNL     1       0.848   3.552  27.897  0.00  0.00    +0.121 A 
ATOM     13  C   UNL     1       0.357   3.655  26.618  0.00  0.00    +0.143 A 
ATOM     14  N   UNL     1       1.467   3.813  25.821  0.00  0.00    -0.218 N 
ATOM     15  N   UNL     1       2.576   3.825  26.596  0.00  0.00    -0.060 NA
BRANCH  14  16
ATOM     16  C   UNL     1       1.528   3.926  24.416  0.00  0.00    +0.086 A 
ATOM     17  C   UNL     1       1.519   5.171  23.810  0.00  0.00    +0.139 A 
ATOM     18  N   UNL     1       1.621   5.353  22.468  0.00  0.00    -0.253 NA
ATOM     19  C   UNL     1       1.746   4.267  21.684  0.00  0.00    +0.071 A 
ATOM     20  C   UNL     1       1.749   2.959  22.211  0.00  0.00    +0.002 A 
ATOM     21  C   UNL     1       1.882   1.846  21.361  0.00  0.00    +0.010 A 
ATOM     22  C   UNL     1       2.034   2.026  19.989  0.00  0.00    +0.001 A 
ATOM     23  C   UNL     1       2.042   3.312  19.464  0.00  0.00    +0.002 A 
ATOM     24  C   UNL     1       1.891   4.415  20.311  0.00  0.00    +0.028 A 
ATOM     25  C   UNL     1       1.628   2.800  23.597  0.00  0.00    +0.039 A 
ENDBRANCH  14  16
ENDBRANCH  10  12
ENDBRANCH   9  10
ENDBRANCH   5   9
ENDBRANCH   4   7
ENDBRANCH   1   4
BRANCH   1  26
ATOM     26  C   UNL     1       5.504   3.013  32.829  0.00  0.00    +0.175 C 
BRANCH  26  27
ATOM     27  C   UNL     1       6.076   3.488  34.172  0.00  0.00    +0.176 C 
ATOM     28  O   UNL     1       6.527   4.860  34.006  0.00  0.00    -0.332 OA
ATOM     29  C   UNL     1       7.011   5.520  35.223  0.00  0.00    +0.277 C 
ATOM     30  C   UNL     1       8.130   4.679  35.886  0.00  0.00    +0.110 C 
ATOM     31  C   UNL     1       7.709   3.204  36.054  0.00  0.00    +0.143 C 
ATOM     32  C   UNL     1       7.219   2.618  34.729  0.00  0.00    +0.133 C 
BRANCH  32  33
ATOM     33  N   UNL     1       6.740   1.240  34.921  0.00  0.00    -0.308 N 
ATOM     34  H   UNL     1       6.059   1.075  35.649  0.00  0.00    +0.149 HD
ATOM     35  C   UNL     1       7.145   0.195  34.195  0.00  0.00    +0.210 C 
ATOM     36  C   UNL     1       8.202   0.476  33.111  0.00  0.00    +0.109 C 
ATOM     37  O   UNL     1       6.715  -0.946  34.369  0.00  0.00    -0.276 OA
ENDBRANCH  32  33
BRANCH  29  38
ATOM     38  C   UNL     1       5.859   5.730  36.227  0.00  0.00    +0.414 C 
ATOM     39  O   UNL     1       6.010   5.437  37.413  0.00  0.00    -0.240 OA
ATOM     40  O   UNL     1       4.781   6.191  35.853  0.00  0.00    -0.240 OA
ENDBRANCH  29  38
BRANCH  31  41
ATOM     41  O   UNL     1       8.817   2.437  36.526  0.00  0.00    -0.390 OA
ATOM     42  H   UNL     1       9.062   2.736  37.405  0.00  0.00    +0.210 HD
ENDBRANCH  31  41
BRANCH  29  43
ATOM     43  O   UNL     1       7.569   6.805  34.844  0.00  0.00    -0.343 OA
ATOM     44  C   UNL     1       8.146   7.567  35.935  0.00  0.00    +0.198 C 
ENDBRANCH  29  43
ENDBRANCH  26  27
BRANCH  26  45
ATOM     45  O   UNL     1       6.449   3.262  31.770  0.00  0.00    -0.387 OA
ATOM     46  H   UNL     1       6.587   4.208  31.680  0.00  0.00    +0.210 HD
ENDBRANCH  26  45
ENDBRANCH   1  26
TORSDOF 14
