REMARK VINA RESULT:    -5.975      0.000      0.000
REMARK INTER + INTRA:         -14.578
REMARK INTER:                 -13.251
REMARK INTRA:                  -1.327
REMARK UNBOUND:                -3.888
REMARK  Name = lig_assembled_46.pdb
REMARK  17 active torsions:
REMARK  status: ('A' for Active; 'I' for Inactive)
REMARK    1  A    between atoms: _2  and  _9
REMARK    2  A    between atoms: _4  and  _19
REMARK    3  A    between atoms: _6  and  _7
REMARK    4  A    between atoms: _6  and  _19
REMARK    5  A    between atoms: _9  and  _10
REMARK    6  A    between atoms: _15  and  _35
REMARK    7  A    between atoms: _17  and  _23
REMARK    8  A    between atoms: _18  and  _22
REMARK    9  A    between atoms: _22  and  _23
REMARK   10  A    between atoms: _25  and  _26
REMARK   11  A    between atoms: _27  and  _28
REMARK   12  A    between atoms: _29  and  _31
REMARK   13  A    between atoms: _31  and  _32
REMARK   14  A    between atoms: _31  and  _33
REMARK   15  A    between atoms: _33  and  _34
REMARK   16  A    between atoms: _33  and  _35
REMARK   17  A    between atoms: _36  and  _38
REMARK                            x       y       z     vdW  Elec       q    Type
REMARK                         _______ _______ _______ _____ _____    ______ ____
ROOT
ATOM      1  C   UNL     1       3.663   3.626  32.504  0.00  0.00    +0.163 C 
ENDROOT
BRANCH   1   2
ATOM      2  O   UNL     1       2.833   4.008  33.614  0.00  0.00    -0.388 OA
ATOM      3  H   UNL     1       2.203   4.675  33.329  0.00  0.00    +0.210 HD
ENDBRANCH   1   2
BRANCH   1   4
ATOM      4  C   UNL     1       2.939   2.598  31.642  0.00  0.00    +0.141 C 
BRANCH   4   7
ATOM      5  C   UNL     1       1.707   3.234  29.596  0.00  0.00    +0.401 C 
ATOM      6  O   UNL     1       0.595   3.087  30.107  0.00  0.00    -0.226 OA
ATOM      7  N   UNL     1       2.856   3.021  30.238  0.00  0.00    -0.279 N 
ATOM      8  H   UNL     1       3.719   3.158  29.731  0.00  0.00    +0.152 HD
BRANCH   5   9
ATOM      9  O   UNL     1       1.795   3.652  28.232  0.00  0.00    -0.444 OA
BRANCH   9  10
ATOM     10  C   UNL     1       0.519   3.505  27.604  0.00  0.00    +0.292 C 
BRANCH  10  12
ATOM     11  N   UNL     1      -0.357   5.090  25.916  0.00  0.00    -0.131 NA
ATOM     12  C   UNL     1       0.535   4.110  26.258  0.00  0.00    +0.120 A 
ATOM     13  C   UNL     1       1.380   3.879  25.194  0.00  0.00    +0.137 A 
ATOM     14  N   UNL     1       0.989   4.790  24.256  0.00  0.00    -0.247 N 
ATOM     15  N   UNL     1      -0.066   5.508  24.689  0.00  0.00    -0.065 NA
BRANCH  14  16
ATOM     16  C   UNL     1       1.709   5.198  23.062  0.00  0.00    +0.180 C 
BRANCH  16  17
ATOM     17  C   UNL     1       1.799   4.122  22.009  0.00  0.00    -0.026 A 
ATOM     18  C   UNL     1       1.819   2.764  22.365  0.00  0.00    +0.005 A 
ATOM     19  C   UNL     1       1.804   1.773  21.379  0.00  0.00    +0.000 A 
ATOM     20  C   UNL     1       1.767   2.126  20.033  0.00  0.00    +0.000 A 
ATOM     21  C   UNL     1       1.755   3.470  19.666  0.00  0.00    +0.000 A 
ATOM     22  C   UNL     1       1.770   4.463  20.648  0.00  0.00    +0.005 A 
ENDBRANCH  16  17
ENDBRANCH  14  16
ENDBRANCH  10  12
ENDBRANCH   9  10
ENDBRANCH   5   9
ENDBRANCH   4   7
ENDBRANCH   1   4
BRANCH   1  23
ATOM     23  C   UNL     1       4.998   3.039  32.992  0.00  0.00    +0.175 C 
BRANCH  23  24
ATOM     24  C   UNL     1       5.496   3.723  34.274  0.00  0.00    +0.176 C 
ATOM     25  O   UNL     1       5.472   5.160  34.053  0.00  0.00    -0.332 OA
ATOM     26  C   UNL     1       5.817   5.985  35.215  0.00  0.00    +0.277 C 
ATOM     27  C   UNL     1       7.194   5.567  35.786  0.00  0.00    +0.110 C 
ATOM     28  C   UNL     1       7.279   4.042  36.008  0.00  0.00    +0.143 C 
ATOM     29  C   UNL     1       6.896   3.281  34.738  0.00  0.00    +0.133 C 
BRANCH  29  30
ATOM     30  N   UNL     1       6.897   1.830  34.987  0.00  0.00    -0.308 N 
ATOM     31  H   UNL     1       6.238   1.467  35.661  0.00  0.00    +0.149 HD
ATOM     32  C   UNL     1       7.711   0.963  34.380  0.00  0.00    +0.210 C 
ATOM     33  C   UNL     1       8.721   1.551  33.377  0.00  0.00    +0.109 C 
ATOM     34  O   UNL     1       7.679  -0.249  34.597  0.00  0.00    -0.276 OA
ENDBRANCH  29  30
BRANCH  26  35
ATOM     35  C   UNL     1       4.742   5.859  36.314  0.00  0.00    +0.414 C 
ATOM     36  O   UNL     1       3.580   5.588  36.017  0.00  0.00    -0.240 OA
ATOM     37  O   UNL     1       5.038   6.028  37.498  0.00  0.00    -0.240 OA
ENDBRANCH  26  35
BRANCH  26  38
ATOM     38  O   UNL     1       5.905   7.365  34.774  0.00  0.00    -0.343 OA
ATOM     39  C   UNL     1       7.236   7.806  34.405  0.00  0.00    +0.198 C 
ENDBRANCH  26  38
BRANCH  28  40
ATOM     40  O   UNL     1       8.607   3.684  36.389  0.00  0.00    -0.390 OA
ATOM     41  H   UNL     1       9.203   4.412  36.199  0.00  0.00    +0.210 HD
ENDBRANCH  28  40
ENDBRANCH  23  24
BRANCH  23  42
ATOM     42  O   UNL     1       5.995   3.143  31.955  0.00  0.00    -0.387 OA
ATOM     43  H   UNL     1       6.843   3.364  32.347  0.00  0.00    +0.210 HD
ENDBRANCH  23  42
ENDBRANCH   1  23
TORSDOF 15
