REMARK VINA RESULT:    -6.781      0.000      0.000
REMARK INTER + INTRA:         -14.459
REMARK INTER:                 -12.317
REMARK INTRA:                  -2.141
REMARK UNBOUND:                -2.722
REMARK  Name = lig_assembled_3.pdb
REMARK  16 active torsions:
REMARK  status: ('A' for Active; 'I' for Inactive)
REMARK    1  A    between atoms: _2  and  _9
REMARK    2  A    between atoms: _4  and  _18
REMARK    3  A    between atoms: _6  and  _7
REMARK    4  A    between atoms: _6  and  _18
REMARK    5  A    between atoms: _14  and  _34
REMARK    6  A    between atoms: _16  and  _22
REMARK    7  A    between atoms: _17  and  _21
REMARK    8  A    between atoms: _21  and  _22
REMARK    9  A    between atoms: _24  and  _25
REMARK   10  A    between atoms: _26  and  _27
REMARK   11  A    between atoms: _28  and  _30
REMARK   12  A    between atoms: _30  and  _31
REMARK   13  A    between atoms: _30  and  _32
REMARK   14  A    between atoms: _32  and  _33
REMARK   15  A    between atoms: _32  and  _34
REMARK   16  A    between atoms: _35  and  _37
REMARK                            x       y       z     vdW  Elec       q    Type
REMARK                         _______ _______ _______ _____ _____    ______ ____
ROOT
ATOM      1  C   UNL     1       3.856   3.648  32.508  0.00  0.00    +0.163 C 
ENDROOT
BRANCH   1   2
ATOM      2  O   UNL     1       2.963   4.021  33.571  0.00  0.00    -0.388 OA
ATOM      3  H   UNL     1       2.058   4.001  33.251  0.00  0.00    +0.210 HD
ENDBRANCH   1   2
BRANCH   1   4
ATOM      4  C   UNL     1       3.188   2.618  31.603  0.00  0.00    +0.141 C 
BRANCH   4   7
ATOM      5  C   UNL     1       1.100   3.627  30.748  0.00  0.00    +0.401 C 
ATOM      6  O   UNL     1       0.482   3.470  31.804  0.00  0.00    -0.226 OA
ATOM      7  N   UNL     1       2.367   3.252  30.564  0.00  0.00    -0.279 N 
ATOM      8  H   UNL     1       2.785   3.415  29.659  0.00  0.00    +0.152 HD
BRANCH   5   9
ATOM      9  O   UNL     1       0.438   4.241  29.640  0.00  0.00    -0.444 OA
BRANCH   9  10
ATOM     10  C   UNL     1       0.102   3.244  28.672  0.00  0.00    +0.292 C 
BRANCH  10  12
ATOM     11  N   UNL     1       2.189   3.677  27.417  0.00  0.00    -0.131 NA
ATOM     12  C   UNL     1       0.839   3.479  27.415  0.00  0.00    +0.121 A 
ATOM     13  C   UNL     1       0.377   3.534  26.121  0.00  0.00    +0.143 A 
ATOM     14  N   UNL     1       1.498   3.743  25.350  0.00  0.00    -0.220 N 
ATOM     15  N   UNL     1       2.582   3.842  26.161  0.00  0.00    -0.060 NA
BRANCH  14  16
ATOM     16  C   UNL     1       1.602   3.832  23.938  0.00  0.00    +0.067 A 
ATOM     17  C   UNL     1       1.746   2.680  23.152  0.00  0.00    +0.028 A 
ATOM     18  C   UNL     1       1.877   2.791  21.766  0.00  0.00    +0.002 A 
ATOM     19  C   UNL     1       1.863   4.044  21.158  0.00  0.00    +0.000 A 
ATOM     20  C   UNL     1       1.711   5.193  21.932  0.00  0.00    +0.002 A 
ATOM     21  C   UNL     1       1.579   5.091  23.319  0.00  0.00    +0.028 A 
ENDBRANCH  14  16
ENDBRANCH  10  12
ENDBRANCH   9  10
ENDBRANCH   5   9
ENDBRANCH   4   7
ENDBRANCH   1   4
BRANCH   1  22
ATOM     22  C   UNL     1       5.166   3.067  33.068  0.00  0.00    +0.175 C 
BRANCH  22  23
ATOM     23  C   UNL     1       5.616   3.786  34.348  0.00  0.00    +0.176 C 
ATOM     24  O   UNL     1       5.607   5.216  34.085  0.00  0.00    -0.332 OA
ATOM     25  C   UNL     1       5.910   6.075  35.234  0.00  0.00    +0.277 C 
ATOM     26  C   UNL     1       7.262   5.669  35.871  0.00  0.00    +0.110 C 
ATOM     27  C   UNL     1       7.331   4.151  36.140  0.00  0.00    +0.143 C 
ATOM     28  C   UNL     1       6.995   3.354  34.879  0.00  0.00    +0.133 C 
BRANCH  28  29
ATOM     29  N   UNL     1       6.979   1.911  35.170  0.00  0.00    -0.308 N 
ATOM     30  H   UNL     1       6.272   1.566  35.804  0.00  0.00    +0.149 HD
ATOM     31  C   UNL     1       7.838   1.029  34.652  0.00  0.00    +0.210 C 
ATOM     32  C   UNL     1       8.920   1.591  33.710  0.00  0.00    +0.109 C 
ATOM     33  O   UNL     1       7.792  -0.176  34.902  0.00  0.00    -0.276 OA
ENDBRANCH  28  29
BRANCH  25  34
ATOM     34  C   UNL     1       4.793   5.984  36.294  0.00  0.00    +0.414 C 
ATOM     35  O   UNL     1       5.027   6.270  37.467  0.00  0.00    -0.240 OA
ATOM     36  O   UNL     1       3.658   5.627  35.976  0.00  0.00    -0.240 OA
ENDBRANCH  25  34
BRANCH  27  37
ATOM     37  O   UNL     1       8.642   3.799  36.584  0.00  0.00    -0.390 OA
ATOM     38  H   UNL     1       8.721   3.977  37.524  0.00  0.00    +0.210 HD
ENDBRANCH  27  37
BRANCH  25  39
ATOM     39  O   UNL     1       6.021   7.440  34.757  0.00  0.00    -0.343 OA
ATOM     40  C   UNL     1       7.378   7.908  34.550  0.00  0.00    +0.198 C 
ENDBRANCH  25  39
ENDBRANCH  22  23
BRANCH  22  41
ATOM     41  O   UNL     1       6.204   3.132  32.070  0.00  0.00    -0.387 OA
ATOM     42  H   UNL     1       6.380   2.251  31.733  0.00  0.00    +0.210 HD
ENDBRANCH  22  41
ENDBRANCH   1  22
TORSDOF 14
