REMARK VINA RESULT:    -6.997      0.000      0.000
REMARK INTER + INTRA:         -15.115
REMARK INTER:                 -13.540
REMARK INTRA:                  -1.575
REMARK UNBOUND:                -2.597
REMARK  Name = lig_assembled_89.pdb
REMARK  19 active torsions:
REMARK  status: ('A' for Active; 'I' for Inactive)
REMARK    1  A    between atoms: _2  and  _12
REMARK    2  A    between atoms: _5  and  _20
REMARK    3  A    between atoms: _7  and  _29
REMARK    4  A    between atoms: _9  and  _10
REMARK    5  A    between atoms: _9  and  _29
REMARK    6  A    between atoms: _20  and  _21
REMARK    7  A    between atoms: _20  and  _22
REMARK    8  A    between atoms: _25  and  _45
REMARK    9  A    between atoms: _27  and  _33
REMARK   10  A    between atoms: _28  and  _32
REMARK   11  A    between atoms: _32  and  _33
REMARK   12  A    between atoms: _35  and  _36
REMARK   13  A    between atoms: _37  and  _38
REMARK   14  A    between atoms: _39  and  _41
REMARK   15  A    between atoms: _41  and  _42
REMARK   16  A    between atoms: _41  and  _43
REMARK   17  A    between atoms: _43  and  _44
REMARK   18  A    between atoms: _43  and  _45
REMARK   19  A    between atoms: _46  and  _48
REMARK                            x       y       z     vdW  Elec       q    Type
REMARK                         _______ _______ _______ _____ _____    ______ ____
ROOT
ATOM      1  C   UNL     1       2.286   1.820  31.148  0.00  0.00    +0.401 C 
ATOM      2  O   UNL     1       1.778   1.870  32.271  0.00  0.00    -0.226 OA
ATOM      3  N   UNL     1       3.598   1.733  30.927  0.00  0.00    -0.279 N 
ATOM      4  H   UNL     1       3.919   1.688  29.970  0.00  0.00    +0.152 HD
ENDROOT
BRANCH   3   5
ATOM      5  C   UNL     1       4.604   1.699  31.996  0.00  0.00    +0.141 C 
BRANCH   5   6
ATOM      6  C   UNL     1       5.032   3.101  32.418  0.00  0.00    +0.163 C 
BRANCH   6   7
ATOM      7  O   UNL     1       4.060   3.662  33.317  0.00  0.00    -0.388 OA
ATOM      8  H   UNL     1       3.806   4.535  33.010  0.00  0.00    +0.210 HD
ENDBRANCH   6   7
BRANCH   6   9
ATOM      9  C   UNL     1       6.419   3.037  33.079  0.00  0.00    +0.175 C 
BRANCH   9  10
ATOM     10  C   UNL     1       6.475   3.844  34.385  0.00  0.00    +0.176 C 
ATOM     11  O   UNL     1       6.294   5.248  34.051  0.00  0.00    -0.332 OA
ATOM     12  C   UNL     1       6.213   6.166  35.191  0.00  0.00    +0.277 C 
ATOM     13  C   UNL     1       7.451   6.001  36.107  0.00  0.00    +0.110 C 
ATOM     14  C   UNL     1       7.703   4.521  36.463  0.00  0.00    +0.143 C 
ATOM     15  C   UNL     1       7.766   3.656  35.204  0.00  0.00    +0.133 C 
BRANCH  15  16
ATOM     16  N   UNL     1       7.919   2.237  35.560  0.00  0.00    -0.308 N 
ATOM     17  H   UNL     1       7.142   1.778  36.013  0.00  0.00    +0.149 HD
ATOM     18  C   UNL     1       9.019   1.516  35.324  0.00  0.00    +0.210 C 
ATOM     19  C   UNL     1      10.196   2.252  34.656  0.00  0.00    +0.109 C 
ATOM     20  O   UNL     1       9.114   0.325  35.620  0.00  0.00    -0.276 OA
ENDBRANCH  15  16
BRANCH  12  21
ATOM     21  C   UNL     1       4.930   5.910  36.009  0.00  0.00    +0.414 C 
ATOM     22  O   UNL     1       4.892   6.188  37.207  0.00  0.00    -0.240 OA
ATOM     23  O   UNL     1       3.933   5.428  35.470  0.00  0.00    -0.240 OA
ENDBRANCH  12  21
BRANCH  14  24
ATOM     24  O   UNL     1       8.933   4.400  37.179  0.00  0.00    -0.390 OA
ATOM     25  H   UNL     1       8.924   3.594  37.699  0.00  0.00    +0.210 HD
ENDBRANCH  14  24
BRANCH  12  26
ATOM     26  O   UNL     1       6.202   7.522  34.676  0.00  0.00    -0.343 OA
ATOM     27  C   UNL     1       7.501   8.164  34.615  0.00  0.00    +0.198 C 
ENDBRANCH  12  26
ENDBRANCH   9  10
BRANCH   9  28
ATOM     28  O   UNL     1       7.428   3.506  32.162  0.00  0.00    -0.387 OA
ATOM     29  H   UNL     1       7.009   3.983  31.442  0.00  0.00    +0.210 HD
ENDBRANCH   9  28
ENDBRANCH   6   9
ENDBRANCH   5   6
ENDBRANCH   3   5
BRANCH   1  30
ATOM     30  O   UNL     1       1.436   1.852  29.999  0.00  0.00    -0.444 OA
BRANCH  30  31
ATOM     31  C   UNL     1       0.685   3.069  29.993  0.00  0.00    +0.292 C 
BRANCH  31  33
ATOM     32  N   UNL     1      -0.722   4.183  28.304  0.00  0.00    -0.131 NA
ATOM     33  C   UNL     1       0.413   3.493  28.609  0.00  0.00    +0.121 A 
ATOM     34  C   UNL     1       1.159   3.330  27.467  0.00  0.00    +0.145 A 
ATOM     35  N   UNL     1       0.444   3.969  26.472  0.00  0.00    -0.199 N 
ATOM     36  N   UNL     1      -0.691   4.474  27.010  0.00  0.00    -0.059 NA
BRANCH  35  37
ATOM     37  C   UNL     1       0.875   4.156  25.126  0.00  0.00    +0.186 A 
ATOM     38  C   UNL     1       1.116   3.223  24.139  0.00  0.00    +0.158 A 
ATOM     39  C   UNL     1       1.152   1.792  24.131  0.00  0.00    +0.280 A 
ATOM     40  O   UNL     1       1.296   1.134  25.153  0.00  0.00    -0.265 OA
ATOM     41  N   UNL     1       1.041   1.196  22.859  0.00  0.00    -0.302 N 
ATOM     42  C   UNL     1       1.345   1.960  21.669  0.00  0.00    +0.069 A 
ATOM     43  C   UNL     1       1.524   1.366  20.412  0.00  0.00    +0.028 A 
ATOM     44  C   UNL     1       1.868   2.132  19.289  0.00  0.00    +0.002 A 
ATOM     45  C   UNL     1       2.030   3.508  19.395  0.00  0.00    +0.002 A 
ATOM     46  C   UNL     1       1.847   4.133  20.625  0.00  0.00    +0.028 A 
ATOM     47  C   UNL     1       1.517   3.360  21.748  0.00  0.00    +0.072 A 
ATOM     48  N   UNL     1       1.334   3.958  23.005  0.00  0.00    -0.291 N 
ATOM     49  C   UNL     1       1.329   5.280  23.367  0.00  0.00    +0.207 A 
ATOM     50  N   UNL     1       1.043   5.440  24.642  0.00  0.00    -0.216 NA
BRANCH  41  51
ATOM     51  C   UNL     1       0.814  -0.267  22.796  0.00  0.00    +0.085 C 
ATOM     52  C   UNL     1      -0.509  -0.717  23.446  0.00  0.00    +0.030 C 
ATOM     53  C   UNL     1       1.989  -1.050  23.380  0.00  0.00    +0.030 C 
ENDBRANCH  41  51
ENDBRANCH  35  37
ENDBRANCH  31  33
ENDBRANCH  30  31
ENDBRANCH   1  30
TORSDOF 15
