REMARK VINA RESULT:    -6.890      0.000      0.000
REMARK INTER + INTRA:         -15.827
REMARK INTER:                 -13.434
REMARK INTRA:                  -2.392
REMARK UNBOUND:                -2.090
REMARK  Name = lig_assembled_76.pdb
REMARK  21 active torsions:
REMARK  status: ('A' for Active; 'I' for Inactive)
REMARK    1  A    between atoms: _2  and  _9
REMARK    2  A    between atoms: _4  and  _23
REMARK    3  A    between atoms: _6  and  _7
REMARK    4  A    between atoms: _6  and  _23
REMARK    5  A    between atoms: _9  and  _10
REMARK    6  A    between atoms: _10  and  _11
REMARK    7  A    between atoms: _10  and  _18
REMARK    8  A    between atoms: _11  and  _12
REMARK    9  A    between atoms: _12  and  _13
REMARK   10  A    between atoms: _19  and  _39
REMARK   11  A    between atoms: _21  and  _27
REMARK   12  A    between atoms: _22  and  _26
REMARK   13  A    between atoms: _26  and  _27
REMARK   14  A    between atoms: _29  and  _30
REMARK   15  A    between atoms: _31  and  _32
REMARK   16  A    between atoms: _33  and  _35
REMARK   17  A    between atoms: _35  and  _36
REMARK   18  A    between atoms: _35  and  _37
REMARK   19  A    between atoms: _37  and  _38
REMARK   20  A    between atoms: _37  and  _39
REMARK   21  A    between atoms: _40  and  _42
REMARK                            x       y       z     vdW  Elec       q    Type
REMARK                         _______ _______ _______ _____ _____    ______ ____
ROOT
ATOM      1  C   UNL     1       4.939   1.872  32.459  0.00  0.00    +0.141 C 
ENDROOT
BRANCH   1   4
ATOM      2  C   UNL     1       2.924   1.969  31.032  0.00  0.00    +0.401 C 
ATOM      3  O   UNL     1       2.268   2.631  31.840  0.00  0.00    -0.226 OA
ATOM      4  N   UNL     1       4.178   1.566  31.241  0.00  0.00    -0.279 N 
ATOM      5  H   UNL     1       4.629   1.019  30.522  0.00  0.00    +0.152 HD
BRANCH   2   6
ATOM      6  O   UNL     1       2.322   1.597  29.789  0.00  0.00    -0.444 OA
BRANCH   6   7
ATOM      7  C   UNL     1       0.899   1.643  29.914  0.00  0.00    +0.292 C 
BRANCH   7   9
ATOM      8  N   UNL     1       0.055   3.819  29.077  0.00  0.00    -0.131 NA
ATOM      9  C   UNL     1       0.317   2.491  28.860  0.00  0.00    +0.120 A 
ATOM     10  C   UNL     1      -0.060   2.160  27.578  0.00  0.00    +0.137 A 
ATOM     11  N   UNL     1      -0.536   3.328  27.068  0.00  0.00    -0.249 N 
ATOM     12  N   UNL     1      -0.477   4.321  27.970  0.00  0.00    -0.065 NA
BRANCH  11  13
ATOM     13  C   UNL     1      -1.180   3.538  25.791  0.00  0.00    +0.176 C 
BRANCH  13  14
ATOM     14  C   UNL     1      -0.475   4.595  24.934  0.00  0.00    +0.136 C 
BRANCH  14  15
ATOM     15  O   UNL     1      -0.794   5.910  25.410  0.00  0.00    -0.390 OA
ATOM     16  H   UNL     1      -0.343   6.059  26.259  0.00  0.00    +0.210 HD
ENDBRANCH  14  15
BRANCH  14  17
ATOM     17  C   UNL     1       1.055   4.453  24.966  0.00  0.00    +0.038 C 
BRANCH  17  18
ATOM     18  C   UNL     1       1.748   5.057  23.745  0.00  0.00    +0.038 C 
BRANCH  18  19
ATOM     19  C   UNL     1       1.786   4.100  22.582  0.00  0.00    -0.047 A 
ATOM     20  C   UNL     1       1.753   4.584  21.266  0.00  0.00    +0.003 A 
ATOM     21  C   UNL     1       1.807   3.702  20.187  0.00  0.00    +0.000 A 
ATOM     22  C   UNL     1       1.887   2.329  20.412  0.00  0.00    +0.000 A 
ATOM     23  C   UNL     1       1.909   1.838  21.717  0.00  0.00    +0.000 A 
ATOM     24  C   UNL     1       1.854   2.719  22.798  0.00  0.00    +0.003 A 
ENDBRANCH  18  19
ENDBRANCH  17  18
ENDBRANCH  14  17
ENDBRANCH  13  14
ENDBRANCH  11  13
ENDBRANCH   7   9
ENDBRANCH   6   7
ENDBRANCH   2   6
ENDBRANCH   1   4
BRANCH   1  25
ATOM     25  C   UNL     1       5.503   3.289  32.435  0.00  0.00    +0.163 C 
BRANCH  25  26
ATOM     26  O   UNL     1       4.552   4.206  32.998  0.00  0.00    -0.388 OA
ATOM     27  H   UNL     1       3.703   3.768  33.098  0.00  0.00    +0.210 HD
ENDBRANCH  25  26
BRANCH  25  28
ATOM     28  C   UNL     1       6.830   3.326  33.213  0.00  0.00    +0.175 C 
BRANCH  28  29
ATOM     29  C   UNL     1       6.643   3.830  34.651  0.00  0.00    +0.176 C 
ATOM     30  O   UNL     1       6.742   5.281  34.633  0.00  0.00    -0.332 OA
ATOM     31  C   UNL     1       6.482   5.950  35.911  0.00  0.00    +0.277 C 
ATOM     32  C   UNL     1       7.401   5.377  37.019  0.00  0.00    +0.110 C 
ATOM     33  C   UNL     1       7.353   3.835  37.056  0.00  0.00    +0.143 C 
ATOM     34  C   UNL     1       7.634   3.244  35.674  0.00  0.00    +0.133 C 
BRANCH  34  35
ATOM     35  N   UNL     1       7.501   1.779  35.703  0.00  0.00    -0.308 N 
ATOM     36  H   UNL     1       6.599   1.392  35.943  0.00  0.00    +0.149 HD
ATOM     37  C   UNL     1       8.493   0.927  35.433  0.00  0.00    +0.210 C 
ATOM     38  C   UNL     1       9.862   1.547  35.097  0.00  0.00    +0.109 C 
ATOM     39  O   UNL     1       8.349  -0.296  35.451  0.00  0.00    -0.276 OA
ENDBRANCH  34  35
BRANCH  31  40
ATOM     40  C   UNL     1       5.006   5.782  36.327  0.00  0.00    +0.414 C 
ATOM     41  O   UNL     1       4.144   5.558  35.478  0.00  0.00    -0.240 OA
ATOM     42  O   UNL     1       4.677   5.868  37.511  0.00  0.00    -0.240 OA
ENDBRANCH  31  40
BRANCH  33  43
ATOM     43  O   UNL     1       8.323   3.345  37.983  0.00  0.00    -0.390 OA
ATOM     44  H   UNL     1       8.281   2.386  38.014  0.00  0.00    +0.210 HD
ENDBRANCH  33  43
BRANCH  31  45
ATOM     45  O   UNL     1       6.786   7.360  35.750  0.00  0.00    -0.343 OA
ATOM     46  C   UNL     1       6.994   7.788  34.381  0.00  0.00    +0.198 C 
ENDBRANCH  31  45
ENDBRANCH  28  29
BRANCH  28  47
ATOM     47  O   UNL     1       7.789   4.149  32.519  0.00  0.00    -0.387 OA
ATOM     48  H   UNL     1       7.545   5.073  32.612  0.00  0.00    +0.210 HD
ENDBRANCH  28  47
ENDBRANCH  25  28
ENDBRANCH   1  25
TORSDOF 19
