REMARK VINA RESULT:    -5.343      0.000      0.000
REMARK INTER + INTRA:         -14.360
REMARK INTER:                 -10.411
REMARK INTRA:                  -3.949
REMARK UNBOUND:                -4.177
REMARK  Name = lig_assembled_50.pdb
REMARK  20 active torsions:
REMARK  status: ('A' for Active; 'I' for Inactive)
REMARK    1  A    between atoms: _2  and  _9
REMARK    2  A    between atoms: _4  and  _17
REMARK    3  A    between atoms: _5  and  _10
REMARK    4  A    between atoms: _5  and  _11
REMARK    5  A    between atoms: _6  and  _7
REMARK    6  A    between atoms: _6  and  _17
REMARK    7  A    between atoms: _9  and  _10
REMARK    8  A    between atoms: _10  and  _12
REMARK    9  A    between atoms: _13  and  _33
REMARK   10  A    between atoms: _15  and  _21
REMARK   11  A    between atoms: _16  and  _20
REMARK   12  A    between atoms: _20  and  _21
REMARK   13  A    between atoms: _23  and  _24
REMARK   14  A    between atoms: _25  and  _26
REMARK   15  A    between atoms: _27  and  _29
REMARK   16  A    between atoms: _29  and  _30
REMARK   17  A    between atoms: _29  and  _31
REMARK   18  A    between atoms: _31  and  _32
REMARK   19  A    between atoms: _31  and  _33
REMARK   20  A    between atoms: _34  and  _36
REMARK                            x       y       z     vdW  Elec       q    Type
REMARK                         _______ _______ _______ _____ _____    ______ ____
ROOT
ATOM      1  C   UNL     1      16.917   3.783  23.035  0.00  0.00    +0.163 C 
ENDROOT
BRANCH   1   2
ATOM      2  O   UNL     1      16.103   2.853  23.766  0.00  0.00    -0.388 OA
ATOM      3  H   UNL     1      16.628   2.442  24.457  0.00  0.00    +0.210 HD
ENDBRANCH   1   2
BRANCH   1   4
ATOM      4  C   UNL     1      18.312   3.912  23.670  0.00  0.00    +0.175 C 
BRANCH   4   5
ATOM      5  C   UNL     1      18.540   2.873  24.779  0.00  0.00    +0.176 C 
ATOM      6  O   UNL     1      17.950   3.390  26.004  0.00  0.00    -0.332 OA
ATOM      7  C   UNL     1      17.978   2.481  27.153  0.00  0.00    +0.277 C 
ATOM      8  C   UNL     1      19.425   2.003  27.430  0.00  0.00    +0.110 C 
ATOM      9  C   UNL     1      20.105   1.474  26.150  0.00  0.00    +0.143 C 
ATOM     10  C   UNL     1      20.014   2.498  25.017  0.00  0.00    +0.133 C 
BRANCH  10  11
ATOM     11  N   UNL     1      20.588   1.948  23.779  0.00  0.00    -0.308 N 
ATOM     12  H   UNL     1      20.150   1.131  23.378  0.00  0.00    +0.149 HD
ATOM     13  C   UNL     1      21.650   2.459  23.150  0.00  0.00    +0.210 C 
ATOM     14  C   UNL     1      22.311   3.689  23.800  0.00  0.00    +0.109 C 
ATOM     15  O   UNL     1      22.100   1.986  22.106  0.00  0.00    -0.276 OA
ENDBRANCH  10  11
BRANCH   7  16
ATOM     16  C   UNL     1      17.070   1.259  26.907  0.00  0.00    +0.414 C 
ATOM     17  O   UNL     1      15.962   1.403  26.391  0.00  0.00    -0.240 OA
ATOM     18  O   UNL     1      17.445   0.129  27.223  0.00  0.00    -0.240 OA
ENDBRANCH   7  16
BRANCH   9  19
ATOM     19  O   UNL     1      21.478   1.188  26.417  0.00  0.00    -0.390 OA
ATOM     20  H   UNL     1      21.554   0.736  27.260  0.00  0.00    +0.210 HD
ENDBRANCH   9  19
BRANCH   7  21
ATOM     21  O   UNL     1      17.508   3.212  28.315  0.00  0.00    -0.343 OA
ATOM     22  C   UNL     1      18.536   3.559  29.277  0.00  0.00    +0.198 C 
ENDBRANCH   7  21
ENDBRANCH   4   5
BRANCH   4  23
ATOM     23  O   UNL     1      18.501   5.243  24.191  0.00  0.00    -0.387 OA
ATOM     24  H   UNL     1      17.967   5.862  23.687  0.00  0.00    +0.210 HD
ENDBRANCH   4  23
ENDBRANCH   1   4
BRANCH   1  25
ATOM     25  C   UNL     1      17.058   3.327  21.586  0.00  0.00    +0.141 C 
BRANCH  25  28
ATOM     26  C   UNL     1      17.597   1.231  20.394  0.00  0.00    +0.401 C 
ATOM     27  O   UNL     1      17.025   1.565  19.354  0.00  0.00    -0.226 OA
ATOM     28  N   UNL     1      17.656   1.990  21.489  0.00  0.00    -0.279 N 
ATOM     29  H   UNL     1      18.140   1.625  22.297  0.00  0.00    +0.152 HD
BRANCH  26  30
ATOM     30  O   UNL     1      18.238  -0.046  20.455  0.00  0.00    -0.444 OA
BRANCH  30  31
ATOM     31  C   UNL     1      18.919  -0.179  21.706  0.00  0.00    +0.292 C 
BRANCH  31  33
ATOM     32  N   UNL     1      17.199  -0.176  23.491  0.00  0.00    -0.131 NA
ATOM     33  C   UNL     1      18.063  -0.876  22.687  0.00  0.00    +0.120 A 
ATOM     34  C   UNL     1      17.949  -2.222  22.968  0.00  0.00    +0.137 A 
ATOM     35  N   UNL     1      17.012  -2.271  23.950  0.00  0.00    -0.249 N 
ATOM     36  N   UNL     1      16.550  -1.043  24.252  0.00  0.00    -0.065 NA
BRANCH  35  37
ATOM     37  C   UNL     1      16.510  -3.429  24.655  0.00  0.00    +0.178 C 
BRANCH  37  38
ATOM     38  C   UNL     1      16.936  -3.498  26.126  0.00  0.00    +0.161 C 
BRANCH  38  39
ATOM     39  O   UNL     1      18.037  -2.635  26.423  0.00  0.00    -0.388 OA
ATOM     40  H   UNL     1      18.431  -2.331  25.579  0.00  0.00    +0.210 HD
ENDBRANCH  38  39
BRANCH  38  41
ATOM     41  C   UNL     1      15.790  -3.231  27.111  0.00  0.00    +0.189 C 
BRANCH  41  42
ATOM     42  O   UNL     1      15.418  -1.853  27.114  0.00  0.00    -0.392 OA
ATOM     43  H   UNL     1      15.162  -1.609  28.024  0.00  0.00    +0.210 HD
ENDBRANCH  41  42
ENDBRANCH  38  41
ENDBRANCH  37  38
ENDBRANCH  35  37
ENDBRANCH  31  33
ENDBRANCH  30  31
ENDBRANCH  26  30
ENDBRANCH  25  28
ENDBRANCH   1  25
TORSDOF 18
