REMARK VINA RESULT:    -7.029      0.000      0.000
REMARK INTER + INTRA:         -14.578
REMARK INTER:                 -12.421
REMARK INTRA:                  -2.157
REMARK UNBOUND:                -2.413
REMARK  Name = lig_assembled_8.pdb
REMARK  16 active torsions:
REMARK  status: ('A' for Active; 'I' for Inactive)
REMARK    1  A    between atoms: _2  and  _9
REMARK    2  A    between atoms: _4  and  _18
REMARK    3  A    between atoms: _6  and  _7
REMARK    4  A    between atoms: _6  and  _18
REMARK    5  A    between atoms: _14  and  _34
REMARK    6  A    between atoms: _16  and  _22
REMARK    7  A    between atoms: _17  and  _21
REMARK    8  A    between atoms: _21  and  _22
REMARK    9  A    between atoms: _24  and  _25
REMARK   10  A    between atoms: _26  and  _27
REMARK   11  A    between atoms: _28  and  _30
REMARK   12  A    between atoms: _30  and  _31
REMARK   13  A    between atoms: _30  and  _32
REMARK   14  A    between atoms: _32  and  _33
REMARK   15  A    between atoms: _32  and  _34
REMARK   16  A    between atoms: _35  and  _37
REMARK                            x       y       z     vdW  Elec       q    Type
REMARK                         _______ _______ _______ _____ _____    ______ ____
ROOT
ATOM      1  C   UNL     1       3.609   3.635  32.522  0.00  0.00    +0.163 C 
ENDROOT
BRANCH   1   2
ATOM      2  O   UNL     1       2.807   4.029  33.647  0.00  0.00    -0.388 OA
ATOM      3  H   UNL     1       2.293   3.277  33.953  0.00  0.00    +0.210 HD
ENDBRANCH   1   2
BRANCH   1   4
ATOM      4  C   UNL     1       2.871   2.588  31.694  0.00  0.00    +0.141 C 
BRANCH   4   7
ATOM      5  C   UNL     1       0.896   3.761  30.783  0.00  0.00    +0.401 C 
ATOM      6  O   UNL     1       0.313   3.819  31.868  0.00  0.00    -0.226 OA
ATOM      7  N   UNL     1       2.092   3.198  30.609  0.00  0.00    -0.279 N 
ATOM      8  H   UNL     1       2.485   3.190  29.678  0.00  0.00    +0.152 HD
BRANCH   5   9
ATOM      9  O   UNL     1       0.268   4.320  29.626  0.00  0.00    -0.444 OA
BRANCH   9  10
ATOM     10  C   UNL     1       0.009   3.284  28.675  0.00  0.00    +0.292 C 
BRANCH  10  12
ATOM     11  N   UNL     1       2.128   3.706  27.482  0.00  0.00    -0.131 NA
ATOM     12  C   UNL     1       0.783   3.518  27.442  0.00  0.00    +0.121 A 
ATOM     13  C   UNL     1       0.363   3.580  26.133  0.00  0.00    +0.143 A 
ATOM     14  N   UNL     1       1.510   3.791  25.387  0.00  0.00    -0.219 N 
ATOM     15  N   UNL     1       2.555   3.875  26.240  0.00  0.00    -0.060 NA
BRANCH  14  16
ATOM     16  C   UNL     1       1.632   3.891  23.966  0.00  0.00    +0.081 A 
ATOM     17  C   UNL     1       1.610   5.180  23.387  0.00  0.00    +0.029 A 
ATOM     18  C   UNL     1       1.701   5.363  22.004  0.00  0.00    +0.002 A 
ATOM     19  C   UNL     1       1.816   4.264  21.166  0.00  0.00    +0.001 A 
ATOM     20  C   UNL     1       1.847   2.985  21.713  0.00  0.00    +0.017 A 
ATOM     21  C   UNL     1       1.759   2.783  23.104  0.00  0.00    +0.043 A 
ATOM     22 BR   UNL     1       1.830   0.948  23.612  0.00  0.00    -0.048 Br
ENDBRANCH  14  16
ENDBRANCH  10  12
ENDBRANCH   9  10
ENDBRANCH   5   9
ENDBRANCH   4   7
ENDBRANCH   1   4
BRANCH   1  23
ATOM     23  C   UNL     1       4.962   3.065  32.983  0.00  0.00    +0.175 C 
BRANCH  23  24
ATOM     24  C   UNL     1       5.472   3.750  34.260  0.00  0.00    +0.176 C 
ATOM     25  O   UNL     1       5.478   5.185  34.026  0.00  0.00    -0.332 OA
ATOM     26  C   UNL     1       5.839   6.014  35.179  0.00  0.00    +0.277 C 
ATOM     27  C   UNL     1       7.206   5.573  35.756  0.00  0.00    +0.110 C 
ATOM     28  C   UNL     1       7.259   4.049  35.992  0.00  0.00    +0.143 C 
ATOM     29  C   UNL     1       6.863   3.284  34.729  0.00  0.00    +0.133 C 
BRANCH  29  30
ATOM     30  N   UNL     1       6.833   1.836  34.991  0.00  0.00    -0.308 N 
ATOM     31  H   UNL     1       6.180   1.495  35.683  0.00  0.00    +0.149 HD
ATOM     32  C   UNL     1       7.612   0.943  34.375  0.00  0.00    +0.210 C 
ATOM     33  C   UNL     1       8.614   1.497  33.345  0.00  0.00    +0.109 C 
ATOM     34  O   UNL     1       7.555  -0.265  34.604  0.00  0.00    -0.276 OA
ENDBRANCH  29  30
BRANCH  26  35
ATOM     35  C   UNL     1       4.761   5.920  36.279  0.00  0.00    +0.414 C 
ATOM     36  O   UNL     1       5.033   6.219  37.441  0.00  0.00    -0.240 OA
ATOM     37  O   UNL     1       3.620   5.546  36.005  0.00  0.00    -0.240 OA
ENDBRANCH  26  35
BRANCH  28  38
ATOM     38  O   UNL     1       8.580   3.667  36.378  0.00  0.00    -0.390 OA
ATOM     39  H   UNL     1       9.119   4.452  36.499  0.00  0.00    +0.210 HD
ENDBRANCH  28  38
BRANCH  26  40
ATOM     40  O   UNL     1       5.955   7.388  34.726  0.00  0.00    -0.343 OA
ATOM     41  C   UNL     1       7.305   7.817  34.415  0.00  0.00    +0.198 C 
ENDBRANCH  26  40
ENDBRANCH  23  24
BRANCH  23  42
ATOM     42  O   UNL     1       5.938   3.187  31.930  0.00  0.00    -0.387 OA
ATOM     43  H   UNL     1       6.414   4.015  32.029  0.00  0.00    +0.210 HD
ENDBRANCH  23  42
ENDBRANCH   1  23
TORSDOF 14
