REMARK VINA RESULT:    -7.173      0.000      0.000
REMARK INTER + INTRA:         -15.391
REMARK INTER:                 -12.599
REMARK INTRA:                  -2.792
REMARK UNBOUND:                -2.138
REMARK  Name = lig_assembled_92.pdb
REMARK  18 active torsions:
REMARK  status: ('A' for Active; 'I' for Inactive)
REMARK    1  A    between atoms: _2  and  _11
REMARK    2  A    between atoms: _3  and  _46
REMARK    3  A    between atoms: _6  and  _25
REMARK    4  A    between atoms: _8  and  _9
REMARK    5  A    between atoms: _8  and  _25
REMARK    6  A    between atoms: _14  and  _46
REMARK    7  A    between atoms: _21  and  _41
REMARK    8  A    between atoms: _23  and  _29
REMARK    9  A    between atoms: _24  and  _28
REMARK   10  A    between atoms: _28  and  _29
REMARK   11  A    between atoms: _31  and  _32
REMARK   12  A    between atoms: _33  and  _34
REMARK   13  A    between atoms: _35  and  _37
REMARK   14  A    between atoms: _37  and  _38
REMARK   15  A    between atoms: _37  and  _39
REMARK   16  A    between atoms: _39  and  _40
REMARK   17  A    between atoms: _39  and  _41
REMARK   18  A    between atoms: _42  and  _44
REMARK                            x       y       z     vdW  Elec       q    Type
REMARK                         _______ _______ _______ _____ _____    ______ ____
ROOT
ATOM      1  C   UNL     1      17.545   1.235  20.565  0.00  0.00    +0.401 C 
ATOM      2  O   UNL     1      17.325   1.735  19.459  0.00  0.00    -0.226 OA
ATOM      3  N   UNL     1      17.322   1.858  21.723  0.00  0.00    -0.279 N 
ATOM      4  H   UNL     1      17.525   1.361  22.579  0.00  0.00    +0.152 HD
ENDROOT
BRANCH   3   5
ATOM      5  C   UNL     1      16.799   3.226  21.823  0.00  0.00    +0.141 C 
BRANCH   5   6
ATOM      6  C   UNL     1      17.731   4.135  22.618  0.00  0.00    +0.163 C 
BRANCH   6   7
ATOM      7  O   UNL     1      17.020   5.302  23.062  0.00  0.00    -0.388 OA
ATOM      8  H   UNL     1      17.574   6.077  22.949  0.00  0.00    +0.210 HD
ENDBRANCH   6   7
BRANCH   6   9
ATOM      9  C   UNL     1      18.312   3.357  23.812  0.00  0.00    +0.175 C 
BRANCH   9  10
ATOM     10  C   UNL     1      18.344   4.204  25.093  0.00  0.00    +0.176 C 
ATOM     11  O   UNL     1      19.613   4.914  25.127  0.00  0.00    -0.332 OA
ATOM     12  C   UNL     1      19.780   5.861  26.234  0.00  0.00    +0.277 C 
ATOM     13  C   UNL     1      19.539   5.155  27.591  0.00  0.00    +0.110 C 
ATOM     14  C   UNL     1      18.216   4.360  27.592  0.00  0.00    +0.143 C 
ATOM     15  C   UNL     1      18.146   3.409  26.397  0.00  0.00    +0.133 C 
BRANCH  15  16
ATOM     16  N   UNL     1      16.846   2.721  26.360  0.00  0.00    -0.308 N 
ATOM     17  H   UNL     1      16.019   3.284  26.219  0.00  0.00    +0.149 HD
ATOM     18  C   UNL     1      16.688   1.402  26.501  0.00  0.00    +0.210 C 
ATOM     19  C   UNL     1      17.965   0.576  26.740  0.00  0.00    +0.109 C 
ATOM     20  O   UNL     1      15.587   0.852  26.452  0.00  0.00    -0.276 OA
ENDBRANCH  15  16
BRANCH  12  21
ATOM     21  C   UNL     1      18.805   7.048  26.090  0.00  0.00    +0.414 C 
ATOM     22  O   UNL     1      18.078   7.137  25.101  0.00  0.00    -0.240 OA
ATOM     23  O   UNL     1      18.747   7.916  26.961  0.00  0.00    -0.240 OA
ENDBRANCH  12  21
BRANCH  14  24
ATOM     24  O   UNL     1      18.108   3.606  28.800  0.00  0.00    -0.390 OA
ATOM     25  H   UNL     1      18.667   2.828  28.743  0.00  0.00    +0.210 HD
ENDBRANCH  14  24
BRANCH  12  26
ATOM     26  O   UNL     1      21.147   6.345  26.207  0.00  0.00    -0.343 OA
ATOM     27  C   UNL     1      21.555   6.960  24.959  0.00  0.00    +0.198 C 
ENDBRANCH  12  26
ENDBRANCH   9  10
BRANCH   9  28
ATOM     28  O   UNL     1      19.635   2.880  23.498  0.00  0.00    -0.387 OA
ATOM     29  H   UNL     1      19.592   1.953  23.253  0.00  0.00    +0.210 HD
ENDBRANCH   9  28
ENDBRANCH   6   9
ENDBRANCH   5   6
ENDBRANCH   3   5
BRANCH   1  30
ATOM     30  O   UNL     1      18.066  -0.095  20.634  0.00  0.00    -0.444 OA
BRANCH  30  31
ATOM     31  C   UNL     1      18.768  -0.269  21.868  0.00  0.00    +0.292 C 
BRANCH  31  33
ATOM     32  N   UNL     1      18.684  -2.694  22.371  0.00  0.00    -0.131 NA
ATOM     33  C   UNL     1      18.232  -1.428  22.605  0.00  0.00    +0.121 A 
ATOM     34  C   UNL     1      17.271  -1.469  23.588  0.00  0.00    +0.143 A 
ATOM     35  N   UNL     1      17.189  -2.794  23.951  0.00  0.00    -0.220 N 
ATOM     36  N   UNL     1      18.041  -3.520  23.189  0.00  0.00    -0.060 NA
BRANCH  35  37
ATOM     37  C   UNL     1      16.397  -3.379  24.971  0.00  0.00    +0.067 A 
ATOM     38  C   UNL     1      15.785  -4.626  24.767  0.00  0.00    +0.030 A 
ATOM     39  C   UNL     1      14.960  -5.171  25.750  0.00  0.00    +0.031 A 
ATOM     40  C   UNL     1      14.751  -4.479  26.944  0.00  0.00    +0.109 A 
ATOM     41  C   UNL     1      15.360  -3.242  27.166  0.00  0.00    +0.031 A 
ATOM     42  C   UNL     1      16.193  -2.696  26.182  0.00  0.00    +0.030 A 
BRANCH  40  43
ATOM     43  S   UNL     1      13.576  -5.129  28.103  0.00  0.00    +0.074 S 
ATOM     44  O   UNL     1      12.264  -4.657  27.707  0.00  0.00    -0.150 OA
ATOM     45  O   UNL     1      13.820  -6.544  28.262  0.00  0.00    -0.150 OA
BRANCH  43  46
ATOM     46  N   UNL     1      13.929  -4.297  29.530  0.00  0.00    -0.194 N 
ATOM     47  H   UNL     1      13.035  -4.004  29.915  0.00  0.00    +0.176 HD
ATOM     48  C   UNL     1      14.699  -5.073  30.421  0.00  0.00    +0.177 A 
ATOM     49  S   UNL     1      14.008  -5.942  31.721  0.00  0.00    -0.059 S 
ATOM     50  C   UNL     1      15.586  -6.383  32.232  0.00  0.00    +0.068 A 
ATOM     51  C   UNL     1      16.520  -5.771  31.422  0.00  0.00    +0.120 A 
ATOM     52  N   UNL     1      16.007  -5.046  30.363  0.00  0.00    -0.232 NA
ENDBRANCH  43  46
ENDBRANCH  40  43
ENDBRANCH  35  37
ENDBRANCH  31  33
ENDBRANCH  30  31
ENDBRANCH   1  30
TORSDOF 16
