REMARK VINA RESULT:    -6.648      0.000      0.000
REMARK INTER + INTRA:         -15.427
REMARK INTER:                 -13.704
REMARK INTRA:                  -1.723
REMARK UNBOUND:                -2.754
REMARK  Name = lig_assembled_12.pdb
REMARK  19 active torsions:
REMARK  status: ('A' for Active; 'I' for Inactive)
REMARK    1  A    between atoms: _2  and  _9
REMARK    2  A    between atoms: _4  and  _21
REMARK    3  A    between atoms: _6  and  _7
REMARK    4  A    between atoms: _6  and  _21
REMARK    5  A    between atoms: _9  and  _16
REMARK    6  A    between atoms: _10  and  _11
REMARK    7  A    between atoms: _10  and  _16
REMARK    8  A    between atoms: _17  and  _37
REMARK    9  A    between atoms: _19  and  _25
REMARK   10  A    between atoms: _20  and  _24
REMARK   11  A    between atoms: _24  and  _25
REMARK   12  A    between atoms: _27  and  _28
REMARK   13  A    between atoms: _29  and  _30
REMARK   14  A    between atoms: _31  and  _33
REMARK   15  A    between atoms: _33  and  _34
REMARK   16  A    between atoms: _33  and  _35
REMARK   17  A    between atoms: _35  and  _36
REMARK   18  A    between atoms: _35  and  _37
REMARK   19  A    between atoms: _38  and  _40
REMARK                            x       y       z     vdW  Elec       q    Type
REMARK                         _______ _______ _______ _____ _____    ______ ____
ROOT
ATOM      1  C   UNL     1       3.731   3.647  32.464  0.00  0.00    +0.163 C 
ENDROOT
BRANCH   1   2
ATOM      2  O   UNL     1       2.808   3.882  33.539  0.00  0.00    -0.388 OA
ATOM      3  H   UNL     1       1.967   4.177  33.182  0.00  0.00    +0.210 HD
ENDBRANCH   1   2
BRANCH   1   4
ATOM      4  C   UNL     1       5.039   3.029  32.987  0.00  0.00    +0.175 C 
BRANCH   4   5
ATOM      5  C   UNL     1       5.542   3.731  34.257  0.00  0.00    +0.176 C 
ATOM      6  O   UNL     1       5.538   5.164  34.008  0.00  0.00    -0.332 OA
ATOM      7  C   UNL     1       5.891   6.008  35.153  0.00  0.00    +0.277 C 
ATOM      8  C   UNL     1       7.260   5.582  35.738  0.00  0.00    +0.110 C 
ATOM      9  C   UNL     1       7.324   4.061  35.990  0.00  0.00    +0.143 C 
ATOM     10  C   UNL     1       6.935   3.280  34.734  0.00  0.00    +0.133 C 
BRANCH  10  11
ATOM     11  N   UNL     1       6.915   1.835  35.012  0.00  0.00    -0.308 N 
ATOM     12  H   UNL     1       6.230   1.491  35.670  0.00  0.00    +0.149 HD
ATOM     13  C   UNL     1       7.742   0.949  34.451  0.00  0.00    +0.210 C 
ATOM     14  C   UNL     1       8.792   1.509  33.472  0.00  0.00    +0.109 C 
ATOM     15  O   UNL     1       7.693  -0.258  34.691  0.00  0.00    -0.276 OA
ENDBRANCH  10  11
BRANCH   7  16
ATOM     16  C   UNL     1       4.811   5.918  36.252  0.00  0.00    +0.414 C 
ATOM     17  O   UNL     1       5.110   6.101  37.431  0.00  0.00    -0.240 OA
ATOM     18  O   UNL     1       3.642   5.662  35.959  0.00  0.00    -0.240 OA
ENDBRANCH   7  16
BRANCH   9  19
ATOM     19  O   UNL     1       8.646   3.693  36.383  0.00  0.00    -0.390 OA
ATOM     20  H   UNL     1       8.991   4.343  36.999  0.00  0.00    +0.210 HD
ENDBRANCH   9  19
BRANCH   7  21
ATOM     21  O   UNL     1       5.999   7.377  34.686  0.00  0.00    -0.343 OA
ATOM     22  C   UNL     1       7.353   7.884  34.585  0.00  0.00    +0.198 C 
ENDBRANCH   7  21
ENDBRANCH   4   5
BRANCH   4  23
ATOM     23  O   UNL     1       6.053   3.071  31.962  0.00  0.00    -0.387 OA
ATOM     24  H   UNL     1       5.732   3.583  31.216  0.00  0.00    +0.210 HD
ENDBRANCH   4  23
ENDBRANCH   1   4
BRANCH   1  25
ATOM     25  C   UNL     1       3.104   2.714  31.433  0.00  0.00    +0.141 C 
BRANCH  25  28
ATOM     26  C   UNL     1       2.083   2.906  29.191  0.00  0.00    +0.401 C 
ATOM     27  O   UNL     1       2.264   1.720  28.904  0.00  0.00    -0.226 OA
ATOM     28  N   UNL     1       2.450   3.456  30.349  0.00  0.00    -0.279 N 
ATOM     29  H   UNL     1       2.267   4.440  30.488  0.00  0.00    +0.152 HD
BRANCH  26  30
ATOM     30  O   UNL     1       1.447   3.762  28.238  0.00  0.00    -0.444 OA
BRANCH  30  31
ATOM     31  C   UNL     1       1.156   3.021  27.050  0.00  0.00    +0.292 C 
BRANCH  31  33
ATOM     32  N   UNL     1       0.037   4.833  25.780  0.00  0.00    -0.131 NA
ATOM     33  C   UNL     1       1.060   3.926  25.890  0.00  0.00    +0.120 A 
ATOM     34  C   UNL     1       1.881   4.039  24.792  0.00  0.00    +0.139 A 
ATOM     35  N   UNL     1       1.292   5.010  24.037  0.00  0.00    -0.226 N 
ATOM     36  N   UNL     1       0.196   5.501  24.644  0.00  0.00    -0.063 NA
BRANCH  35  37
ATOM     37  C   UNL     1       1.728   5.557  22.764  0.00  0.00    +0.305 C 
BRANCH  37  38
ATOM     38  O   UNL     1       2.079   4.487  21.890  0.00  0.00    -0.353 OA
BRANCH  38  39
ATOM     39  C   UNL     1       0.937   3.742  21.485  0.00  0.00    +0.197 C 
BRANCH  39  40
ATOM     40  C   UNL     1       0.778   3.929  20.001  0.00  0.00    -0.022 A 
ATOM     41  C   UNL     1       1.776   3.495  19.117  0.00  0.00    +0.006 A 
ATOM     42  C   UNL     1       1.645   3.703  17.744  0.00  0.00    +0.000 A 
ATOM     43  C   UNL     1       0.521   4.356  17.240  0.00  0.00    +0.000 A 
ATOM     44  C   UNL     1      -0.472   4.802  18.109  0.00  0.00    +0.000 A 
ATOM     45  C   UNL     1      -0.343   4.594  19.484  0.00  0.00    +0.006 A 
ENDBRANCH  39  40
ENDBRANCH  38  39
ENDBRANCH  37  38
ENDBRANCH  35  37
ENDBRANCH  31  33
ENDBRANCH  30  31
ENDBRANCH  26  30
ENDBRANCH  25  28
ENDBRANCH   1  25
TORSDOF 17
