REMARK VINA RESULT:    -7.274      0.000      0.000
REMARK INTER + INTRA:         -15.101
REMARK INTER:                 -13.276
REMARK INTRA:                  -1.825
REMARK UNBOUND:                -1.873
REMARK  Name = lig_assembled_60.pdb
REMARK  18 active torsions:
REMARK  status: ('A' for Active; 'I' for Inactive)
REMARK    1  A    between atoms: _2  and  _10
REMARK    2  A    between atoms: _3  and  _41
REMARK    3  A    between atoms: _5  and  _21
REMARK    4  A    between atoms: _7  and  _8
REMARK    5  A    between atoms: _7  and  _21
REMARK    6  A    between atoms: _13  and  _41
REMARK    7  A    between atoms: _17  and  _37
REMARK    8  A    between atoms: _19  and  _25
REMARK    9  A    between atoms: _20  and  _24
REMARK   10  A    between atoms: _24  and  _25
REMARK   11  A    between atoms: _27  and  _28
REMARK   12  A    between atoms: _29  and  _30
REMARK   13  A    between atoms: _31  and  _33
REMARK   14  A    between atoms: _33  and  _34
REMARK   15  A    between atoms: _33  and  _35
REMARK   16  A    between atoms: _35  and  _36
REMARK   17  A    between atoms: _35  and  _37
REMARK   18  A    between atoms: _38  and  _40
REMARK                            x       y       z     vdW  Elec       q    Type
REMARK                         _______ _______ _______ _____ _____    ______ ____
ROOT
ATOM      1  C   UNL     1       2.725   2.667  31.566  0.00  0.00    +0.141 C 
ENDROOT
BRANCH   1   4
ATOM      2  C   UNL     1       1.205   3.246  29.705  0.00  0.00    +0.401 C 
ATOM      3  O   UNL     1       0.204   2.778  30.253  0.00  0.00    -0.226 OA
ATOM      4  N   UNL     1       2.425   3.231  30.244  0.00  0.00    -0.279 N 
ATOM      5  H   UNL     1       3.186   3.631  29.714  0.00  0.00    +0.152 HD
BRANCH   2   6
ATOM      6  O   UNL     1       1.075   3.841  28.412  0.00  0.00    -0.444 OA
BRANCH   6   7
ATOM      7  C   UNL     1       2.150   3.405  27.575  0.00  0.00    +0.292 C 
BRANCH   7   9
ATOM      8  N   UNL     1       1.051   4.672  25.754  0.00  0.00    -0.131 NA
ATOM      9  C   UNL     1       1.811   3.611  26.155  0.00  0.00    +0.121 A 
ATOM     10  C   UNL     1       2.162   2.869  25.052  0.00  0.00    +0.143 A 
ATOM     11  N   UNL     1       1.618   3.541  23.981  0.00  0.00    -0.220 N 
ATOM     12  N   UNL     1       0.930   4.618  24.435  0.00  0.00    -0.060 NA
BRANCH  11  13
ATOM     13  C   UNL     1       1.746   3.254  22.597  0.00  0.00    +0.067 A 
ATOM     14  C   UNL     1       1.777   4.292  21.652  0.00  0.00    +0.030 A 
ATOM     15  C   UNL     1       1.832   3.995  20.289  0.00  0.00    +0.030 A 
ATOM     16  C   UNL     1       1.870   2.664  19.868  0.00  0.00    +0.105 A 
ATOM     17  C   UNL     1       1.856   1.623  20.801  0.00  0.00    +0.030 A 
ATOM     18  C   UNL     1       1.800   1.919  22.166  0.00  0.00    +0.030 A 
BRANCH  16  19
ATOM     19  S   UNL     1       1.861   2.301  18.138  0.00  0.00    +0.056 S 
ATOM     20  O   UNL     1       3.149   1.775  17.753  0.00  0.00    -0.153 OA
ATOM     21  O   UNL     1       0.620   1.642  17.800  0.00  0.00    -0.153 OA
BRANCH  19  22
ATOM     22  N   UNL     1       1.767   3.836  17.469  0.00  0.00    -0.204 NA
ATOM     23  H   UNL     1       2.596   4.374  17.720  0.00  0.00    +0.144 HD
ATOM     24  H   UNL     1       0.889   4.279  17.743  0.00  0.00    +0.144 HD
ENDBRANCH  19  22
ENDBRANCH  16  19
ENDBRANCH  11  13
ENDBRANCH   7   9
ENDBRANCH   6   7
ENDBRANCH   2   6
ENDBRANCH   1   4
BRANCH   1  25
ATOM     25  C   UNL     1       3.473   3.659  32.451  0.00  0.00    +0.163 C 
BRANCH  25  26
ATOM     26  O   UNL     1       2.654   4.035  33.570  0.00  0.00    -0.388 OA
ATOM     27  H   UNL     1       2.291   3.247  33.981  0.00  0.00    +0.210 HD
ENDBRANCH  25  26
BRANCH  25  28
ATOM     28  C   UNL     1       4.795   3.029  32.924  0.00  0.00    +0.175 C 
BRANCH  28  29
ATOM     29  C   UNL     1       5.349   3.721  34.178  0.00  0.00    +0.176 C 
ATOM     30  O   UNL     1       5.352   5.155  33.933  0.00  0.00    -0.332 OA
ATOM     31  C   UNL     1       5.753   5.991  35.068  0.00  0.00    +0.277 C 
ATOM     32  C   UNL     1       7.137   5.549  35.603  0.00  0.00    +0.110 C 
ATOM     33  C   UNL     1       7.193   4.027  35.849  0.00  0.00    +0.143 C 
ATOM     34  C   UNL     1       6.753   3.254  34.605  0.00  0.00    +0.133 C 
BRANCH  34  35
ATOM     35  N   UNL     1       6.727   1.808  34.879  0.00  0.00    -0.308 N 
ATOM     36  H   UNL     1       6.053   1.467  35.550  0.00  0.00    +0.149 HD
ATOM     37  C   UNL     1       7.536   0.918  34.300  0.00  0.00    +0.210 C 
ATOM     38  C   UNL     1       8.570   1.472  33.301  0.00  0.00    +0.109 C 
ATOM     39  O   UNL     1       7.482  -0.289  34.538  0.00  0.00    -0.276 OA
ENDBRANCH  34  35
BRANCH  31  40
ATOM     40  C   UNL     1       4.711   5.909  36.203  0.00  0.00    +0.414 C 
ATOM     41  O   UNL     1       3.567   5.521  35.968  0.00  0.00    -0.240 OA
ATOM     42  O   UNL     1       5.013   6.231  37.353  0.00  0.00    -0.240 OA
ENDBRANCH  31  40
BRANCH  33  43
ATOM     43  O   UNL     1       8.524   3.643  36.195  0.00  0.00    -0.390 OA
ATOM     44  H   UNL     1       8.708   3.905  37.100  0.00  0.00    +0.210 HD
ENDBRANCH  33  43
BRANCH  31  45
ATOM     45  O   UNL     1       5.859   7.361  34.601  0.00  0.00    -0.343 OA
ATOM     46  C   UNL     1       7.214   7.858  34.465  0.00  0.00    +0.198 C 
ENDBRANCH  31  45
ENDBRANCH  28  29
BRANCH  28  47
ATOM     47  O   UNL     1       5.771   3.067  31.864  0.00  0.00    -0.387 OA
ATOM     48  H   UNL     1       5.349   2.837  31.032  0.00  0.00    +0.210 HD
ENDBRANCH  28  47
ENDBRANCH  25  28
ENDBRANCH   1  25
TORSDOF 16
