REMARK VINA RESULT:    -6.774      0.000      0.000
REMARK INTER + INTRA:         -14.812
REMARK INTER:                 -13.475
REMARK INTRA:                  -1.337
REMARK UNBOUND:                -3.089
REMARK  Name = lig_assembled_91.pdb
REMARK  16 active torsions:
REMARK  status: ('A' for Active; 'I' for Inactive)
REMARK    1  A    between atoms: _2  and  _10
REMARK    2  A    between atoms: _5  and  _26
REMARK    3  A    between atoms: _7  and  _8
REMARK    4  A    between atoms: _7  and  _26
REMARK    5  A    between atoms: _22  and  _42
REMARK    6  A    between atoms: _24  and  _30
REMARK    7  A    between atoms: _25  and  _29
REMARK    8  A    between atoms: _29  and  _30
REMARK    9  A    between atoms: _32  and  _33
REMARK   10  A    between atoms: _34  and  _35
REMARK   11  A    between atoms: _36  and  _38
REMARK   12  A    between atoms: _38  and  _39
REMARK   13  A    between atoms: _38  and  _40
REMARK   14  A    between atoms: _40  and  _41
REMARK   15  A    between atoms: _40  and  _42
REMARK   16  A    between atoms: _43  and  _45
REMARK                            x       y       z     vdW  Elec       q    Type
REMARK                         _______ _______ _______ _____ _____    ______ ____
ROOT
ATOM      1  C   UNL     1       2.838   3.326  32.498  0.00  0.00    +0.401 C 
ATOM      2  O   UNL     1       2.326   3.658  33.570  0.00  0.00    -0.226 OA
ATOM      3  N   UNL     1       4.149   3.362  32.256  0.00  0.00    -0.279 N 
ATOM      4  H   UNL     1       4.475   3.060  31.348  0.00  0.00    +0.152 HD
ENDROOT
BRANCH   3   5
ATOM      5  C   UNL     1       5.146   3.816  33.233  0.00  0.00    +0.141 C 
BRANCH   5   6
ATOM      6  C   UNL     1       6.323   2.851  33.334  0.00  0.00    +0.163 C 
BRANCH   6   7
ATOM      7  O   UNL     1       6.445   2.095  32.118  0.00  0.00    -0.388 OA
ATOM      8  H   UNL     1       5.600   2.082  31.663  0.00  0.00    +0.210 HD
ENDBRANCH   6   7
BRANCH   6   9
ATOM      9  C   UNL     1       7.612   3.641  33.622  0.00  0.00    +0.175 C 
BRANCH   9  10
ATOM     10  C   UNL     1       7.623   4.233  35.039  0.00  0.00    +0.176 C 
ATOM     11  O   UNL     1       7.580   5.681  34.919  0.00  0.00    -0.332 OA
ATOM     12  C   UNL     1       7.477   6.419  36.182  0.00  0.00    +0.277 C 
ATOM     13  C   UNL     1       8.618   6.007  37.144  0.00  0.00    +0.110 C 
ATOM     14  C   UNL     1       8.724   4.473  37.278  0.00  0.00    +0.143 C 
ATOM     15  C   UNL     1       8.823   3.807  35.905  0.00  0.00    +0.133 C 
BRANCH  15  16
ATOM     16  N   UNL     1       8.835   2.343  36.043  0.00  0.00    -0.308 N 
ATOM     17  H   UNL     1       8.007   1.897  36.412  0.00  0.00    +0.149 HD
ATOM     18  C   UNL     1       9.868   1.564  35.711  0.00  0.00    +0.210 C 
ATOM     19  C   UNL     1      11.125   2.276  35.176  0.00  0.00    +0.109 C 
ATOM     20  O   UNL     1       9.845   0.338  35.823  0.00  0.00    -0.276 OA
ENDBRANCH  15  16
BRANCH  12  21
ATOM     21  C   UNL     1       6.115   6.160  36.858  0.00  0.00    +0.414 C 
ATOM     22  O   UNL     1       5.083   6.141  36.187  0.00  0.00    -0.240 OA
ATOM     23  O   UNL     1       6.047   5.969  38.073  0.00  0.00    -0.240 OA
ENDBRANCH  12  21
BRANCH  14  24
ATOM     24  O   UNL     1       9.878   4.135  38.049  0.00  0.00    -0.390 OA
ATOM     25  H   UNL     1      10.605   3.922  37.461  0.00  0.00    +0.210 HD
ENDBRANCH  14  24
BRANCH  12  26
ATOM     26  O   UNL     1       7.615   7.833  35.888  0.00  0.00    -0.343 OA
ATOM     27  C   UNL     1       7.506   8.180  34.485  0.00  0.00    +0.198 C 
ENDBRANCH  12  26
ENDBRANCH   9  10
BRANCH   9  28
ATOM     28  O   UNL     1       7.781   4.688  32.645  0.00  0.00    -0.387 OA
ATOM     29  H   UNL     1       8.123   4.314  31.830  0.00  0.00    +0.210 HD
ENDBRANCH   9  28
ENDBRANCH   6   9
ENDBRANCH   5   6
ENDBRANCH   3   5
BRANCH   1  30
ATOM     30  O   UNL     1       1.995   2.867  31.438  0.00  0.00    -0.444 OA
BRANCH  30  31
ATOM     31  C   UNL     1       1.472   3.990  30.724  0.00  0.00    +0.292 C 
BRANCH  31  33
ATOM     32  N   UNL     1       0.013   3.784  28.743  0.00  0.00    -0.131 NA
ATOM     33  C   UNL     1       1.243   3.642  29.307  0.00  0.00    +0.121 A 
ATOM     34  C   UNL     1       2.118   3.173  28.355  0.00  0.00    +0.143 A 
ATOM     35  N   UNL     1       1.363   2.995  27.213  0.00  0.00    -0.218 N 
ATOM     36  N   UNL     1       0.093   3.396  27.479  0.00  0.00    -0.060 NA
BRANCH  35  37
ATOM     37  C   UNL     1       1.748   2.482  25.937  0.00  0.00    +0.085 A 
ATOM     38  C   UNL     1       1.660   3.315  24.764  0.00  0.00    +0.026 A 
ATOM     39  C   UNL     1       2.040   2.703  23.553  0.00  0.00    +0.074 A 
ATOM     40  C   UNL     1       1.996   3.405  22.357  0.00  0.00    +0.028 A 
ATOM     41  C   UNL     1       1.587   4.732  22.290  0.00  0.00    +0.002 A 
ATOM     42  C   UNL     1       1.239   5.383  23.457  0.00  0.00    +0.001 A 
ATOM     43  N   UNL     1       2.481   1.451  23.462  0.00  0.00    -0.247 NA
ATOM     44  C   UNL     1       2.588   0.693  24.552  0.00  0.00    +0.074 A 
ATOM     45  C   UNL     1       3.056  -0.599  24.341  0.00  0.00    +0.028 A 
ATOM     46  C   UNL     1       3.188  -1.520  25.375  0.00  0.00    +0.002 A 
ATOM     47  C   UNL     1       2.830  -1.145  26.654  0.00  0.00    +0.001 A 
ATOM     48  C   UNL     1       2.351   0.149  26.882  0.00  0.00    +0.012 A 
ATOM     49  C   UNL     1       1.295   4.696  24.674  0.00  0.00    +0.012 A 
ATOM     50  C   UNL     1       2.232   1.125  25.840  0.00  0.00    +0.026 A 
ENDBRANCH  35  37
ENDBRANCH  31  33
ENDBRANCH  30  31
ENDBRANCH   1  30
TORSDOF 14
