REMARK VINA RESULT:    -6.078      0.000      0.000
REMARK INTER + INTRA:         -13.732
REMARK INTER:                 -12.084
REMARK INTRA:                  -1.649
REMARK UNBOUND:                -2.326
REMARK  Name = lig_assembled_32.pdb
REMARK  19 active torsions:
REMARK  status: ('A' for Active; 'I' for Inactive)
REMARK    1  A    between atoms: _2  and  _9
REMARK    2  A    between atoms: _4  and  _17
REMARK    3  A    between atoms: _5  and  _10
REMARK    4  A    between atoms: _5  and  _11
REMARK    5  A    between atoms: _6  and  _7
REMARK    6  A    between atoms: _6  and  _17
REMARK    7  A    between atoms: _9  and  _10
REMARK    8  A    between atoms: _13  and  _33
REMARK    9  A    between atoms: _15  and  _21
REMARK   10  A    between atoms: _16  and  _20
REMARK   11  A    between atoms: _20  and  _21
REMARK   12  A    between atoms: _23  and  _24
REMARK   13  A    between atoms: _25  and  _26
REMARK   14  A    between atoms: _27  and  _29
REMARK   15  A    between atoms: _29  and  _30
REMARK   16  A    between atoms: _29  and  _31
REMARK   17  A    between atoms: _31  and  _32
REMARK   18  A    between atoms: _31  and  _33
REMARK   19  A    between atoms: _34  and  _36
REMARK                            x       y       z     vdW  Elec       q    Type
REMARK                         _______ _______ _______ _____ _____    ______ ____
ROOT
ATOM      1  C   UNL     1       7.367   2.458  34.468  0.00  0.00    +0.163 C 
ENDROOT
BRANCH   1   2
ATOM      2  O   UNL     1       7.348   2.522  35.904  0.00  0.00    -0.388 OA
ATOM      3  H   UNL     1       7.630   3.395  36.190  0.00  0.00    +0.210 HD
ENDBRANCH   1   2
BRANCH   1   4
ATOM      4  C   UNL     1       7.807   3.802  33.863  0.00  0.00    +0.175 C 
BRANCH   4   5
ATOM      5  C   UNL     1       7.176   4.998  34.592  0.00  0.00    +0.176 C 
ATOM      6  O   UNL     1       7.874   5.171  35.855  0.00  0.00    -0.332 OA
ATOM      7  C   UNL     1       7.475   6.340  36.646  0.00  0.00    +0.277 C 
ATOM      8  C   UNL     1       5.946   6.331  36.890  0.00  0.00    +0.110 C 
ATOM      9  C   UNL     1       5.161   6.117  35.578  0.00  0.00    +0.143 C 
ATOM     10  C   UNL     1       5.660   4.877  34.836  0.00  0.00    +0.133 C 
BRANCH  10  11
ATOM     11  N   UNL     1       4.965   4.734  33.547  0.00  0.00    -0.308 N 
ATOM     12  H   UNL     1       5.173   5.405  32.821  0.00  0.00    +0.149 HD
ATOM     13  C   UNL     1       4.077   3.774  33.273  0.00  0.00    +0.210 C 
ATOM     14  C   UNL     1       3.762   2.782  34.408  0.00  0.00    +0.109 C 
ATOM     15  O   UNL     1       3.521   3.670  32.179  0.00  0.00    -0.276 OA
ENDBRANCH  10  11
BRANCH   7  16
ATOM     16  C   UNL     1       7.875   7.647  35.930  0.00  0.00    +0.414 C 
ATOM     17  O   UNL     1       7.927   7.690  34.702  0.00  0.00    -0.240 OA
ATOM     18  O   UNL     1       8.146   8.657  36.581  0.00  0.00    -0.240 OA
ENDBRANCH   7  16
BRANCH   7  19
ATOM     19  O   UNL     1       8.143   6.262  37.931  0.00  0.00    -0.343 OA
ATOM     20  C   UNL     1       9.534   5.854  37.874  0.00  0.00    +0.198 C 
ENDBRANCH   7  19
BRANCH   9  21
ATOM     21  O   UNL     1       3.771   5.964  35.868  0.00  0.00    -0.390 OA
ATOM     22  H   UNL     1       3.252   6.402  35.189  0.00  0.00    +0.210 HD
ENDBRANCH   9  21
ENDBRANCH   4   5
BRANCH   4  23
ATOM     23  O   UNL     1       7.480   3.846  32.460  0.00  0.00    -0.387 OA
ATOM     24  H   UNL     1       8.194   4.269  31.978  0.00  0.00    +0.210 HD
ENDBRANCH   4  23
ENDBRANCH   1   4
BRANCH   1  25
ATOM     25  C   UNL     1       8.317   1.357  34.008  0.00  0.00    +0.141 C 
BRANCH  25  28
ATOM     26  C   UNL     1      10.564   1.844  34.915  0.00  0.00    +0.401 C 
ATOM     27  O   UNL     1      10.290   1.459  36.054  0.00  0.00    -0.226 OA
ATOM     28  N   UNL     1       9.700   1.838  33.899  0.00  0.00    -0.279 N 
ATOM     29  H   UNL     1      10.015   2.183  33.003  0.00  0.00    +0.152 HD
BRANCH  26  30
ATOM     30  O   UNL     1      11.879   2.336  34.645  0.00  0.00    -0.444 OA
BRANCH  30  31
ATOM     31  C   UNL     1      12.429   2.908  35.835  0.00  0.00    +0.292 C 
BRANCH  31  33
ATOM     32  N   UNL     1      13.442   5.144  36.149  0.00  0.00    -0.131 NA
ATOM     33  C   UNL     1      13.426   3.940  35.494  0.00  0.00    +0.120 A 
ATOM     34  C   UNL     1      14.432   3.926  34.554  0.00  0.00    +0.137 A 
ATOM     35  N   UNL     1      15.013   5.150  34.680  0.00  0.00    -0.251 N 
ATOM     36  N   UNL     1      14.419   5.880  35.639  0.00  0.00    -0.065 NA
BRANCH  35  37
ATOM     37  C   UNL     1      16.129   5.693  33.938  0.00  0.00    +0.156 C 
BRANCH  37  38
ATOM     38  C   UNL     1      16.230   7.204  34.085  0.00  0.00    +0.143 C 
BRANCH  38  39
ATOM     39  C   UNL     1      15.655   7.882  32.875  0.00  0.00    +0.306 C 
ATOM     40  O   UNL     1      14.625   8.537  32.866  0.00  0.00    -0.251 OA
BRANCH  39  41
ATOM     41  O   UNL     1      16.396   7.682  31.762  0.00  0.00    -0.481 OA
ATOM     42  H   UNL     1      17.125   7.042  31.875  0.00  0.00    +0.295 HD
ENDBRANCH  39  41
ENDBRANCH  38  39
ENDBRANCH  37  38
ENDBRANCH  35  37
ENDBRANCH  31  33
ENDBRANCH  30  31
ENDBRANCH  26  30
ENDBRANCH  25  28
ENDBRANCH   1  25
TORSDOF 17
