REMARK VINA RESULT:    -6.772      0.000      0.000
REMARK INTER + INTRA:         -14.652
REMARK INTER:                 -12.903
REMARK INTRA:                  -1.750
REMARK UNBOUND:                -2.536
REMARK  Name = lig_assembled_44.pdb
REMARK  17 active torsions:
REMARK  status: ('A' for Active; 'I' for Inactive)
REMARK    1  A    between atoms: _2  and  _9
REMARK    2  A    between atoms: _4  and  _19
REMARK    3  A    between atoms: _6  and  _7
REMARK    4  A    between atoms: _6  and  _19
REMARK    5  A    between atoms: _9  and  _10
REMARK    6  A    between atoms: _15  and  _35
REMARK    7  A    between atoms: _17  and  _23
REMARK    8  A    between atoms: _18  and  _22
REMARK    9  A    between atoms: _22  and  _23
REMARK   10  A    between atoms: _25  and  _26
REMARK   11  A    between atoms: _27  and  _28
REMARK   12  A    between atoms: _29  and  _31
REMARK   13  A    between atoms: _31  and  _32
REMARK   14  A    between atoms: _31  and  _33
REMARK   15  A    between atoms: _33  and  _34
REMARK   16  A    between atoms: _33  and  _35
REMARK   17  A    between atoms: _36  and  _38
REMARK                            x       y       z     vdW  Elec       q    Type
REMARK                         _______ _______ _______ _____ _____    ______ ____
ROOT
ATOM      1  C   UNL     1       3.554   3.671  32.388  0.00  0.00    +0.163 C 
ENDROOT
BRANCH   1   2
ATOM      2  O   UNL     1       2.657   3.995  33.463  0.00  0.00    -0.388 OA
ATOM      3  H   UNL     1       2.906   4.841  33.844  0.00  0.00    +0.210 HD
ENDBRANCH   1   2
BRANCH   1   4
ATOM      4  C   UNL     1       2.862   2.748  31.391  0.00  0.00    +0.141 C 
BRANCH   4   7
ATOM      5  C   UNL     1       1.253   3.089  29.547  0.00  0.00    +0.401 C 
ATOM      6  O   UNL     1       0.628   2.051  29.774  0.00  0.00    -0.226 OA
ATOM      7  N   UNL     1       2.314   3.490  30.249  0.00  0.00    -0.279 N 
ATOM      8  H   UNL     1       2.766   4.352  29.979  0.00  0.00    +0.152 HD
BRANCH   5   9
ATOM      9  O   UNL     1       0.836   3.928  28.466  0.00  0.00    -0.444 OA
BRANCH   9  10
ATOM     10  C   UNL     1       0.608   3.130  27.302  0.00  0.00    +0.292 C 
BRANCH  10  12
ATOM     11  N   UNL     1      -0.281   4.965  25.893  0.00  0.00    -0.131 NA
ATOM     12  C   UNL     1       0.638   3.969  26.089  0.00  0.00    +0.120 A 
ATOM     13  C   UNL     1       1.510   3.944  25.025  0.00  0.00    +0.137 A 
ATOM     14  N   UNL     1       1.116   4.999  24.255  0.00  0.00    -0.247 N 
ATOM     15  N   UNL     1       0.015   5.585  24.758  0.00  0.00    -0.065 NA
BRANCH  14  16
ATOM     16  C   UNL     1       1.731   5.505  23.043  0.00  0.00    +0.180 C 
BRANCH  16  17
ATOM     17  C   UNL     1       1.210   4.789  21.819  0.00  0.00    -0.026 A 
ATOM     18  C   UNL     1       1.962   3.773  21.208  0.00  0.00    +0.006 A 
ATOM     19  C   UNL     1       1.486   3.125  20.068  0.00  0.00    +0.015 A 
ATOM     20  C   UNL     1       0.253   3.489  19.529  0.00  0.00    +0.018 A 
ATOM     21 BR   UNL     1      -0.399   2.598  17.995  0.00  0.00    -0.050 Br
ATOM     22  C   UNL     1      -0.502   4.503  20.114  0.00  0.00    +0.015 A 
ATOM     23  C   UNL     1      -0.022   5.156  21.253  0.00  0.00    +0.006 A 
ENDBRANCH  16  17
ENDBRANCH  14  16
ENDBRANCH  10  12
ENDBRANCH   9  10
ENDBRANCH   5   9
ENDBRANCH   4   7
ENDBRANCH   1   4
BRANCH   1  24
ATOM     24  C   UNL     1       4.827   2.990  32.921  0.00  0.00    +0.175 C 
BRANCH  24  25
ATOM     25  C   UNL     1       5.367   3.679  34.183  0.00  0.00    +0.176 C 
ATOM     26  O   UNL     1       5.376   5.113  33.940  0.00  0.00    -0.332 OA
ATOM     27  C   UNL     1       5.765   5.946  35.081  0.00  0.00    +0.277 C 
ATOM     28  C   UNL     1       7.141   5.499  35.634  0.00  0.00    +0.110 C 
ATOM     29  C   UNL     1       7.190   3.976  35.878  0.00  0.00    +0.143 C 
ATOM     30  C   UNL     1       6.764   3.207  34.627  0.00  0.00    +0.133 C 
BRANCH  30  31
ATOM     31  N   UNL     1       6.730   1.761  34.898  0.00  0.00    -0.308 N 
ATOM     32  H   UNL     1       6.045   1.420  35.558  0.00  0.00    +0.149 HD
ATOM     33  C   UNL     1       7.547   0.869  34.330  0.00  0.00    +0.210 C 
ATOM     34  C   UNL     1       8.597   1.423  33.349  0.00  0.00    +0.109 C 
ATOM     35  O   UNL     1       7.486  -0.338  34.565  0.00  0.00    -0.276 OA
ENDBRANCH  30  31
BRANCH  27  36
ATOM     36  C   UNL     1       4.709   5.865  36.203  0.00  0.00    +0.414 C 
ATOM     37  O   UNL     1       3.563   5.495  35.950  0.00  0.00    -0.240 OA
ATOM     38  O   UNL     1       5.002   6.169  37.360  0.00  0.00    -0.240 OA
ENDBRANCH  27  36
BRANCH  27  39
ATOM     39  O   UNL     1       5.882   7.316  34.618  0.00  0.00    -0.343 OA
ATOM     40  C   UNL     1       7.238   7.822  34.538  0.00  0.00    +0.198 C 
ENDBRANCH  27  39
BRANCH  29  41
ATOM     41  O   UNL     1       8.516   3.589  36.240  0.00  0.00    -0.390 OA
ATOM     42  H   UNL     1       8.487   3.051  37.034  0.00  0.00    +0.210 HD
ENDBRANCH  29  41
ENDBRANCH  24  25
BRANCH  24  43
ATOM     43  O   UNL     1       5.841   2.964  31.897  0.00  0.00    -0.387 OA
ATOM     44  H   UNL     1       5.572   2.367  31.194  0.00  0.00    +0.210 HD
ENDBRANCH  24  43
ENDBRANCH   1  24
TORSDOF 15
