REMARK VINA RESULT:    -6.759      0.000      0.000
REMARK INTER + INTRA:         -17.004
REMARK INTER:                 -14.882
REMARK INTRA:                  -2.121
REMARK UNBOUND:                -3.133
REMARK  Name = lig_assembled_90.pdb
REMARK  22 active torsions:
REMARK  status: ('A' for Active; 'I' for Inactive)
REMARK    1  A    between atoms: _2  and  _13
REMARK    2  A    between atoms: _3  and  _15
REMARK    3  A    between atoms: _4  and  _17
REMARK    4  A    between atoms: _8  and  _28
REMARK    5  A    between atoms: _10  and  _11
REMARK    6  A    between atoms: _10  and  _28
REMARK    7  A    between atoms: _13  and  _14
REMARK    8  A    between atoms: _15  and  _16
REMARK    9  A    between atoms: _16  and  _17
REMARK   10  A    between atoms: _16  and  _22
REMARK   11  A    between atoms: _24  and  _44
REMARK   12  A    between atoms: _26  and  _32
REMARK   13  A    between atoms: _27  and  _31
REMARK   14  A    between atoms: _31  and  _32
REMARK   15  A    between atoms: _34  and  _35
REMARK   16  A    between atoms: _36  and  _37
REMARK   17  A    between atoms: _38  and  _40
REMARK   18  A    between atoms: _40  and  _41
REMARK   19  A    between atoms: _40  and  _42
REMARK   20  A    between atoms: _42  and  _43
REMARK   21  A    between atoms: _42  and  _44
REMARK   22  A    between atoms: _45  and  _47
REMARK                            x       y       z     vdW  Elec       q    Type
REMARK                         _______ _______ _______ _____ _____    ______ ____
ROOT
ATOM      1  C   UNL     1      18.705   4.642  25.203  0.00  0.00    +0.401 C 
ATOM      2  O   UNL     1      19.006   4.235  24.078  0.00  0.00    -0.226 OA
ATOM      3  N   UNL     1      18.449   3.844  26.240  0.00  0.00    -0.279 N 
ATOM      4  H   UNL     1      18.220   4.272  27.126  0.00  0.00    +0.152 HD
ENDROOT
BRANCH   3   5
ATOM      5  C   UNL     1      18.482   2.378  26.168  0.00  0.00    +0.141 C 
BRANCH   5   6
ATOM      6  C   UNL     1      17.082   1.775  26.201  0.00  0.00    +0.163 C 
BRANCH   6   7
ATOM      7  O   UNL     1      16.177   2.672  26.867  0.00  0.00    -0.388 OA
ATOM      8  H   UNL     1      16.678   3.345  27.333  0.00  0.00    +0.210 HD
ENDBRANCH   6   7
BRANCH   6   9
ATOM      9  C   UNL     1      16.612   1.486  24.765  0.00  0.00    +0.175 C 
BRANCH   9  10
ATOM     10  C   UNL     1      17.689   0.769  23.938  0.00  0.00    +0.176 C 
ATOM     11  O   UNL     1      17.744   1.402  22.631  0.00  0.00    -0.332 OA
ATOM     12  C   UNL     1      18.796   0.914  21.734  0.00  0.00    +0.277 C 
ATOM     13  C   UNL     1      18.696  -0.622  21.568  0.00  0.00    +0.110 C 
ATOM     14  C   UNL     1      18.602  -1.338  22.932  0.00  0.00    +0.143 C 
ATOM     15  C   UNL     1      17.478  -0.749  23.784  0.00  0.00    +0.133 C 
BRANCH  15  16
ATOM     16  N   UNL     1      17.455  -1.380  25.113  0.00  0.00    -0.308 N 
ATOM     17  H   UNL     1      18.189  -1.137  25.763  0.00  0.00    +0.149 HD
ATOM     18  C   UNL     1      16.527  -2.252  25.517  0.00  0.00    +0.210 C 
ATOM     19  C   UNL     1      15.436  -2.621  24.494  0.00  0.00    +0.109 C 
ATOM     20  O   UNL     1      16.524  -2.753  26.642  0.00  0.00    -0.276 OA
ENDBRANCH  15  16
BRANCH  12  21
ATOM     21  C   UNL     1      20.193   1.284  22.277  0.00  0.00    +0.414 C 
ATOM     22  O   UNL     1      21.143   1.413  21.507  0.00  0.00    -0.240 OA
ATOM     23  O   UNL     1      20.368   1.452  23.484  0.00  0.00    -0.240 OA
ENDBRANCH  12  21
BRANCH  14  24
ATOM     24  O   UNL     1      18.360  -2.731  22.729  0.00  0.00    -0.390 OA
ATOM     25  H   UNL     1      18.097  -3.134  23.560  0.00  0.00    +0.210 HD
ENDBRANCH  14  24
BRANCH  12  26
ATOM     26  O   UNL     1      18.600   1.529  20.435  0.00  0.00    -0.343 OA
ATOM     27  C   UNL     1      17.214   1.710  20.047  0.00  0.00    +0.198 C 
ENDBRANCH  12  26
ENDBRANCH   9  10
BRANCH   9  28
ATOM     28  O   UNL     1      16.220   2.712  24.115  0.00  0.00    -0.387 OA
ATOM     29  H   UNL     1      16.780   3.430  24.420  0.00  0.00    +0.210 HD
ENDBRANCH   9  28
ENDBRANCH   6   9
ENDBRANCH   5   6
ENDBRANCH   3   5
BRANCH   1  30
ATOM     30  O   UNL     1      18.623   6.051  25.433  0.00  0.00    -0.444 OA
BRANCH  30  31
ATOM     31  C   UNL     1      19.802   6.494  26.111  0.00  0.00    +0.292 C 
BRANCH  31  33
ATOM     32  N   UNL     1      19.164   7.222  28.394  0.00  0.00    -0.131 NA
ATOM     33  C   UNL     1      19.467   7.540  27.095  0.00  0.00    +0.120 A 
ATOM     34  C   UNL     1      19.394   8.906  26.940  0.00  0.00    +0.137 A 
ATOM     35  N   UNL     1      19.065   9.363  28.181  0.00  0.00    -0.242 N 
ATOM     36  N   UNL     1      18.908   8.347  29.049  0.00  0.00    -0.065 NA
BRANCH  35  37
ATOM     37  C   UNL     1      18.780  10.717  28.589  0.00  0.00    +0.240 C 
BRANCH  37  38
ATOM     38  C   UNL     1      18.803  10.856  30.093  0.00  0.00    +0.235 C 
ATOM     39  O   UNL     1      19.828  11.123  30.719  0.00  0.00    -0.274 OA
ATOM     40  N   UNL     1      17.578  10.718  30.717  0.00  0.00    -0.311 N 
ATOM     41  H   UNL     1      16.830  10.238  30.221  0.00  0.00    +0.149 HD
BRANCH  40  42
ATOM     42  C   UNL     1      17.481  10.746  32.170  0.00  0.00    +0.137 C 
BRANCH  42  43
ATOM     43  C   UNL     1      16.127  11.310  32.626  0.00  0.00    +0.151 C 
BRANCH  43  44
ATOM     44  O   UNL     1      15.435  11.822  31.481  0.00  0.00    -0.388 OA
ATOM     45  H   UNL     1      16.007  12.477  31.031  0.00  0.00    +0.210 HD
ENDBRANCH  43  44
BRANCH  43  46
ATOM     46  C   UNL     1      15.290  10.254  33.358  0.00  0.00    +0.162 C 
BRANCH  46  47
ATOM     47  N   UNL     1      16.089   9.438  34.261  0.00  0.00    -0.269 N 
ATOM     48  C   UNL     1      16.579   9.906  35.461  0.00  0.00    +0.113 A 
ATOM     49  C   UNL     1      17.309   8.872  35.995  0.00  0.00    +0.137 A 
ATOM     50  N   UNL     1      17.287   7.784  35.162  0.00  0.00    -0.172 NA
ATOM     51  C   UNL     1      16.537   8.146  34.133  0.00  0.00    +0.450 A 
ATOM     52  N   UNL     1      16.261   7.259  33.029  0.00  0.00    +0.120 N 
ATOM     53  O   UNL     1      15.462   7.647  32.166  0.00  0.00    +0.045 OA
ATOM     54  O   UNL     1      16.851   6.172  33.014  0.00  0.00    -0.573 OA
ENDBRANCH  46  47
ENDBRANCH  43  46
ENDBRANCH  42  43
ENDBRANCH  40  42
ENDBRANCH  37  38
ENDBRANCH  35  37
ENDBRANCH  31  33
ENDBRANCH  30  31
ENDBRANCH   1  30
TORSDOF 20
