REMARK VINA RESULT:    -7.342      0.000      0.000
REMARK INTER + INTRA:         -15.906
REMARK INTER:                 -13.376
REMARK INTRA:                  -2.530
REMARK UNBOUND:                -1.911
REMARK  Name = lig_assembled_26.pdb
REMARK  20 active torsions:
REMARK  status: ('A' for Active; 'I' for Inactive)
REMARK    1  A    between atoms: _2  and  _9
REMARK    2  A    between atoms: _4  and  _23
REMARK    3  A    between atoms: _6  and  _7
REMARK    4  A    between atoms: _6  and  _23
REMARK    5  A    between atoms: _9  and  _10
REMARK    6  A    between atoms: _9  and  _11
REMARK    7  A    between atoms: _11  and  _12
REMARK    8  A    between atoms: _12  and  _13
REMARK    9  A    between atoms: _19  and  _39
REMARK   10  A    between atoms: _21  and  _27
REMARK   11  A    between atoms: _22  and  _26
REMARK   12  A    between atoms: _26  and  _27
REMARK   13  A    between atoms: _29  and  _30
REMARK   14  A    between atoms: _31  and  _32
REMARK   15  A    between atoms: _33  and  _35
REMARK   16  A    between atoms: _35  and  _36
REMARK   17  A    between atoms: _35  and  _37
REMARK   18  A    between atoms: _37  and  _38
REMARK   19  A    between atoms: _37  and  _39
REMARK   20  A    between atoms: _40  and  _42
REMARK                            x       y       z     vdW  Elec       q    Type
REMARK                         _______ _______ _______ _____ _____    ______ ____
ROOT
ATOM      1  C   UNL     1       7.331   3.575  33.605  0.00  0.00    +0.163 C 
ENDROOT
BRANCH   1   2
ATOM      2  O   UNL     1       7.783   4.759  32.928  0.00  0.00    -0.388 OA
ATOM      3  H   UNL     1       8.504   5.156  33.423  0.00  0.00    +0.210 HD
ENDBRANCH   1   2
BRANCH   1   4
ATOM      4  C   UNL     1       6.042   3.854  34.398  0.00  0.00    +0.175 C 
BRANCH   4   5
ATOM      5  C   UNL     1       6.185   5.069  35.325  0.00  0.00    +0.176 C 
ATOM      6  O   UNL     1       7.535   5.062  35.867  0.00  0.00    -0.332 OA
ATOM      7  C   UNL     1       7.890   6.216  36.698  0.00  0.00    +0.277 C 
ATOM      8  C   UNL     1       6.866   6.391  37.847  0.00  0.00    +0.110 C 
ATOM      9  C   UNL     1       5.415   6.373  37.323  0.00  0.00    +0.143 C 
ATOM     10  C   UNL     1       5.155   5.132  36.469  0.00  0.00    +0.133 C 
BRANCH  10  11
ATOM     11  N   UNL     1       3.797   5.170  35.905  0.00  0.00    -0.308 N 
ATOM     12  H   UNL     1       3.607   5.843  35.176  0.00  0.00    +0.149 HD
ATOM     13  C   UNL     1       2.798   4.372  36.293  0.00  0.00    +0.210 C 
ATOM     14  C   UNL     1       3.112   3.374  37.423  0.00  0.00    +0.109 C 
ATOM     15  O   UNL     1       1.674   4.416  35.793  0.00  0.00    -0.276 OA
ENDBRANCH  10  11
BRANCH   7  16
ATOM     16  C   UNL     1       7.941   7.505  35.852  0.00  0.00    +0.414 C 
ATOM     17  O   UNL     1       8.133   8.594  36.392  0.00  0.00    -0.240 OA
ATOM     18  O   UNL     1       7.791   7.456  34.631  0.00  0.00    -0.240 OA
ENDBRANCH   7  16
BRANCH   7  19
ATOM     19  O   UNL     1       9.194   5.963  37.282  0.00  0.00    -0.343 OA
ATOM     20  C   UNL     1       9.168   5.358  38.600  0.00  0.00    +0.198 C 
ENDBRANCH   7  19
BRANCH   9  21
ATOM     21  O   UNL     1       4.506   6.385  38.425  0.00  0.00    -0.390 OA
ATOM     22  H   UNL     1       3.924   5.623  38.368  0.00  0.00    +0.210 HD
ENDBRANCH   9  21
ENDBRANCH   4   5
BRANCH   4  23
ATOM     23  O   UNL     1       5.666   2.689  35.159  0.00  0.00    -0.387 OA
ATOM     24  H   UNL     1       4.815   2.366  34.852  0.00  0.00    +0.210 HD
ENDBRANCH   4  23
ENDBRANCH   1   4
BRANCH   1  25
ATOM     25  C   UNL     1       7.077   2.461  32.596  0.00  0.00    +0.141 C 
BRANCH  25  28
ATOM     26  C   UNL     1       5.132   1.158  31.806  0.00  0.00    +0.401 C 
ATOM     27  O   UNL     1       5.806   0.188  31.452  0.00  0.00    -0.226 OA
ATOM     28  N   UNL     1       5.644   2.265  32.344  0.00  0.00    -0.279 N 
ATOM     29  H   UNL     1       5.011   3.012  32.593  0.00  0.00    +0.152 HD
BRANCH  26  30
ATOM     30  O   UNL     1       3.713   1.118  31.633  0.00  0.00    -0.444 OA
BRANCH  30  31
ATOM     31  C   UNL     1       3.163   2.412  31.894  0.00  0.00    +0.292 C 
BRANCH  31  33
ATOM     32  N   UNL     1       1.468   3.914  30.880  0.00  0.00    -0.131 NA
ATOM     33  C   UNL     1       2.324   2.851  30.766  0.00  0.00    +0.120 A 
ATOM     34  C   UNL     1       2.240   2.341  29.491  0.00  0.00    +0.137 A 
ATOM     35  N   UNL     1       1.298   3.114  28.882  0.00  0.00    -0.248 N 
ATOM     36  N   UNL     1       0.856   4.079  29.714  0.00  0.00    -0.065 NA
BRANCH  35  37
ATOM     37  C   UNL     1       0.808   3.069  27.513  0.00  0.00    +0.113 C 
ATOM     38  C   UNL     1      -0.574   3.708  27.312  0.00  0.00    +0.033 C 
BRANCH  37  39
ATOM     39  C   UNL     1       1.835   3.601  26.497  0.00  0.00    +0.106 C 
BRANCH  39  40
ATOM     40  C   UNL     1       1.998   2.727  25.268  0.00  0.00    +0.165 C 
ATOM     41  O   UNL     1       2.247   1.525  25.344  0.00  0.00    -0.292 OA
BRANCH  40  42
ATOM     42  C   UNL     1       1.894   3.357  23.916  0.00  0.00    +0.017 A 
ATOM     43  C   UNL     1       1.785   4.741  23.739  0.00  0.00    +0.011 A 
ATOM     44  C   UNL     1       1.732   5.279  22.451  0.00  0.00    +0.001 A 
ATOM     45  C   UNL     1       1.781   4.441  21.337  0.00  0.00    +0.000 A 
ATOM     46  C   UNL     1       1.877   3.063  21.506  0.00  0.00    +0.001 A 
ATOM     47  C   UNL     1       1.934   2.522  22.791  0.00  0.00    +0.011 A 
ENDBRANCH  40  42
ENDBRANCH  39  40
ENDBRANCH  37  39
ENDBRANCH  35  37
ENDBRANCH  31  33
ENDBRANCH  30  31
ENDBRANCH  26  30
ENDBRANCH  25  28
ENDBRANCH   1  25
TORSDOF 17
