REMARK VINA RESULT:    -6.498      0.000      0.000
REMARK INTER + INTRA:         -13.159
REMARK INTER:                 -11.225
REMARK INTRA:                  -1.934
REMARK UNBOUND:                -1.914
REMARK  Name = lig_assembled_56.pdb
REMARK  16 active torsions:
REMARK  status: ('A' for Active; 'I' for Inactive)
REMARK    1  A    between atoms: _2  and  _10
REMARK    2  A    between atoms: _5  and  _18
REMARK    3  A    between atoms: _7  and  _8
REMARK    4  A    between atoms: _7  and  _18
REMARK    5  A    between atoms: _14  and  _34
REMARK    6  A    between atoms: _16  and  _22
REMARK    7  A    between atoms: _17  and  _21
REMARK    8  A    between atoms: _21  and  _22
REMARK    9  A    between atoms: _24  and  _25
REMARK   10  A    between atoms: _26  and  _27
REMARK   11  A    between atoms: _28  and  _30
REMARK   12  A    between atoms: _30  and  _31
REMARK   13  A    between atoms: _30  and  _32
REMARK   14  A    between atoms: _32  and  _33
REMARK   15  A    between atoms: _32  and  _34
REMARK   16  A    between atoms: _35  and  _37
REMARK                            x       y       z     vdW  Elec       q    Type
REMARK                         _______ _______ _______ _____ _____    ______ ____
ROOT
ATOM      1  C   UNL     1      -2.060   8.375  13.456  0.00  0.00    +0.163 C 
ENDROOT
BRANCH   1   2
ATOM      2  O   UNL     1      -2.331   8.360  12.045  0.00  0.00    -0.388 OA
ATOM      3  H   UNL     1      -1.513   8.490  11.559  0.00  0.00    +0.210 HD
ENDBRANCH   1   2
BRANCH   1   4
ATOM      4  C   UNL     1      -2.419   7.027  14.071  0.00  0.00    +0.141 C 
BRANCH   4   7
ATOM      5  C   UNL     1      -1.869   6.395  16.395  0.00  0.00    +0.401 C 
ATOM      6  O   UNL     1      -3.036   6.462  16.789  0.00  0.00    -0.226 OA
ATOM      7  N   UNL     1      -1.490   6.649  15.142  0.00  0.00    -0.279 N 
ATOM      8  H   UNL     1      -0.507   6.576  14.918  0.00  0.00    +0.152 HD
BRANCH   5   9
ATOM      9  O   UNL     1      -0.844   6.030  17.322  0.00  0.00    -0.444 OA
BRANCH   9  10
ATOM     10  C   UNL     1      -1.159   4.764  17.909  0.00  0.00    +0.292 C 
BRANCH  10  12
ATOM     11  N   UNL     1       1.093   3.996  18.588  0.00  0.00    -0.131 NA
ATOM     12  C   UNL     1      -0.159   4.412  18.935  0.00  0.00    +0.121 A 
ATOM     13  C   UNL     1      -0.263   4.428  20.308  0.00  0.00    +0.143 A 
ATOM     14  N   UNL     1       0.973   4.027  20.762  0.00  0.00    -0.220 N 
ATOM     15  N   UNL     1       1.774   3.762  19.701  0.00  0.00    -0.060 NA
BRANCH  14  16
ATOM     16  C   UNL     1       1.430   3.896  22.096  0.00  0.00    +0.070 A 
ATOM     17  C   UNL     1       1.800   2.651  22.611  0.00  0.00    +0.047 A 
ATOM     18  C   UNL     1       2.222   2.592  23.930  0.00  0.00    +0.113 A 
ATOM     19  N   UNL     1       2.297   3.666  24.744  0.00  0.00    -0.263 NA
ATOM     20  C   UNL     1       1.936   4.857  24.221  0.00  0.00    +0.113 A 
ATOM     21  C   UNL     1       1.502   5.025  22.918  0.00  0.00    +0.047 A 
ENDBRANCH  14  16
ENDBRANCH  10  12
ENDBRANCH   9  10
ENDBRANCH   5   9
ENDBRANCH   4   7
ENDBRANCH   1   4
BRANCH   1  22
ATOM     22  C   UNL     1      -2.856   9.489  14.158  0.00  0.00    +0.175 C 
BRANCH  22  23
ATOM     23  C   UNL     1      -3.154  10.666  13.218  0.00  0.00    +0.176 C 
ATOM     24  O   UNL     1      -1.902  11.076  12.603  0.00  0.00    -0.332 OA
ATOM     25  C   UNL     1      -2.009  12.128  11.587  0.00  0.00    +0.277 C 
ATOM     26  C   UNL     1      -2.737  13.366  12.166  0.00  0.00    +0.110 C 
ATOM     27  C   UNL     1      -4.060  12.976  12.859  0.00  0.00    +0.143 C 
ATOM     28  C   UNL     1      -3.833  11.873  13.893  0.00  0.00    +0.133 C 
BRANCH  28  29
ATOM     29  N   UNL     1      -5.113  11.450  14.484  0.00  0.00    -0.308 N 
ATOM     30  H   UNL     1      -5.788  11.006  13.878  0.00  0.00    +0.149 HD
ATOM     31  C   UNL     1      -5.439  11.614  15.769  0.00  0.00    +0.210 C 
ATOM     32  C   UNL     1      -4.398  12.316  16.660  0.00  0.00    +0.109 C 
ATOM     33  O   UNL     1      -6.513  11.236  16.239  0.00  0.00    -0.276 OA
ENDBRANCH  28  29
BRANCH  25  34
ATOM     34  C   UNL     1      -2.769  11.615  10.347  0.00  0.00    +0.414 C 
ATOM     35  O   UNL     1      -2.649  10.445   9.985  0.00  0.00    -0.240 OA
ATOM     36  O   UNL     1      -3.503  12.371   9.708  0.00  0.00    -0.240 OA
ENDBRANCH  25  34
BRANCH  27  37
ATOM     37  O   UNL     1      -4.619  14.120  13.506  0.00  0.00    -0.390 OA
ATOM     38  H   UNL     1      -5.456  13.881  13.912  0.00  0.00    +0.210 HD
ENDBRANCH  27  37
BRANCH  25  39
ATOM     39  O   UNL     1      -0.665  12.523  11.208  0.00  0.00    -0.343 OA
ATOM     40  C   UNL     1      -0.361  13.927  11.406  0.00  0.00    +0.198 C 
ENDBRANCH  25  39
ENDBRANCH  22  23
BRANCH  22  41
ATOM     41  O   UNL     1      -2.143   9.951  15.322  0.00  0.00    -0.387 OA
ATOM     42  H   UNL     1      -2.491   9.516  16.105  0.00  0.00    +0.210 HD
ENDBRANCH  22  41
ENDBRANCH   1  22
TORSDOF 14
