REMARK VINA RESULT:    -6.160      0.000      0.000
REMARK INTER + INTRA:         -13.836
REMARK INTER:                 -12.181
REMARK INTRA:                  -1.655
REMARK UNBOUND:                -2.094
REMARK  Name = lig_assembled_19.pdb
REMARK  20 active torsions:
REMARK  status: ('A' for Active; 'I' for Inactive)
REMARK    1  A    between atoms: _2  and  _9
REMARK    2  A    between atoms: _4  and  _18
REMARK    3  A    between atoms: _5  and  _11
REMARK    4  A    between atoms: _6  and  _7
REMARK    5  A    between atoms: _6  and  _18
REMARK    6  A    between atoms: _9  and  _10
REMARK    7  A    between atoms: _10  and  _13
REMARK    8  A    between atoms: _11  and  _13
REMARK    9  A    between atoms: _14  and  _34
REMARK   10  A    between atoms: _16  and  _22
REMARK   11  A    between atoms: _17  and  _21
REMARK   12  A    between atoms: _21  and  _22
REMARK   13  A    between atoms: _24  and  _25
REMARK   14  A    between atoms: _26  and  _27
REMARK   15  A    between atoms: _28  and  _30
REMARK   16  A    between atoms: _30  and  _31
REMARK   17  A    between atoms: _30  and  _32
REMARK   18  A    between atoms: _32  and  _33
REMARK   19  A    between atoms: _32  and  _34
REMARK   20  A    between atoms: _35  and  _37
REMARK                            x       y       z     vdW  Elec       q    Type
REMARK                         _______ _______ _______ _____ _____    ______ ____
ROOT
ATOM      1  C   UNL     1       3.397   3.585  32.507  0.00  0.00    +0.163 C 
ENDROOT
BRANCH   1   2
ATOM      2  O   UNL     1       2.491   3.735  33.612  0.00  0.00    -0.388 OA
ATOM      3  H   UNL     1       1.657   3.309  33.403  0.00  0.00    +0.210 HD
ENDBRANCH   1   2
BRANCH   1   4
ATOM      4  C   UNL     1       4.717   2.939  32.961  0.00  0.00    +0.175 C 
BRANCH   4   5
ATOM      5  C   UNL     1       5.313   3.644  34.189  0.00  0.00    +0.176 C 
ATOM      6  O   UNL     1       5.306   5.075  33.930  0.00  0.00    -0.332 OA
ATOM      7  C   UNL     1       5.745   5.923  35.042  0.00  0.00    +0.277 C 
ATOM      8  C   UNL     1       7.147   5.487  35.534  0.00  0.00    +0.110 C 
ATOM      9  C   UNL     1       7.213   3.967  35.793  0.00  0.00    +0.143 C 
ATOM     10  C   UNL     1       6.731   3.182  34.573  0.00  0.00    +0.133 C 
BRANCH  10  11
ATOM     11  N   UNL     1       6.716   1.739  34.862  0.00  0.00    -0.308 N 
ATOM     12  H   UNL     1       6.047   1.401  35.540  0.00  0.00    +0.149 HD
ATOM     13  C   UNL     1       7.527   0.848  34.287  0.00  0.00    +0.210 C 
ATOM     14  C   UNL     1       8.552   1.398  33.277  0.00  0.00    +0.109 C 
ATOM     15  O   UNL     1       7.482  -0.357  34.538  0.00  0.00    -0.276 OA
ENDBRANCH  10  11
BRANCH   7  16
ATOM     16  C   UNL     1       4.743   5.852  36.213  0.00  0.00    +0.414 C 
ATOM     17  O   UNL     1       5.101   6.136  37.355  0.00  0.00    -0.240 OA
ATOM     18  O   UNL     1       3.576   5.511  36.015  0.00  0.00    -0.240 OA
ENDBRANCH   7  16
BRANCH   9  19
ATOM     19  O   UNL     1       8.555   3.588  36.097  0.00  0.00    -0.390 OA
ATOM     20  H   UNL     1       9.149   3.952  35.436  0.00  0.00    +0.210 HD
ENDBRANCH   9  19
BRANCH   7  21
ATOM     21  O   UNL     1       5.834   7.288  34.558  0.00  0.00    -0.343 OA
ATOM     22  C   UNL     1       7.179   7.827  34.491  0.00  0.00    +0.198 C 
ENDBRANCH   7  21
ENDBRANCH   4   5
BRANCH   4  23
ATOM     23  O   UNL     1       5.669   2.938  31.878  0.00  0.00    -0.387 OA
ATOM     24  H   UNL     1       5.998   3.830  31.740  0.00  0.00    +0.210 HD
ENDBRANCH   4  23
ENDBRANCH   1   4
BRANCH   1  25
ATOM     25  C   UNL     1       2.757   2.726  31.421  0.00  0.00    +0.141 C 
BRANCH  25  28
ATOM     26  C   UNL     1       2.196   2.916  29.022  0.00  0.00    +0.401 C 
ATOM     27  O   UNL     1       2.008   1.706  28.874  0.00  0.00    -0.226 OA
ATOM     28  N   UNL     1       2.555   3.479  30.176  0.00  0.00    -0.279 N 
ATOM     29  H   UNL     1       2.695   4.479  30.196  0.00  0.00    +0.152 HD
BRANCH  26  30
ATOM     30  O   UNL     1       2.030   3.787  27.900  0.00  0.00    -0.444 OA
BRANCH  30  31
ATOM     31  C   UNL     1       1.162   3.174  26.943  0.00  0.00    +0.292 C 
BRANCH  31  33
ATOM     32  N   UNL     1       0.040   4.884  25.543  0.00  0.00    -0.131 NA
ATOM     33  C   UNL     1       1.072   3.999  25.726  0.00  0.00    +0.120 A 
ATOM     34  C   UNL     1       1.909   4.055  24.634  0.00  0.00    +0.137 A 
ATOM     35  N   UNL     1       1.325   4.981  23.823  0.00  0.00    -0.248 N 
ATOM     36  N   UNL     1       0.207   5.481  24.371  0.00  0.00    -0.065 NA
BRANCH  35  37
ATOM     37  C   UNL     1       1.782   5.442  22.529  0.00  0.00    +0.186 C 
BRANCH  37  38
ATOM     38  C   UNL     1       1.783   4.320  21.496  0.00  0.00    +0.255 C 
BRANCH  38  39
ATOM     39  O   UNL     1       0.565   4.289  20.724  0.00  0.00    -0.463 OA
BRANCH  39  40
ATOM     40  C   UNL     1       0.679   3.828  19.451  0.00  0.00    +0.304 C 
ATOM     41  O   UNL     1      -0.260   3.628  18.693  0.00  0.00    -0.251 OA
ATOM     42  C   UNL     1       2.117   3.626  19.081  0.00  0.00    +0.136 C 
ENDBRANCH  39  40
ENDBRANCH  38  39
ENDBRANCH  37  38
ENDBRANCH  35  37
ENDBRANCH  31  33
ENDBRANCH  30  31
ENDBRANCH  26  30
ENDBRANCH  25  28
ENDBRANCH   1  25
TORSDOF 17
