REMARK VINA RESULT:    -7.383      0.000      0.000
REMARK INTER + INTRA:         -14.935
REMARK INTER:                 -13.433
REMARK INTRA:                  -1.502
REMARK UNBOUND:                -1.294
REMARK  Name = lig_assembled_24.pdb
REMARK  19 active torsions:
REMARK  status: ('A' for Active; 'I' for Inactive)
REMARK    1  A    between atoms: _2  and  _9
REMARK    2  A    between atoms: _4  and  _21
REMARK    3  A    between atoms: _6  and  _7
REMARK    4  A    between atoms: _6  and  _21
REMARK    5  A    between atoms: _9  and  _10
REMARK    6  A    between atoms: _13  and  _16
REMARK    7  A    between atoms: _14  and  _16
REMARK    8  A    between atoms: _17  and  _37
REMARK    9  A    between atoms: _19  and  _25
REMARK   10  A    between atoms: _20  and  _24
REMARK   11  A    between atoms: _24  and  _25
REMARK   12  A    between atoms: _27  and  _28
REMARK   13  A    between atoms: _29  and  _30
REMARK   14  A    between atoms: _31  and  _33
REMARK   15  A    between atoms: _33  and  _34
REMARK   16  A    between atoms: _33  and  _35
REMARK   17  A    between atoms: _35  and  _36
REMARK   18  A    between atoms: _35  and  _37
REMARK   19  A    between atoms: _38  and  _40
REMARK                            x       y       z     vdW  Elec       q    Type
REMARK                         _______ _______ _______ _____ _____    ______ ____
ROOT
ATOM      1  C   UNL     1       3.510   3.631  32.558  0.00  0.00    +0.163 C 
ENDROOT
BRANCH   1   2
ATOM      2  O   UNL     1       2.713   3.975  33.704  0.00  0.00    -0.388 OA
ATOM      3  H   UNL     1       3.188   4.611  34.245  0.00  0.00    +0.210 HD
ENDBRANCH   1   2
BRANCH   1   4
ATOM      4  C   UNL     1       4.860   3.030  32.987  0.00  0.00    +0.175 C 
BRANCH   4   5
ATOM      5  C   UNL     1       5.430   3.721  34.235  0.00  0.00    +0.176 C 
ATOM      6  O   UNL     1       5.419   5.155  33.996  0.00  0.00    -0.332 OA
ATOM      7  C   UNL     1       5.833   5.989  35.128  0.00  0.00    +0.277 C 
ATOM      8  C   UNL     1       7.229   5.554  35.639  0.00  0.00    +0.110 C 
ATOM      9  C   UNL     1       7.299   4.031  35.877  0.00  0.00    +0.143 C 
ATOM     10  C   UNL     1       6.843   3.260  34.637  0.00  0.00    +0.133 C 
BRANCH  10  11
ATOM     11  N   UNL     1       6.832   1.814  34.905  0.00  0.00    -0.308 N 
ATOM     12  H   UNL     1       6.179   1.467  35.593  0.00  0.00    +0.149 HD
ATOM     13  C   UNL     1       7.627   0.929  34.298  0.00  0.00    +0.210 C 
ATOM     14  C   UNL     1       8.629   1.493  33.272  0.00  0.00    +0.109 C 
ATOM     15  O   UNL     1       7.585  -0.279  34.532  0.00  0.00    -0.276 OA
ENDBRANCH  10  11
BRANCH   7  16
ATOM     16  C   UNL     1       4.811   5.895  36.280  0.00  0.00    +0.414 C 
ATOM     17  O   UNL     1       5.140   6.193  37.428  0.00  0.00    -0.240 OA
ATOM     18  O   UNL     1       3.658   5.522  36.062  0.00  0.00    -0.240 OA
ENDBRANCH   7  16
BRANCH   7  19
ATOM     19  O   UNL     1       5.923   7.361  34.666  0.00  0.00    -0.343 OA
ATOM     20  C   UNL     1       7.268   7.829  34.392  0.00  0.00    +0.198 C 
ENDBRANCH   7  19
BRANCH   9  21
ATOM     21  O   UNL     1       8.639   3.655  36.199  0.00  0.00    -0.390 OA
ATOM     22  H   UNL     1       8.895   2.897  35.668  0.00  0.00    +0.210 HD
ENDBRANCH   9  21
ENDBRANCH   4   5
BRANCH   4  23
ATOM     23  O   UNL     1       5.805   3.106  31.902  0.00  0.00    -0.387 OA
ATOM     24  H   UNL     1       5.334   3.243  31.076  0.00  0.00    +0.210 HD
ENDBRANCH   4  23
ENDBRANCH   1   4
BRANCH   1  25
ATOM     25  C   UNL     1       2.762   2.631  31.683  0.00  0.00    +0.141 C 
BRANCH  25  28
ATOM     26  C   UNL     1       1.659   3.181  29.541  0.00  0.00    +0.401 C 
ATOM     27  O   UNL     1       0.519   2.991  29.971  0.00  0.00    -0.226 OA
ATOM     28  N   UNL     1       2.766   3.030  30.270  0.00  0.00    -0.279 N 
ATOM     29  H   UNL     1       3.657   3.200  29.825  0.00  0.00    +0.152 HD
BRANCH  26  30
ATOM     30  O   UNL     1       1.830   3.584  28.180  0.00  0.00    -0.444 OA
BRANCH  30  31
ATOM     31  C   UNL     1       0.601   3.407  27.471  0.00  0.00    +0.292 C 
BRANCH  31  33
ATOM     32  N   UNL     1      -0.237   5.029  25.800  0.00  0.00    -0.131 NA
ATOM     33  C   UNL     1       0.668   4.065  26.153  0.00  0.00    +0.120 A 
ATOM     34  C   UNL     1       1.563   3.888  25.122  0.00  0.00    +0.137 A 
ATOM     35  N   UNL     1       1.196   4.821  24.197  0.00  0.00    -0.247 N 
ATOM     36  N   UNL     1       0.088   5.479  24.597  0.00  0.00    -0.065 NA
BRANCH  35  37
ATOM     37  C   UNL     1       1.826   5.220  22.949  0.00  0.00    +0.180 C 
BRANCH  37  38
ATOM     38  C   UNL     1       1.781   4.179  21.856  0.00  0.00    -0.026 A 
ATOM     39  C   UNL     1       1.746   4.563  20.510  0.00  0.00    +0.009 A 
ATOM     40  C   UNL     1       1.705   3.593  19.504  0.00  0.00    +0.046 A 
ATOM     41  C   UNL     1       1.717   2.234  19.824  0.00  0.00    +0.120 A 
ATOM     42  C   UNL     1       1.727   1.847  21.161  0.00  0.00    +0.046 A 
ATOM     43  C   UNL     1       1.760   2.813  22.174  0.00  0.00    +0.009 A 
BRANCH  41  44
ATOM     44  O   UNL     1       1.654   1.381  18.758  0.00  0.00    -0.495 OA
ATOM     45  C   UNL     1       1.630   2.002  17.477  0.00  0.00    +0.277 C 
ENDBRANCH  41  44
ENDBRANCH  37  38
ENDBRANCH  35  37
ENDBRANCH  31  33
ENDBRANCH  30  31
ENDBRANCH  26  30
ENDBRANCH  25  28
ENDBRANCH   1  25
TORSDOF 16
