REMARK VINA RESULT:    -7.143      0.000      0.000
REMARK INTER + INTRA:         -14.655
REMARK INTER:                 -13.311
REMARK INTRA:                  -1.344
REMARK UNBOUND:                -1.875
REMARK  Name = lig_assembled_82.pdb
REMARK  19 active torsions:
REMARK  status: ('A' for Active; 'I' for Inactive)
REMARK    1  A    between atoms: _2  and  _9
REMARK    2  A    between atoms: _4  and  _22
REMARK    3  A    between atoms: _5  and  _16
REMARK    4  A    between atoms: _6  and  _7
REMARK    5  A    between atoms: _6  and  _22
REMARK    6  A    between atoms: _9  and  _10
REMARK    7  A    between atoms: _16  and  _17
REMARK    8  A    between atoms: _18  and  _38
REMARK    9  A    between atoms: _20  and  _26
REMARK   10  A    between atoms: _21  and  _25
REMARK   11  A    between atoms: _25  and  _26
REMARK   12  A    between atoms: _28  and  _29
REMARK   13  A    between atoms: _30  and  _31
REMARK   14  A    between atoms: _32  and  _34
REMARK   15  A    between atoms: _34  and  _35
REMARK   16  A    between atoms: _34  and  _36
REMARK   17  A    between atoms: _36  and  _37
REMARK   18  A    between atoms: _36  and  _38
REMARK   19  A    between atoms: _39  and  _41
REMARK                            x       y       z     vdW  Elec       q    Type
REMARK                         _______ _______ _______ _____ _____    ______ ____
ROOT
ATOM      1  C   UNL     1       2.796   2.680  32.579  0.00  0.00    +0.163 C 
ENDROOT
BRANCH   1   2
ATOM      2  O   UNL     1       3.599   1.859  31.715  0.00  0.00    -0.388 OA
ATOM      3  H   UNL     1       4.250   2.405  31.268  0.00  0.00    +0.210 HD
ENDBRANCH   1   2
BRANCH   1   4
ATOM      4  C   UNL     1       1.730   3.407  31.765  0.00  0.00    +0.141 C 
BRANCH   4   7
ATOM      5  C   UNL     1       1.473   3.315  29.310  0.00  0.00    +0.401 C 
ATOM      6  O   UNL     1       0.389   2.729  29.351  0.00  0.00    -0.226 OA
ATOM      7  N   UNL     1       2.173   3.665  30.390  0.00  0.00    -0.279 N 
ATOM      8  H   UNL     1       3.058   4.134  30.254  0.00  0.00    +0.152 HD
BRANCH   5   9
ATOM      9  O   UNL     1       2.037   3.645  28.037  0.00  0.00    -0.444 OA
BRANCH   9  10
ATOM     10  C   UNL     1       1.228   3.087  26.998  0.00  0.00    +0.292 C 
BRANCH  10  12
ATOM     11  N   UNL     1       0.096   4.814  25.634  0.00  0.00    -0.131 NA
ATOM     12  C   UNL     1       1.173   3.984  25.839  0.00  0.00    +0.120 A 
ATOM     13  C   UNL     1       2.073   4.173  24.806  0.00  0.00    +0.137 A 
ATOM     14  N   UNL     1       1.428   5.022  23.952  0.00  0.00    -0.247 N 
ATOM     15  N   UNL     1       0.282   5.471  24.499  0.00  0.00    -0.065 NA
BRANCH  14  16
ATOM     16  C   UNL     1       1.787   5.379  22.577  0.00  0.00    +0.176 C 
BRANCH  16  17
ATOM     17  C   UNL     1       1.508   4.267  21.597  0.00  0.00    -0.049 C 
ATOM     18  C   UNL     1       0.430   4.487  20.583  0.00  0.00    +0.023 C 
ATOM     19  C   UNL     1       0.629   3.882  19.120  0.00  0.00    -0.025 C 
ATOM     20  C   UNL     1       1.894   3.675  18.278  0.00  0.00    +0.012 C 
ATOM     21  C   UNL     1       0.266   2.518  19.874  0.00  0.00    -0.000 C 
ATOM     22  C   UNL     1       1.418   1.930  20.748  0.00  0.00    +0.031 C 
ATOM     23  C   UNL     1      -0.337   4.714  18.240  0.00  0.00    +0.012 C 
ATOM     24  C   UNL     1      -0.681   3.374  20.756  0.00  0.00    +0.012 C 
ATOM     25  C   UNL     1       2.002   3.015  21.640  0.00  0.00    -0.025 C 
ENDBRANCH  16  17
ENDBRANCH  14  16
ENDBRANCH  10  12
ENDBRANCH   9  10
ENDBRANCH   5   9
ENDBRANCH   4   7
ENDBRANCH   1   4
BRANCH   1  26
ATOM     26  C   UNL     1       3.664   3.708  33.325  0.00  0.00    +0.175 C 
BRANCH  26  27
ATOM     27  C   UNL     1       5.097   3.202  33.545  0.00  0.00    +0.176 C 
ATOM     28  O   UNL     1       5.019   1.827  34.011  0.00  0.00    -0.332 OA
ATOM     29  C   UNL     1       6.304   1.140  34.176  0.00  0.00    +0.277 C 
ATOM     30  C   UNL     1       7.239   1.955  35.103  0.00  0.00    +0.110 C 
ATOM     31  C   UNL     1       7.328   3.432  34.666  0.00  0.00    +0.143 C 
ATOM     32  C   UNL     1       5.935   4.047  34.522  0.00  0.00    +0.133 C 
BRANCH  32  33
ATOM     33  N   UNL     1       6.031   5.428  34.022  0.00  0.00    -0.308 N 
ATOM     34  H   UNL     1       6.299   5.562  33.057  0.00  0.00    +0.149 HD
ATOM     35  C   UNL     1       5.786   6.514  34.759  0.00  0.00    +0.210 C 
ATOM     36  C   UNL     1       5.405   6.277  36.232  0.00  0.00    +0.109 C 
ATOM     37  O   UNL     1       5.859   7.658  34.308  0.00  0.00    -0.276 OA
ENDBRANCH  32  33
BRANCH  29  38
ATOM     38  C   UNL     1       6.990   0.928  32.810  0.00  0.00    +0.414 C 
ATOM     39  O   UNL     1       6.314   0.789  31.792  0.00  0.00    -0.240 OA
ATOM     40  O   UNL     1       8.218   0.896  32.727  0.00  0.00    -0.240 OA
ENDBRANCH  29  38
BRANCH  29  41
ATOM     41  O   UNL     1       6.049  -0.145  34.799  0.00  0.00    -0.343 OA
ATOM     42  C   UNL     1       6.140  -1.286  33.909  0.00  0.00    +0.198 C 
ENDBRANCH  29  41
BRANCH  31  43
ATOM     43  O   UNL     1       8.074   4.176  35.630  0.00  0.00    -0.390 OA
ATOM     44  H   UNL     1       7.500   4.819  36.053  0.00  0.00    +0.210 HD
ENDBRANCH  31  43
ENDBRANCH  26  27
BRANCH  26  45
ATOM     45  O   UNL     1       3.057   4.048  34.587  0.00  0.00    -0.387 OA
ATOM     46  H   UNL     1       3.732   4.366  35.192  0.00  0.00    +0.210 HD
ENDBRANCH  26  45
ENDBRANCH   1  26
TORSDOF 15
