REMARK VINA RESULT:    -7.022      0.000      0.000
REMARK INTER + INTRA:         -14.505
REMARK INTER:                 -12.316
REMARK INTRA:                  -2.189
REMARK UNBOUND:                -1.736
REMARK  Name = lig_assembled_59.pdb
REMARK  18 active torsions:
REMARK  status: ('A' for Active; 'I' for Inactive)
REMARK    1  A    between atoms: _2  and  _10
REMARK    2  A    between atoms: _5  and  _20
REMARK    3  A    between atoms: _7  and  _8
REMARK    4  A    between atoms: _7  and  _20
REMARK    5  A    between atoms: _13  and  _14
REMARK    6  A    between atoms: _14  and  _15
REMARK    7  A    between atoms: _16  and  _36
REMARK    8  A    between atoms: _18  and  _24
REMARK    9  A    between atoms: _19  and  _23
REMARK   10  A    between atoms: _23  and  _24
REMARK   11  A    between atoms: _26  and  _27
REMARK   12  A    between atoms: _28  and  _29
REMARK   13  A    between atoms: _30  and  _32
REMARK   14  A    between atoms: _32  and  _33
REMARK   15  A    between atoms: _32  and  _34
REMARK   16  A    between atoms: _34  and  _35
REMARK   17  A    between atoms: _34  and  _36
REMARK   18  A    between atoms: _37  and  _39
REMARK                            x       y       z     vdW  Elec       q    Type
REMARK                         _______ _______ _______ _____ _____    ______ ____
ROOT
ATOM      1  C   UNL     1       4.087   3.616  32.440  0.00  0.00    +0.163 C 
ENDROOT
BRANCH   1   2
ATOM      2  O   UNL     1       3.150   3.978  33.468  0.00  0.00    -0.388 OA
ATOM      3  H   UNL     1       2.743   3.185  33.824  0.00  0.00    +0.210 HD
ENDBRANCH   1   2
BRANCH   1   4
ATOM      4  C   UNL     1       5.383   3.057  33.050  0.00  0.00    +0.175 C 
BRANCH   4   5
ATOM      5  C   UNL     1       5.780   3.791  34.339  0.00  0.00    +0.176 C 
ATOM      6  O   UNL     1       5.729   5.220  34.073  0.00  0.00    -0.332 OA
ATOM      7  C   UNL     1       5.977   6.089  35.228  0.00  0.00    +0.277 C 
ATOM      8  C   UNL     1       7.326   5.729  35.896  0.00  0.00    +0.110 C 
ATOM      9  C   UNL     1       7.440   4.214  36.169  0.00  0.00    +0.143 C 
ATOM     10  C   UNL     1       7.160   3.405  34.902  0.00  0.00    +0.133 C 
BRANCH  10  11
ATOM     11  N   UNL     1       7.186   1.964  35.195  0.00  0.00    -0.308 N 
ATOM     12  H   UNL     1       6.436   1.583  35.755  0.00  0.00    +0.149 HD
ATOM     13  C   UNL     1       8.135   1.126  34.769  0.00  0.00    +0.210 C 
ATOM     14  C   UNL     1       9.277   1.742  33.939  0.00  0.00    +0.109 C 
ATOM     15  O   UNL     1       8.123  -0.080  35.017  0.00  0.00    -0.276 OA
ENDBRANCH  10  11
BRANCH   7  16
ATOM     16  C   UNL     1       4.839   5.962  36.262  0.00  0.00    +0.414 C 
ATOM     17  O   UNL     1       5.046   6.221  37.447  0.00  0.00    -0.240 OA
ATOM     18  O   UNL     1       3.715   5.602  35.912  0.00  0.00    -0.240 OA
ENDBRANCH   7  16
BRANCH   7  19
ATOM     19  O   UNL     1       6.053   7.457  34.751  0.00  0.00    -0.343 OA
ATOM     20  C   UNL     1       7.389   8.022  34.723  0.00  0.00    +0.198 C 
ENDBRANCH   7  19
BRANCH   9  21
ATOM     21  O   UNL     1       8.752   3.907  36.643  0.00  0.00    -0.390 OA
ATOM     22  H   UNL     1       9.088   3.138  36.179  0.00  0.00    +0.210 HD
ENDBRANCH   9  21
ENDBRANCH   4   5
BRANCH   4  23
ATOM     23  O   UNL     1       6.455   3.127  32.088  0.00  0.00    -0.387 OA
ATOM     24  H   UNL     1       7.227   2.675  32.435  0.00  0.00    +0.210 HD
ENDBRANCH   4  23
ENDBRANCH   1   4
BRANCH   1  25
ATOM     25  C   UNL     1       3.468   2.574  31.514  0.00  0.00    +0.141 C 
BRANCH  25  28
ATOM     26  C   UNL     1       1.358   3.469  30.591  0.00  0.00    +0.401 C 
ATOM     27  O   UNL     1       0.701   3.225  31.606  0.00  0.00    -0.226 OA
ATOM     28  N   UNL     1       2.656   3.193  30.459  0.00  0.00    -0.279 N 
ATOM     29  H   UNL     1       3.106   3.423  29.584  0.00  0.00    +0.152 HD
BRANCH  26  30
ATOM     30  O   UNL     1       0.708   4.082  29.474  0.00  0.00    -0.444 OA
BRANCH  30  31
ATOM     31  C   UNL     1       0.339   3.077  28.526  0.00  0.00    +0.292 C 
BRANCH  31  33
ATOM     32  N   UNL     1       2.280   3.832  27.194  0.00  0.00    -0.131 NA
ATOM     33  C   UNL     1       1.013   3.318  27.236  0.00  0.00    +0.121 A 
ATOM     34  C   UNL     1       0.569   3.109  25.951  0.00  0.00    +0.145 A 
ATOM     35  N   UNL     1       1.612   3.513  25.148  0.00  0.00    -0.202 N 
ATOM     36  N   UNL     1       2.639   3.944  25.923  0.00  0.00    -0.059 NA
BRANCH  35  37
ATOM     37  C   UNL     1       1.656   3.516  23.728  0.00  0.00    +0.156 A 
ATOM     38  C   UNL     1       1.707   2.300  23.049  0.00  0.00    +0.048 A 
ATOM     39  C   UNL     1       1.792   2.312  21.658  0.00  0.00    +0.011 A 
ATOM     40  C   UNL     1       1.818   3.527  20.970  0.00  0.00    -0.004 A 
ATOM     41  C   UNL     1       1.762   4.690  21.732  0.00  0.00    +0.119 A 
ATOM     42  N   UNL     1       1.672   4.715  23.084  0.00  0.00    -0.236 NA
BRANCH  40  43
ATOM     43  C   UNL     1       2.003   3.563  19.482  0.00  0.00    +0.192 C 
BRANCH  43  44
ATOM     44  O   UNL     1       2.508   2.330  18.992  0.00  0.00    -0.390 OA
ATOM     45  H   UNL     1       3.334   2.150  19.476  0.00  0.00    +0.210 HD
ENDBRANCH  43  44
ENDBRANCH  40  43
ENDBRANCH  35  37
ENDBRANCH  31  33
ENDBRANCH  30  31
ENDBRANCH  26  30
ENDBRANCH  25  28
ENDBRANCH   1  25
TORSDOF 16
