REMARK VINA RESULT:    -6.311      0.000      0.000
REMARK INTER + INTRA:         -14.065
REMARK INTER:                 -12.056
REMARK INTRA:                  -2.009
REMARK UNBOUND:                -1.667
REMARK  Name = lig_assembled_43.pdb
REMARK  20 active torsions:
REMARK  status: ('A' for Active; 'I' for Inactive)
REMARK    1  A    between atoms: _2  and  _9
REMARK    2  A    between atoms: _4  and  _18
REMARK    3  A    between atoms: _6  and  _7
REMARK    4  A    between atoms: _6  and  _18
REMARK    5  A    between atoms: _9  and  _10
REMARK    6  A    between atoms: _10  and  _11
REMARK    7  A    between atoms: _11  and  _12
REMARK    8  A    between atoms: _12  and  _13
REMARK    9  A    between atoms: _14  and  _34
REMARK   10  A    between atoms: _16  and  _22
REMARK   11  A    between atoms: _17  and  _21
REMARK   12  A    between atoms: _21  and  _22
REMARK   13  A    between atoms: _24  and  _25
REMARK   14  A    between atoms: _26  and  _27
REMARK   15  A    between atoms: _28  and  _30
REMARK   16  A    between atoms: _30  and  _31
REMARK   17  A    between atoms: _30  and  _32
REMARK   18  A    between atoms: _32  and  _33
REMARK   19  A    between atoms: _32  and  _34
REMARK   20  A    between atoms: _35  and  _37
REMARK                            x       y       z     vdW  Elec       q    Type
REMARK                         _______ _______ _______ _____ _____    ______ ____
ROOT
ATOM      1  C   UNL     1       7.021   3.914  33.563  0.00  0.00    +0.163 C 
ENDROOT
BRANCH   1   2
ATOM      2  O   UNL     1       7.660   5.033  32.928  0.00  0.00    -0.388 OA
ATOM      3  H   UNL     1       7.944   4.781  32.046  0.00  0.00    +0.210 HD
ENDBRANCH   1   2
BRANCH   1   4
ATOM      4  C   UNL     1       5.795   4.369  34.374  0.00  0.00    +0.175 C 
BRANCH   4   5
ATOM      5  C   UNL     1       6.153   5.446  35.408  0.00  0.00    +0.176 C 
ATOM      6  O   UNL     1       7.547   5.263  35.779  0.00  0.00    -0.332 OA
ATOM      7  C   UNL     1       8.099   6.274  36.687  0.00  0.00    +0.277 C 
ATOM      8  C   UNL     1       7.228   6.390  37.962  0.00  0.00    +0.110 C 
ATOM      9  C   UNL     1       5.733   6.554  37.618  0.00  0.00    +0.143 C 
ATOM     10  C   UNL     1       5.265   5.452  36.666  0.00  0.00    +0.133 C 
BRANCH  10  11
ATOM     11  N   UNL     1       3.863   5.668  36.277  0.00  0.00    -0.308 N 
ATOM     12  H   UNL     1       3.661   6.427  35.641  0.00  0.00    +0.149 HD
ATOM     13  C   UNL     1       2.838   4.928  36.710  0.00  0.00    +0.210 C 
ATOM     14  C   UNL     1       3.175   3.796  37.699  0.00  0.00    +0.109 C 
ATOM     15  O   UNL     1       1.675   5.123  36.355  0.00  0.00    -0.276 OA
ENDBRANCH  10  11
BRANCH   7  16
ATOM     16  C   UNL     1       8.179   7.649  35.990  0.00  0.00    +0.414 C 
ATOM     17  O   UNL     1       8.287   8.677  36.658  0.00  0.00    -0.240 OA
ATOM     18  O   UNL     1       8.136   7.730  34.762  0.00  0.00    -0.240 OA
ENDBRANCH   7  16
BRANCH   9  19
ATOM     19  O   UNL     1       4.955   6.504  38.814  0.00  0.00    -0.390 OA
ATOM     20  H   UNL     1       4.080   6.165  38.614  0.00  0.00    +0.210 HD
ENDBRANCH   9  19
BRANCH   7  21
ATOM     21  O   UNL     1       9.429   5.847  37.078  0.00  0.00    -0.343 OA
ATOM     22  C   UNL     1       9.665   4.419  36.989  0.00  0.00    +0.198 C 
ENDBRANCH   7  21
ENDBRANCH   4   5
BRANCH   4  23
ATOM     23  O   UNL     1       5.183   3.238  35.026  0.00  0.00    -0.387 OA
ATOM     24  H   UNL     1       5.182   2.486  34.429  0.00  0.00    +0.210 HD
ENDBRANCH   4  23
ENDBRANCH   1   4
BRANCH   1  25
ATOM     25  C   UNL     1       6.588   2.895  32.514  0.00  0.00    +0.141 C 
BRANCH  25  28
ATOM     26  C   UNL     1       4.401   2.253  31.562  0.00  0.00    +0.401 C 
ATOM     27  O   UNL     1       4.649   1.045  31.562  0.00  0.00    -0.226 OA
ATOM     28  N   UNL     1       5.252   3.189  31.984  0.00  0.00    -0.279 N 
ATOM     29  H   UNL     1       4.960   4.155  31.935  0.00  0.00    +0.152 HD
BRANCH  26  30
ATOM     30  O   UNL     1       3.131   2.700  31.081  0.00  0.00    -0.444 OA
BRANCH  30  31
ATOM     31  C   UNL     1       2.592   1.730  30.179  0.00  0.00    +0.292 C 
BRANCH  31  33
ATOM     32  N   UNL     1       1.285   3.565  29.151  0.00  0.00    -0.131 NA
ATOM     33  C   UNL     1       1.987   2.395  29.011  0.00  0.00    +0.120 A 
ATOM     34  C   UNL     1       1.988   2.029  27.684  0.00  0.00    +0.137 A 
ATOM     35  N   UNL     1       1.268   3.011  27.073  0.00  0.00    -0.251 N 
ATOM     36  N   UNL     1       0.848   3.932  27.954  0.00  0.00    -0.065 NA
BRANCH  35  37
ATOM     37  C   UNL     1       0.915   3.119  25.674  0.00  0.00    +0.145 C 
BRANCH  37  38
ATOM     38  C   UNL     1       1.673   4.253  24.991  0.00  0.00    +0.024 C 
BRANCH  38  39
ATOM     39  C   UNL     1       0.869   4.877  23.849  0.00  0.00    +0.006 C 
BRANCH  39  40
ATOM     40  C   UNL     1       1.788   5.235  22.678  0.00  0.00    +0.026 C 
BRANCH  40  41
ATOM     41  C   UNL     1       1.555   4.351  21.489  0.00  0.00    -0.034 C 
ATOM     42  C   UNL     1       1.809   3.037  21.475  0.00  0.00    +0.004 C 
ENDBRANCH  40  41
ENDBRANCH  39  40
ENDBRANCH  38  39
ENDBRANCH  37  38
ENDBRANCH  35  37
ENDBRANCH  31  33
ENDBRANCH  30  31
ENDBRANCH  26  30
ENDBRANCH  25  28
ENDBRANCH   1  25
TORSDOF 18
