REMARK VINA RESULT:    -5.706      0.000      0.000
REMARK INTER + INTRA:         -13.346
REMARK INTER:                 -11.249
REMARK INTRA:                  -2.097
REMARK UNBOUND:                -2.970
REMARK  Name = lig_assembled_22.pdb
REMARK  20 active torsions:
REMARK  status: ('A' for Active; 'I' for Inactive)
REMARK    1  A    between atoms: _2  and  _9
REMARK    2  A    between atoms: _4  and  _18
REMARK    3  A    between atoms: _5  and  _9
REMARK    4  A    between atoms: _5  and  _12
REMARK    5  A    between atoms: _6  and  _7
REMARK    6  A    between atoms: _6  and  _18
REMARK    7  A    between atoms: _9  and  _10
REMARK    8  A    between atoms: _9  and  _11
REMARK    9  A    between atoms: _14  and  _34
REMARK   10  A    between atoms: _16  and  _22
REMARK   11  A    between atoms: _17  and  _21
REMARK   12  A    between atoms: _21  and  _22
REMARK   13  A    between atoms: _24  and  _25
REMARK   14  A    between atoms: _26  and  _27
REMARK   15  A    between atoms: _28  and  _30
REMARK   16  A    between atoms: _30  and  _31
REMARK   17  A    between atoms: _30  and  _32
REMARK   18  A    between atoms: _32  and  _33
REMARK   19  A    between atoms: _32  and  _34
REMARK   20  A    between atoms: _35  and  _37
REMARK                            x       y       z     vdW  Elec       q    Type
REMARK                         _______ _______ _______ _____ _____    ______ ____
ROOT
ATOM      1  C   UNL     1      18.660   5.929  24.097  0.00  0.00    +0.163 C 
ENDROOT
BRANCH   1   2
ATOM      2  O   UNL     1      17.632   6.001  23.096  0.00  0.00    -0.388 OA
ATOM      3  H   UNL     1      17.662   5.212  22.549  0.00  0.00    +0.210 HD
ENDBRANCH   1   2
BRANCH   1   4
ATOM      4  C   UNL     1      19.735   6.973  23.817  0.00  0.00    +0.141 C 
BRANCH   4   7
ATOM      5  C   UNL     1      20.827   7.848  25.854  0.00  0.00    +0.401 C 
ATOM      6  O   UNL     1      21.684   6.962  25.889  0.00  0.00    -0.226 OA
ATOM      7  N   UNL     1      19.874   7.927  24.925  0.00  0.00    -0.279 N 
ATOM      8  H   UNL     1      19.210   8.686  24.986  0.00  0.00    +0.152 HD
BRANCH   5   9
ATOM      9  O   UNL     1      20.834   8.860  26.864  0.00  0.00    -0.444 OA
BRANCH   9  10
ATOM     10  C   UNL     1      19.663   9.671  26.735  0.00  0.00    +0.292 C 
BRANCH  10  12
ATOM     11  N   UNL     1      17.981  10.719  28.208  0.00  0.00    -0.131 NA
ATOM     12  C   UNL     1      19.001   9.825  28.044  0.00  0.00    +0.120 A 
ATOM     13  C   UNL     1      19.234   9.185  29.242  0.00  0.00    +0.138 A 
ATOM     14  N   UNL     1      18.321   9.734  30.099  0.00  0.00    -0.235 N 
ATOM     15  N   UNL     1      17.575  10.659  29.465  0.00  0.00    -0.064 NA
BRANCH  14  16
ATOM     16  C   UNL     1      18.102   9.462  31.521  0.00  0.00    +0.155 C 
ATOM     17  C   UNL     1      19.420   9.469  32.325  0.00  0.00    +0.048 C 
ATOM     18  C   UNL     1      17.452   8.074  31.664  0.00  0.00    +0.048 C 
BRANCH  16  19
ATOM     19  C   UNL     1      17.184  10.525  32.130  0.00  0.00    +0.332 C 
ATOM     20  O   UNL     1      16.017  10.327  32.447  0.00  0.00    -0.248 OA
BRANCH  19  21
ATOM     21  O   UNL     1      17.748  11.744  32.310  0.00  0.00    -0.479 OA
ATOM     22  H   UNL     1      17.380  12.476  31.778  0.00  0.00    +0.295 HD
ENDBRANCH  19  21
ENDBRANCH  16  19
ENDBRANCH  14  16
ENDBRANCH  10  12
ENDBRANCH   9  10
ENDBRANCH   5   9
ENDBRANCH   4   7
ENDBRANCH   1   4
BRANCH   1  23
ATOM     23  C   UNL     1      19.298   4.530  24.131  0.00  0.00    +0.175 C 
BRANCH  23  24
ATOM     24  C   UNL     1      18.487   3.544  24.984  0.00  0.00    +0.176 C 
ATOM     25  O   UNL     1      19.361   3.030  26.027  0.00  0.00    -0.332 OA
ATOM     26  C   UNL     1      18.724   2.148  27.009  0.00  0.00    +0.277 C 
ATOM     27  C   UNL     1      18.011   0.972  26.299  0.00  0.00    +0.110 C 
ATOM     28  C   UNL     1      17.094   1.467  25.160  0.00  0.00    +0.143 C 
ATOM     29  C   UNL     1      17.856   2.379  24.199  0.00  0.00    +0.133 C 
BRANCH  29  30
ATOM     30  N   UNL     1      16.952   2.913  23.168  0.00  0.00    -0.308 N 
ATOM     31  H   UNL     1      16.220   3.544  23.464  0.00  0.00    +0.149 HD
ATOM     32  C   UNL     1      17.035   2.619  21.868  0.00  0.00    +0.210 C 
ATOM     33  C   UNL     1      18.144   1.635  21.453  0.00  0.00    +0.109 C 
ATOM     34  O   UNL     1      16.272   3.094  21.025  0.00  0.00    -0.276 OA
ENDBRANCH  29  30
BRANCH  26  35
ATOM     35  C   UNL     1      17.705   2.928  27.866  0.00  0.00    +0.414 C 
ATOM     36  O   UNL     1      18.067   3.494  28.897  0.00  0.00    -0.240 OA
ATOM     37  O   UNL     1      16.523   2.991  27.526  0.00  0.00    -0.240 OA
ENDBRANCH  26  35
BRANCH  26  38
ATOM     38  O   UNL     1      19.764   1.603  27.863  0.00  0.00    -0.343 OA
ATOM     39  C   UNL     1      21.091   2.138  27.629  0.00  0.00    +0.198 C 
ENDBRANCH  26  38
BRANCH  28  40
ATOM     40  O   UNL     1      16.576   0.349  24.438  0.00  0.00    -0.390 OA
ATOM     41  H   UNL     1      16.903   0.371  23.536  0.00  0.00    +0.210 HD
ENDBRANCH  28  40
ENDBRANCH  23  24
BRANCH  23  42
ATOM     42  O   UNL     1      20.652   4.613  24.620  0.00  0.00    -0.387 OA
ATOM     43  H   UNL     1      21.201   3.980  24.152  0.00  0.00    +0.210 HD
ENDBRANCH  23  42
ENDBRANCH   1  23
TORSDOF 16
