REMARK VINA RESULT:    -5.554      0.000      0.000
REMARK INTER + INTRA:         -12.771
REMARK INTER:                 -10.239
REMARK INTRA:                  -2.532
REMARK UNBOUND:                -2.671
REMARK  Name = lig_assembled_1.pdb
REMARK  18 active torsions:
REMARK  status: ('A' for Active; 'I' for Inactive)
REMARK    1  A    between atoms: _2  and  _9
REMARK    2  A    between atoms: _4  and  _15
REMARK    3  A    between atoms: _5  and  _9
REMARK    4  A    between atoms: _5  and  _10
REMARK    5  A    between atoms: _6  and  _7
REMARK    6  A    between atoms: _6  and  _15
REMARK    7  A    between atoms: _11  and  _31
REMARK    8  A    between atoms: _13  and  _19
REMARK    9  A    between atoms: _14  and  _18
REMARK   10  A    between atoms: _18  and  _19
REMARK   11  A    between atoms: _21  and  _22
REMARK   12  A    between atoms: _23  and  _24
REMARK   13  A    between atoms: _25  and  _27
REMARK   14  A    between atoms: _27  and  _28
REMARK   15  A    between atoms: _27  and  _29
REMARK   16  A    between atoms: _29  and  _30
REMARK   17  A    between atoms: _29  and  _31
REMARK   18  A    between atoms: _32  and  _34
REMARK                            x       y       z     vdW  Elec       q    Type
REMARK                         _______ _______ _______ _____ _____    ______ ____
ROOT
ATOM      1  C   UNL     1      17.943  -0.733  23.760  0.00  0.00    +0.175 C 
ENDROOT
BRANCH   1   2
ATOM      2  C   UNL     1      17.894  -1.810  24.853  0.00  0.00    +0.176 C 
ATOM      3  O   UNL     1      16.875  -2.779  24.482  0.00  0.00    -0.332 OA
ATOM      4  C   UNL     1      16.759  -3.945  25.363  0.00  0.00    +0.277 C 
ATOM      5  C   UNL     1      16.545  -3.497  26.830  0.00  0.00    +0.110 C 
ATOM      6  C   UNL     1      17.587  -2.443  27.260  0.00  0.00    +0.143 C 
ATOM      7  C   UNL     1      17.626  -1.276  26.273  0.00  0.00    +0.133 C 
BRANCH   7   8
ATOM      8  N   UNL     1      18.682  -0.321  26.645  0.00  0.00    -0.308 N 
ATOM      9  H   UNL     1      19.638  -0.648  26.638  0.00  0.00    +0.149 HD
ATOM     10  C   UNL     1      18.460   0.949  26.993  0.00  0.00    +0.210 C 
ATOM     11  C   UNL     1      16.990   1.410  27.020  0.00  0.00    +0.109 C 
ATOM     12  O   UNL     1      19.365   1.731  27.286  0.00  0.00    -0.276 OA
ENDBRANCH   7   8
BRANCH   4  13
ATOM     13  C   UNL     1      18.021  -4.827  25.272  0.00  0.00    +0.414 C 
ATOM     14  O   UNL     1      18.402  -5.469  26.250  0.00  0.00    -0.240 OA
ATOM     15  O   UNL     1      18.658  -4.898  24.220  0.00  0.00    -0.240 OA
ENDBRANCH   4  13
BRANCH   4  16
ATOM     16  O   UNL     1      15.598  -4.709  24.945  0.00  0.00    -0.343 OA
ATOM     17  C   UNL     1      15.228  -4.548  23.552  0.00  0.00    +0.198 C 
ENDBRANCH   4  16
BRANCH   6  18
ATOM     18  O   UNL     1      17.263  -1.948  28.560  0.00  0.00    -0.390 OA
ATOM     19  H   UNL     1      17.047  -1.015  28.504  0.00  0.00    +0.210 HD
ENDBRANCH   6  18
ENDBRANCH   1   2
BRANCH   1  20
ATOM     20  O   UNL     1      16.802   0.141  23.872  0.00  0.00    -0.387 OA
ATOM     21  H   UNL     1      16.634   0.331  24.798  0.00  0.00    +0.210 HD
ENDBRANCH   1  20
BRANCH   1  22
ATOM     22  C   UNL     1      18.005  -1.343  22.349  0.00  0.00    +0.163 C 
BRANCH  22  23
ATOM     23  O   UNL     1      18.683  -2.610  22.367  0.00  0.00    -0.388 OA
ATOM     24  H   UNL     1      18.823  -2.912  21.466  0.00  0.00    +0.210 HD
ENDBRANCH  22  23
BRANCH  22  25
ATOM     25  C   UNL     1      18.723  -0.381  21.409  0.00  0.00    +0.141 C 
BRANCH  25  28
ATOM     26  C   UNL     1      17.504   1.608  20.595  0.00  0.00    +0.401 C 
ATOM     27  O   UNL     1      17.205   1.098  19.512  0.00  0.00    -0.226 OA
ATOM     28  N   UNL     1      18.216   0.991  21.538  0.00  0.00    -0.279 N 
ATOM     29  H   UNL     1      18.419   1.495  22.390  0.00  0.00    +0.152 HD
BRANCH  26  30
ATOM     30  O   UNL     1      17.074   2.943  20.876  0.00  0.00    -0.444 OA
BRANCH  30  31
ATOM     31  C   UNL     1      16.766   3.062  22.268  0.00  0.00    +0.292 C 
BRANCH  31  33
ATOM     32  N   UNL     1      17.064   5.514  22.460  0.00  0.00    -0.131 NA
ATOM     33  C   UNL     1      17.428   4.249  22.841  0.00  0.00    +0.120 A 
ATOM     34  C   UNL     1      18.438   4.333  23.774  0.00  0.00    +0.137 A 
ATOM     35  N   UNL     1      18.646   5.672  23.911  0.00  0.00    -0.249 N 
ATOM     36  N   UNL     1      17.824   6.379  23.118  0.00  0.00    -0.065 NA
BRANCH  35  37
ATOM     37  C   UNL     1      19.593   6.341  24.774  0.00  0.00    +0.173 C 
BRANCH  37  38
ATOM     38  C   UNL     1      18.933   6.966  25.997  0.00  0.00    +0.179 C 
BRANCH  38  39
ATOM     39  O   UNL     1      18.040   8.013  25.623  0.00  0.00    -0.393 OA
ATOM     40  H   UNL     1      18.585   8.808  25.465  0.00  0.00    +0.209 HD
ENDBRANCH  38  39
ENDBRANCH  37  38
ENDBRANCH  35  37
ENDBRANCH  31  33
ENDBRANCH  30  31
ENDBRANCH  26  30
ENDBRANCH  25  28
ENDBRANCH  22  25
ENDBRANCH   1  22
TORSDOF 16
