REMARK VINA RESULT:    -7.845      0.000      0.000
REMARK INTER + INTRA:         -14.779
REMARK INTER:                 -12.767
REMARK INTRA:                  -2.012
REMARK UNBOUND:                -1.202
REMARK  Name = lig_assembled_40.pdb
REMARK  17 active torsions:
REMARK  status: ('A' for Active; 'I' for Inactive)
REMARK    1  A    between atoms: _2  and  _9
REMARK    2  A    between atoms: _4  and  _19
REMARK    3  A    between atoms: _6  and  _7
REMARK    4  A    between atoms: _6  and  _19
REMARK    5  A    between atoms: _12  and  _13
REMARK    6  A    between atoms: _15  and  _35
REMARK    7  A    between atoms: _17  and  _23
REMARK    8  A    between atoms: _18  and  _22
REMARK    9  A    between atoms: _22  and  _23
REMARK   10  A    between atoms: _25  and  _26
REMARK   11  A    between atoms: _27  and  _28
REMARK   12  A    between atoms: _29  and  _31
REMARK   13  A    between atoms: _31  and  _32
REMARK   14  A    between atoms: _31  and  _33
REMARK   15  A    between atoms: _33  and  _34
REMARK   16  A    between atoms: _33  and  _35
REMARK   17  A    between atoms: _36  and  _38
REMARK                            x       y       z     vdW  Elec       q    Type
REMARK                         _______ _______ _______ _____ _____    ______ ____
ROOT
ATOM      1  C   UNL     1       3.933   3.512  32.423  0.00  0.00    +0.163 C 
ENDROOT
BRANCH   1   2
ATOM      2  O   UNL     1       2.998   3.835  33.465  0.00  0.00    -0.388 OA
ATOM      3  H   UNL     1       3.408   4.441  34.087  0.00  0.00    +0.210 HD
ENDBRANCH   1   2
BRANCH   1   4
ATOM      4  C   UNL     1       3.338   2.455  31.498  0.00  0.00    +0.141 C 
BRANCH   4   7
ATOM      5  C   UNL     1       1.260   3.509  30.675  0.00  0.00    +0.401 C 
ATOM      6  O   UNL     1       0.694   3.468  31.770  0.00  0.00    -0.226 OA
ATOM      7  N   UNL     1       2.494   3.052  30.456  0.00  0.00    -0.279 N 
ATOM      8  H   UNL     1       2.869   3.121  29.521  0.00  0.00    +0.152 HD
BRANCH   5   9
ATOM      9  O   UNL     1       0.569   4.071  29.557  0.00  0.00    -0.444 OA
BRANCH   9  10
ATOM     10  C   UNL     1       0.318   3.051  28.587  0.00  0.00    +0.292 C 
BRANCH  10  12
ATOM     11  N   UNL     1       2.286   3.846  27.315  0.00  0.00    -0.131 NA
ATOM     12  C   UNL     1       1.011   3.362  27.323  0.00  0.00    +0.121 A 
ATOM     13  C   UNL     1       0.573   3.229  26.027  0.00  0.00    +0.143 A 
ATOM     14  N   UNL     1       1.638   3.619  25.247  0.00  0.00    -0.220 N 
ATOM     15  N   UNL     1       2.658   4.009  26.052  0.00  0.00    -0.060 NA
BRANCH  14  16
ATOM     16  C   UNL     1       1.752   3.603  23.833  0.00  0.00    +0.067 A 
ATOM     17  C   UNL     1       1.788   4.796  23.103  0.00  0.00    +0.028 A 
ATOM     18  C   UNL     1       1.830   4.765  21.706  0.00  0.00    +0.005 A 
ATOM     19  C   UNL     1       1.836   3.545  21.022  0.00  0.00    -0.050 A 
ATOM     20  C   UNL     1       1.836   2.353  21.754  0.00  0.00    +0.005 A 
ATOM     21  C   UNL     1       1.834   3.507  19.522  0.00  0.00    +0.044 C 
ATOM     22  C   UNL     1       1.795   2.377  23.151  0.00  0.00    +0.028 A 
ENDBRANCH  14  16
ENDBRANCH  10  12
ENDBRANCH   9  10
ENDBRANCH   5   9
ENDBRANCH   4   7
ENDBRANCH   1   4
BRANCH   1  23
ATOM     23  C   UNL     1       5.256   2.993  33.012  0.00  0.00    +0.175 C 
BRANCH  23  24
ATOM     24  C   UNL     1       5.627   3.710  34.318  0.00  0.00    +0.176 C 
ATOM     25  O   UNL     1       5.579   5.143  34.071  0.00  0.00    -0.332 OA
ATOM     26  C   UNL     1       5.804   5.996  35.242  0.00  0.00    +0.277 C 
ATOM     27  C   UNL     1       7.142   5.628  35.930  0.00  0.00    +0.110 C 
ATOM     28  C   UNL     1       7.253   4.110  36.184  0.00  0.00    +0.143 C 
ATOM     29  C   UNL     1       6.998   3.319  34.901  0.00  0.00    +0.133 C 
BRANCH  29  30
ATOM     30  N   UNL     1       7.021   1.873  35.174  0.00  0.00    -0.308 N 
ATOM     31  H   UNL     1       6.270   1.486  35.728  0.00  0.00    +0.149 HD
ATOM     32  C   UNL     1       7.970   1.040  34.739  0.00  0.00    +0.210 C 
ATOM     33  C   UNL     1       9.115   1.665  33.920  0.00  0.00    +0.109 C 
ATOM     34  O   UNL     1       7.955  -0.170  34.971  0.00  0.00    -0.276 OA
ENDBRANCH  29  30
BRANCH  26  35
ATOM     35  C   UNL     1       4.648   5.853  36.254  0.00  0.00    +0.414 C 
ATOM     36  O   UNL     1       4.793   6.225  37.417  0.00  0.00    -0.240 OA
ATOM     37  O   UNL     1       3.571   5.366  35.906  0.00  0.00    -0.240 OA
ENDBRANCH  26  35
BRANCH  28  38
ATOM     38  O   UNL     1       8.557   3.799  36.678  0.00  0.00    -0.390 OA
ATOM     39  H   UNL     1       8.905   3.038  36.207  0.00  0.00    +0.210 HD
ENDBRANCH  28  38
BRANCH  26  40
ATOM     40  O   UNL     1       5.887   7.371  34.786  0.00  0.00    -0.343 OA
ATOM     41  C   UNL     1       7.209   7.800  34.374  0.00  0.00    +0.198 C 
ENDBRANCH  26  40
ENDBRANCH  23  24
BRANCH  23  42
ATOM     42  O   UNL     1       6.318   3.135  32.048  0.00  0.00    -0.387 OA
ATOM     43  H   UNL     1       6.597   2.267  31.748  0.00  0.00    +0.210 HD
ENDBRANCH  23  42
ENDBRANCH   1  23
TORSDOF 14
