REMARK VINA RESULT:    -6.292      0.000      0.000
REMARK INTER + INTRA:         -13.826
REMARK INTER:                 -12.140
REMARK INTRA:                  -1.686
REMARK UNBOUND:                -2.936
REMARK  Name = lig_assembled_93.pdb
REMARK  16 active torsions:
REMARK  status: ('A' for Active; 'I' for Inactive)
REMARK    1  A    between atoms: _2  and  _9
REMARK    2  A    between atoms: _4  and  _18
REMARK    3  A    between atoms: _6  and  _7
REMARK    4  A    between atoms: _6  and  _18
REMARK    5  A    between atoms: _14  and  _34
REMARK    6  A    between atoms: _16  and  _22
REMARK    7  A    between atoms: _17  and  _21
REMARK    8  A    between atoms: _21  and  _22
REMARK    9  A    between atoms: _24  and  _25
REMARK   10  A    between atoms: _26  and  _27
REMARK   11  A    between atoms: _28  and  _30
REMARK   12  A    between atoms: _30  and  _31
REMARK   13  A    between atoms: _30  and  _32
REMARK   14  A    between atoms: _32  and  _33
REMARK   15  A    between atoms: _32  and  _34
REMARK   16  A    between atoms: _35  and  _37
REMARK                            x       y       z     vdW  Elec       q    Type
REMARK                         _______ _______ _______ _____ _____    ______ ____
ROOT
ATOM      1  C   UNL     1       4.097   3.630  32.526  0.00  0.00    +0.163 C 
ENDROOT
BRANCH   1   2
ATOM      2  O   UNL     1       3.478   4.053  33.752  0.00  0.00    -0.388 OA
ATOM      3  H   UNL     1       2.524   4.061  33.644  0.00  0.00    +0.210 HD
ENDBRANCH   1   2
BRANCH   1   4
ATOM      4  C   UNL     1       3.182   2.657  31.789  0.00  0.00    +0.141 C 
BRANCH   4   7
ATOM      5  C   UNL     1       1.098   3.706  30.976  0.00  0.00    +0.401 C 
ATOM      6  O   UNL     1       0.479   3.510  32.024  0.00  0.00    -0.226 OA
ATOM      7  N   UNL     1       2.363   3.335  30.777  0.00  0.00    -0.279 N 
ATOM      8  H   UNL     1       2.782   3.532  29.879  0.00  0.00    +0.152 HD
BRANCH   5   9
ATOM      9  O   UNL     1       0.438   4.366  29.893  0.00  0.00    -0.444 OA
BRANCH   9  10
ATOM     10  C   UNL     1       0.047   3.402  28.912  0.00  0.00    +0.292 C 
BRANCH  10  12
ATOM     11  N   UNL     1       2.172   3.721  27.699  0.00  0.00    -0.131 NA
ATOM     12  C   UNL     1       0.820   3.593  27.670  0.00  0.00    +0.121 A 
ATOM     13  C   UNL     1       0.394   3.666  26.365  0.00  0.00    +0.143 A 
ATOM     14  N   UNL     1       1.542   3.825  25.607  0.00  0.00    -0.219 N 
ATOM     15  N   UNL     1       2.596   3.866  26.452  0.00  0.00    -0.060 NA
BRANCH  14  16
ATOM     16  C   UNL     1       1.656   3.920  24.184  0.00  0.00    +0.080 A 
ATOM     17  C   UNL     1       1.602   5.211  23.607  0.00  0.00    +0.029 A 
ATOM     18  C   UNL     1       1.686   5.404  22.225  0.00  0.00    +0.002 A 
ATOM     19  C   UNL     1       1.828   4.315  21.382  0.00  0.00    +0.001 A 
ATOM     20  C   UNL     1       1.892   3.033  21.922  0.00  0.00    +0.016 A 
ATOM     21  C   UNL     1       1.810   2.819  23.315  0.00  0.00    +0.039 A 
ATOM     22  I   UNL     1       1.943   0.769  23.823  0.00  0.00    -0.042 I 
ENDBRANCH  14  16
ENDBRANCH  10  12
ENDBRANCH   9  10
ENDBRANCH   5   9
ENDBRANCH   4   7
ENDBRANCH   1   4
BRANCH   1  23
ATOM     23  C   UNL     1       5.453   2.956  32.797  0.00  0.00    +0.175 C 
BRANCH  23  24
ATOM     24  C   UNL     1       6.033   3.354  34.162  0.00  0.00    +0.176 C 
ATOM     25  O   UNL     1       6.516   4.722  34.061  0.00  0.00    -0.332 OA
ATOM     26  C   UNL     1       7.013   5.313  35.307  0.00  0.00    +0.277 C 
ATOM     27  C   UNL     1       8.110   4.416  35.931  0.00  0.00    +0.110 C 
ATOM     28  C   UNL     1       7.654   2.945  36.030  0.00  0.00    +0.143 C 
ATOM     29  C   UNL     1       7.154   2.433  34.679  0.00  0.00    +0.133 C 
BRANCH  29  30
ATOM     30  N   UNL     1       6.642   1.059  34.805  0.00  0.00    -0.308 N 
ATOM     31  H   UNL     1       5.948   0.878  35.517  0.00  0.00    +0.149 HD
ATOM     32  C   UNL     1       7.034   0.037  34.041  0.00  0.00    +0.210 C 
ATOM     33  C   UNL     1       8.112   0.340  32.983  0.00  0.00    +0.109 C 
ATOM     34  O   UNL     1       6.577  -1.101  34.160  0.00  0.00    -0.276 OA
ENDBRANCH  29  30
BRANCH  26  35
ATOM     35  C   UNL     1       5.864   5.502  36.319  0.00  0.00    +0.414 C 
ATOM     36  O   UNL     1       4.771   4.970  36.124  0.00  0.00    -0.240 OA
ATOM     37  O   UNL     1       6.028   6.186  37.330  0.00  0.00    -0.240 OA
ENDBRANCH  26  35
BRANCH  28  38
ATOM     38  O   UNL     1       8.743   2.131  36.468  0.00  0.00    -0.390 OA
ATOM     39  H   UNL     1       8.576   1.825  37.362  0.00  0.00    +0.210 HD
ENDBRANCH  28  38
BRANCH  26  40
ATOM     40  O   UNL     1       7.601   6.601  34.990  0.00  0.00    -0.343 OA
ATOM     41  C   UNL     1       6.761   7.480  34.200  0.00  0.00    +0.198 C 
ENDBRANCH  26  40
ENDBRANCH  23  24
BRANCH  23  42
ATOM     42  O   UNL     1       6.386   3.278  31.747  0.00  0.00    -0.387 OA
ATOM     43  H   UNL     1       5.991   3.921  31.153  0.00  0.00    +0.210 HD
ENDBRANCH  23  42
ENDBRANCH   1  23
TORSDOF 14
