REMARK VINA RESULT:    -7.425      0.000      0.000
REMARK INTER + INTRA:         -15.785
REMARK INTER:                 -12.993
REMARK INTRA:                  -2.792
REMARK UNBOUND:                -2.067
REMARK  Name = lig_assembled_79.pdb
REMARK  20 active torsions:
REMARK  status: ('A' for Active; 'I' for Inactive)
REMARK    1  A    between atoms: _2  and  _10
REMARK    2  A    between atoms: _5  and  _26
REMARK    3  A    between atoms: _7  and  _8
REMARK    4  A    between atoms: _7  and  _26
REMARK    5  A    between atoms: _10  and  _11
REMARK    6  A    between atoms: _10  and  _12
REMARK    7  A    between atoms: _10  and  _13
REMARK    8  A    between atoms: _13  and  _14
REMARK    9  A    between atoms: _22  and  _42
REMARK   10  A    between atoms: _24  and  _30
REMARK   11  A    between atoms: _25  and  _29
REMARK   12  A    between atoms: _29  and  _30
REMARK   13  A    between atoms: _32  and  _33
REMARK   14  A    between atoms: _34  and  _35
REMARK   15  A    between atoms: _36  and  _38
REMARK   16  A    between atoms: _38  and  _39
REMARK   17  A    between atoms: _38  and  _40
REMARK   18  A    between atoms: _40  and  _41
REMARK   19  A    between atoms: _40  and  _42
REMARK   20  A    between atoms: _43  and  _45
REMARK                            x       y       z     vdW  Elec       q    Type
REMARK                         _______ _______ _______ _____ _____    ______ ____
ROOT
ATOM      1  C   UNL     1      -2.852   6.484  15.895  0.00  0.00    +0.401 C 
ATOM      2  O   UNL     1      -4.061   6.253  15.823  0.00  0.00    -0.226 OA
ATOM      3  N   UNL     1      -2.110   6.902  14.869  0.00  0.00    -0.279 N 
ATOM      4  H   UNL     1      -1.128   7.074  15.029  0.00  0.00    +0.152 HD
ENDROOT
BRANCH   3   5
ATOM      5  C   UNL     1      -2.641   7.125  13.518  0.00  0.00    +0.141 C 
BRANCH   5   6
ATOM      6  C   UNL     1      -2.241   8.490  12.969  0.00  0.00    +0.163 C 
BRANCH   6   7
ATOM      7  O   UNL     1      -2.551   8.566  11.568  0.00  0.00    -0.388 OA
ATOM      8  H   UNL     1      -3.162   9.291  11.413  0.00  0.00    +0.210 HD
ENDBRANCH   6   7
BRANCH   6   9
ATOM      9  C   UNL     1      -2.971   9.594  13.754  0.00  0.00    +0.175 C 
BRANCH   9  10
ATOM     10  C   UNL     1      -3.139  10.877  12.926  0.00  0.00    +0.176 C 
ATOM     11  O   UNL     1      -1.853  11.195  12.328  0.00  0.00    -0.332 OA
ATOM     12  C   UNL     1      -1.845  12.339  11.411  0.00  0.00    +0.277 C 
ATOM     13  C   UNL     1      -2.423  13.595  12.108  0.00  0.00    +0.110 C 
ATOM     14  C   UNL     1      -3.777  13.298  12.786  0.00  0.00    +0.143 C 
ATOM     15  C   UNL     1      -3.671  12.088  13.716  0.00  0.00    +0.133 C 
BRANCH  15  16
ATOM     16  N   UNL     1      -4.986  11.762  14.289  0.00  0.00    -0.308 N 
ATOM     17  H   UNL     1      -5.702  11.420  13.663  0.00  0.00    +0.149 HD
ATOM     18  C   UNL     1      -5.296  11.888  15.582  0.00  0.00    +0.210 C 
ATOM     19  C   UNL     1      -4.192  12.436  16.505  0.00  0.00    +0.109 C 
ATOM     20  O   UNL     1      -6.402  11.593  16.037  0.00  0.00    -0.276 OA
ENDBRANCH  15  16
BRANCH  12  21
ATOM     21  C   UNL     1      -2.668  12.028  10.143  0.00  0.00    +0.414 C 
ATOM     22  O   UNL     1      -3.270  12.928   9.558  0.00  0.00    -0.240 OA
ATOM     23  O   UNL     1      -2.730  10.879   9.705  0.00  0.00    -0.240 OA
ENDBRANCH  12  21
BRANCH  14  24
ATOM     24  O   UNL     1      -4.198  14.435  13.541  0.00  0.00    -0.390 OA
ATOM     25  H   UNL     1      -3.869  15.235  13.125  0.00  0.00    +0.210 HD
ENDBRANCH  14  24
BRANCH  12  26
ATOM     26  O   UNL     1      -0.468  12.612  11.045  0.00  0.00    -0.343 OA
ATOM     27  C   UNL     1      -0.042  13.984  11.243  0.00  0.00    +0.198 C 
ENDBRANCH  12  26
ENDBRANCH   9  10
BRANCH   9  28
ATOM     28  O   UNL     1      -2.266   9.882  14.978  0.00  0.00    -0.387 OA
ATOM     29  H   UNL     1      -1.743   9.118  15.233  0.00  0.00    +0.210 HD
ENDBRANCH   9  28
ENDBRANCH   6   9
ENDBRANCH   5   6
ENDBRANCH   3   5
BRANCH   1  30
ATOM     30  O   UNL     1      -2.184   6.305  17.147  0.00  0.00    -0.444 OA
BRANCH  30  31
ATOM     31  C   UNL     1      -0.813   5.974  16.913  0.00  0.00    +0.292 C 
BRANCH  31  33
ATOM     32  N   UNL     1      -1.421   4.015  18.285  0.00  0.00    -0.131 NA
ATOM     33  C   UNL     1      -0.483   4.690  17.559  0.00  0.00    +0.120 A 
ATOM     34  C   UNL     1       0.698   3.982  17.578  0.00  0.00    +0.138 A 
ATOM     35  N   UNL     1       0.398   2.833  18.256  0.00  0.00    -0.238 N 
ATOM     36  N   UNL     1      -0.864   2.907  18.745  0.00  0.00    -0.064 NA
BRANCH  35  37
ATOM     37  C   UNL     1       1.265   1.693  18.677  0.00  0.00    +0.122 C 
ATOM     38  C   UNL     1       2.693   2.265  18.841  0.00  0.00    +0.044 C 
ATOM     39  C   UNL     1       1.114   0.645  17.557  0.00  0.00    +0.044 C 
BRANCH  37  40
ATOM     40  C   UNL     1       0.857   1.078  20.031  0.00  0.00    +0.192 C 
ATOM     41  O   UNL     1       0.119   0.088  20.069  0.00  0.00    -0.289 OA
BRANCH  40  42
ATOM     42  C   UNL     1       1.302   1.643  21.338  0.00  0.00    +0.045 A 
ATOM     43  C   UNL     1       1.726   0.792  22.352  0.00  0.00    +0.095 A 
ATOM     44  N   UNL     1       2.055   1.518  23.455  0.00  0.00    -0.360 N 
ATOM     45  H   UNL     1       2.383   1.136  24.332  0.00  0.00    +0.165 HD
ATOM     46  C   UNL     1       1.866   2.854  23.210  0.00  0.00    +0.047 A 
ATOM     47  C   UNL     1       2.070   3.943  24.070  0.00  0.00    +0.026 A 
ATOM     48  C   UNL     1       1.799   5.223  23.589  0.00  0.00    +0.002 A 
ATOM     49  C   UNL     1       1.342   5.405  22.294  0.00  0.00    +0.001 A 
ATOM     50  C   UNL     1       1.145   4.305  21.451  0.00  0.00    +0.011 A 
ATOM     51  C   UNL     1       1.402   2.982  21.893  0.00  0.00    +0.010 A 
ENDBRANCH  40  42
ENDBRANCH  37  40
ENDBRANCH  35  37
ENDBRANCH  31  33
ENDBRANCH  30  31
ENDBRANCH   1  30
TORSDOF 16
