REMARK  Name = lig_assembled_87.pdb
REMARK  12 active torsions:
REMARK  status: ('A' for Active; 'I' for Inactive)
REMARK    1  A    between atoms: _2  and  _9
REMARK    2  A    between atoms: _3  and  _12
REMARK    3  A    between atoms: _6  and  _7
REMARK    4  A    between atoms: _6  and  _16
REMARK    5  A    between atoms: _16  and  _18
REMARK    6  A    between atoms: _17  and  _22
REMARK    7  A    between atoms: _18  and  _21
REMARK    8  A    between atoms: _26  and  _36
REMARK    9  A    between atoms: _28  and  _29
REMARK   10  A    between atoms: _30  and  _32
REMARK   11  A    between atoms: _32  and  _34
REMARK   12  A    between atoms: _34  and  _36
REMARK                            x       y       z     vdW  Elec       q    Type
REMARK                         _______ _______ _______ _____ _____    ______ ____
ROOT
ATOM      1  C   UNL     1      24.556  46.473  27.930  0.00  0.00    +0.400 C 
ATOM      2  N   UNL     1      25.135  47.674  27.595  0.00  0.00    -0.278 N 
ATOM      3  H   UNL     1      26.141  47.569  27.941  0.00  0.00    +0.152 HD
ATOM      4  O   UNL     1      25.286  45.570  28.332  0.00  0.00    -0.226 OA
ENDROOT
BRANCH   1   5
ATOM      5  O   UNL     1      23.269  46.420  27.816  0.00  0.00    -0.450 OA
BRANCH   5   6
ATOM      6  C   UNL     1      22.117  46.817  28.522  0.00  0.00    +0.240 C 
BRANCH   6   7
ATOM      7  C   UNL     1      20.770  46.212  28.084  0.00  0.00    +0.100 C 
BRANCH   7   9
ATOM      8  N   UNL     1      20.479  48.444  27.067  0.00  0.00    -0.134 NA
ATOM      9  C   UNL     1      20.054  47.153  27.205  0.00  0.00    +0.086 A 
ATOM     10  C   UNL     1      18.945  46.957  26.412  0.00  0.00    +0.134 A 
ATOM     11  N   UNL     1      18.813  48.129  25.719  0.00  0.00    -0.248 N 
ATOM     12  N   UNL     1      19.671  49.047  26.211  0.00  0.00    -0.065 NA
BRANCH  11  13
ATOM     13  C   UNL     1      17.922  48.500  24.603  0.00  0.00    +0.112 C 
ATOM     14  C   UNL     1      17.100  47.324  24.006  0.00  0.00    +0.045 C 
ATOM     15  C   UNL     1      17.334  47.037  22.514  0.00  0.00    +0.059 C 
ATOM     16  C   UNL     1      16.586  48.030  21.612  0.00  0.00    +0.020 C 
ATOM     17  C   UNL     1      17.623  49.100  21.273  0.00  0.00    +0.020 C 
ATOM     18  C   UNL     1      18.825  48.738  22.147  0.00  0.00    +0.059 C 
ATOM     19  N   UNL     1      18.710  47.283  22.104  0.00  0.00    -0.299 NA
ATOM     20  C   UNL     1      19.750  46.510  22.748  0.00  0.00    +0.105 C 
ATOM     21  C   UNL     1      18.679  49.352  23.541  0.00  0.00    +0.045 C 
ENDBRANCH  11  13
ENDBRANCH   7   9
ENDBRANCH   6   7
ENDBRANCH   5   6
ENDBRANCH   1   5
BRANCH   2  22
ATOM     22  C   UNL     1      25.000  48.992  26.981  0.00  0.00    +0.152 C 
BRANCH  22  23
ATOM     23  C   UNL     1      23.802  49.177  26.026  0.00  0.00    +0.193 C 
ATOM     24  O   UNL     1      23.814  50.559  25.608  0.00  0.00    -0.219 OA
BRANCH  23  25
ATOM     25  C   UNL     1      23.810  48.375  24.705  0.00  0.00    +0.212 C 
ATOM     26  O   UNL     1      22.524  48.442  24.070  0.00  0.00    -0.218 OA
BRANCH  25  27
ATOM     27  C   UNL     1      24.904  48.867  23.682  0.00  0.00    +0.171 C 
ATOM     28  O   UNL     1      24.341  49.543  22.562  0.00  0.00    -0.343 OA
ATOM     29  C   UNL     1      25.046  49.865  21.400  0.00  0.00    +0.220 C 
ATOM     30  C   UNL     1      25.798  48.648  20.834  0.00  0.00    +0.076 C 
ATOM     31  C   UNL     1      26.654  48.063  21.969  0.00  0.00    +0.177 C 
ATOM     32  O   UNL     1      27.402  46.956  21.487  0.00  0.00    -0.221 OA
ATOM     33  C   UNL     1      25.746  47.653  23.170  0.00  0.00    +0.155 C 
BRANCH  33  34
ATOM     34  N   UNL     1      26.555  47.091  24.248  0.00  0.00    -0.202 NA
ATOM     35  C   UNL     1      26.460  45.886  24.866  0.00  0.00    +0.242 C 
ATOM     36  C   UNL     1      27.602  45.439  25.742  0.00  0.00    +0.096 C 
ATOM     37  O   UNL     1      25.457  45.194  24.698  0.00  0.00    -0.273 OA
ENDBRANCH  33  34
BRANCH  29  38
ATOM     38  C   UNL     1      26.030  51.146  21.575  0.00  0.00    +0.391 C 
ATOM     39  O   UNL     1      26.837  51.114  20.496  0.00  0.00    -0.243 OA
ATOM     40  O   UNL     1      25.485  51.903  22.535  0.00  0.00    -0.243 OA
ENDBRANCH  29  38
ENDBRANCH  25  27
ENDBRANCH  23  25
ENDBRANCH  22  23
ENDBRANCH   2  22
TORSDOF 11
