REMARK  Name = lig_assembled_84.pdb
REMARK  16 active torsions:
REMARK  status: ('A' for Active; 'I' for Inactive)
REMARK    1  A    between atoms: _2  and  _10
REMARK    2  A    between atoms: _3  and  _13
REMARK    3  A    between atoms: _4  and  _16
REMARK    4  A    between atoms: _7  and  _8
REMARK    5  A    between atoms: _7  and  _23
REMARK    6  A    between atoms: _10  and  _11
REMARK    7  A    between atoms: _11  and  _12
REMARK    8  A    between atoms: _11  and  _13
REMARK    9  A    between atoms: _23  and  _25
REMARK   10  A    between atoms: _24  and  _29
REMARK   11  A    between atoms: _25  and  _28
REMARK   12  A    between atoms: _33  and  _43
REMARK   13  A    between atoms: _35  and  _36
REMARK   14  A    between atoms: _37  and  _39
REMARK   15  A    between atoms: _39  and  _41
REMARK   16  A    between atoms: _41  and  _43
REMARK                            x       y       z     vdW  Elec       q    Type
REMARK                         _______ _______ _______ _____ _____    ______ ____
ROOT
ATOM      1  C   UNL     1      26.753  36.170  16.661  0.00  0.00    +0.240 C 
ENDROOT
BRANCH   1   2
ATOM      2  C   UNL     1      27.680  36.783  15.594  0.00  0.00    +0.100 C 
BRANCH   2   4
ATOM      3  N   UNL     1      25.880  37.701  14.158  0.00  0.00    -0.134 NA
ATOM      4  C   UNL     1      27.012  37.902  14.902  0.00  0.00    +0.086 A 
ATOM      5  C   UNL     1      27.366  39.232  14.832  0.00  0.00    +0.133 A 
ATOM      6  N   UNL     1      26.450  39.770  13.979  0.00  0.00    -0.251 N 
ATOM      7  N   UNL     1      25.545  38.855  13.593  0.00  0.00    -0.065 NA
BRANCH   6   8
ATOM      8  C   UNL     1      26.460  41.095  13.389  0.00  0.00    +0.149 C 
BRANCH   8   9
ATOM      9  C   UNL     1      25.208  41.934  13.695  0.00  0.00    +0.021 C 
ATOM     10  C   UNL     1      25.356  42.691  15.023  0.00  0.00    +0.010 C 
BRANCH   9  11
ATOM     11  C   UNL     1      24.928  42.957  12.568  0.00  0.00    +0.089 C 
BRANCH  11  12
ATOM     12  N   UNL     1      24.468  42.389  11.293  0.00  0.00    -0.299 NA
ATOM     13  C   UNL     1      24.572  43.407  10.214  0.00  0.00    +0.103 C 
ATOM     14  C   UNL     1      24.178  42.828   8.841  0.00  0.00    +0.120 C 
ATOM     15  N   UNL     1      22.808  42.307   8.899  0.00  0.00    -0.327 N 
ATOM     16  C   UNL     1      22.576  41.329   9.972  0.00  0.00    +0.120 C 
ATOM     17  C   UNL     1      23.064  41.904  11.334  0.00  0.00    +0.103 C 
BRANCH  15  18
ATOM     18  C   UNL     1      21.838  42.664   7.990  0.00  0.00    +0.030 A 
ATOM     19  C   UNL     1      21.860  43.918   7.352  0.00  0.00    +0.024 A 
ATOM     20  C   UNL     1      20.870  44.310   6.445  0.00  0.00    +0.022 A 
ATOM     21  C   UNL     1      19.833  43.441   6.147  0.00  0.00    +0.041 A 
ATOM     22 CL   UNL     1      18.608  43.916   5.036  0.00  0.00    -0.084 Cl
ATOM     23  C   UNL     1      19.775  42.191   6.753  0.00  0.00    +0.022 A 
ATOM     24  C   UNL     1      20.770  41.814   7.666  0.00  0.00    +0.024 A 
ENDBRANCH  15  18
ENDBRANCH  11  12
ENDBRANCH   9  11
ENDBRANCH   8   9
ENDBRANCH   6   8
ENDBRANCH   2   4
ENDBRANCH   1   2
BRANCH   1  25
ATOM     25  O   UNL     1      27.335  35.303  17.606  0.00  0.00    -0.450 OA
BRANCH  25  26
ATOM     26  C   UNL     1      28.506  34.905  17.981  0.00  0.00    +0.400 C 
ATOM     27  N   UNL     1      29.104  33.970  17.169  0.00  0.00    -0.278 N 
ATOM     28  H   UNL     1      30.108  33.931  17.534  0.00  0.00    +0.152 HD
ATOM     29  O   UNL     1      29.128  35.303  18.962  0.00  0.00    -0.226 OA
BRANCH  27  30
ATOM     30  C   UNL     1      28.983  33.020  16.066  0.00  0.00    +0.152 C 
BRANCH  30  31
ATOM     31  C   UNL     1      27.550  32.572  15.709  0.00  0.00    +0.193 C 
ATOM     32  O   UNL     1      27.145  33.354  14.564  0.00  0.00    -0.219 OA
BRANCH  31  33
ATOM     33  C   UNL     1      27.348  31.106  15.267  0.00  0.00    +0.212 C 
ATOM     34  O   UNL     1      28.538  30.339  15.514  0.00  0.00    -0.218 OA
BRANCH  33  35
ATOM     35  C   UNL     1      26.135  30.399  15.984  0.00  0.00    +0.171 C 
ATOM     36  O   UNL     1      24.877  30.792  15.445  0.00  0.00    -0.343 OA
ATOM     37  C   UNL     1      23.644  30.514  16.040  0.00  0.00    +0.220 C 
ATOM     38  C   UNL     1      23.621  30.922  17.523  0.00  0.00    +0.076 C 
ATOM     39  C   UNL     1      24.832  30.261  18.203  0.00  0.00    +0.177 C 
ATOM     40  O   UNL     1      24.836  30.574  19.589  0.00  0.00    -0.221 OA
ATOM     41  C   UNL     1      26.153  30.722  17.514  0.00  0.00    +0.155 C 
BRANCH  41  42
ATOM     42  N   UNL     1      27.306  30.102  18.162  0.00  0.00    -0.202 NA
ATOM     43  C   UNL     1      28.149  30.604  19.099  0.00  0.00    +0.242 C 
ATOM     44  C   UNL     1      29.075  29.654  19.812  0.00  0.00    +0.096 C 
ATOM     45  O   UNL     1      28.138  31.809  19.343  0.00  0.00    -0.273 OA
ENDBRANCH  41  42
BRANCH  37  46
ATOM     46  C   UNL     1      23.159  28.976  15.836  0.00  0.00    +0.391 C 
ATOM     47  O   UNL     1      22.283  28.753  16.834  0.00  0.00    -0.243 OA
ATOM     48  O   UNL     1      23.566  28.619  14.612  0.00  0.00    -0.243 OA
ENDBRANCH  37  46
ENDBRANCH  33  35
ENDBRANCH  31  33
ENDBRANCH  30  31
ENDBRANCH  27  30
ENDBRANCH  25  26
ENDBRANCH   1  25
TORSDOF 15
