REMARK  Name = lig_assembled_54.pdb
REMARK  19 active torsions:
REMARK  status: ('A' for Active; 'I' for Inactive)
REMARK    1  A    between atoms: _2  and  _8
REMARK    2  A    between atoms: _4  and  _13
REMARK    3  A    between atoms: _5  and  _6
REMARK    4  A    between atoms: _5  and  _16
REMARK    5  A    between atoms: _8  and  _9
REMARK    6  A    between atoms: _9  and  _10
REMARK    7  A    between atoms: _10  and  _14
REMARK    8  A    between atoms: _10  and  _15
REMARK    9  A    between atoms: _11  and  _12
REMARK   10  A    between atoms: _11  and  _15
REMARK   11  A    between atoms: _13  and  _14
REMARK   12  A    between atoms: _16  and  _18
REMARK   13  A    between atoms: _17  and  _22
REMARK   14  A    between atoms: _18  and  _21
REMARK   15  A    between atoms: _26  and  _36
REMARK   16  A    between atoms: _28  and  _29
REMARK   17  A    between atoms: _30  and  _32
REMARK   18  A    between atoms: _32  and  _34
REMARK   19  A    between atoms: _34  and  _36
REMARK                            x       y       z     vdW  Elec       q    Type
REMARK                         _______ _______ _______ _____ _____    ______ ____
ROOT
ATOM      1  C   UNL     1      29.510  36.074  18.396  0.00  0.00    +0.400 C 
ATOM      2  N   UNL     1      30.737  35.552  18.729  0.00  0.00    -0.278 N 
ATOM      3  H   UNL     1      31.424  36.170  18.191  0.00  0.00    +0.152 HD
ATOM      4  O   UNL     1      29.480  37.136  17.779  0.00  0.00    -0.226 OA
ENDROOT
BRANCH   1   5
ATOM      5  O   UNL     1      28.487  35.366  18.745  0.00  0.00    -0.450 OA
BRANCH   5   6
ATOM      6  C   UNL     1      27.704  34.304  18.251  0.00  0.00    +0.240 C 
BRANCH   6   7
ATOM      7  C   UNL     1      28.277  33.484  17.079  0.00  0.00    +0.100 C 
BRANCH   7   9
ATOM      8  N   UNL     1      26.738  31.575  17.424  0.00  0.00    -0.134 NA
ATOM      9  C   UNL     1      27.266  32.526  16.592  0.00  0.00    +0.086 A 
ATOM     10  C   UNL     1      26.686  32.409  15.347  0.00  0.00    +0.133 A 
ATOM     11  N   UNL     1      25.788  31.395  15.498  0.00  0.00    -0.251 N 
ATOM     12  N   UNL     1      25.825  30.892  16.745  0.00  0.00    -0.065 NA
BRANCH  11  13
ATOM     13  C   UNL     1      24.828  30.893  14.535  0.00  0.00    +0.150 C 
BRANCH  13  14
ATOM     14  C   UNL     1      24.365  29.486  14.881  0.00  0.00    +0.084 C 
BRANCH  14  15
ATOM     15  C   UNL     1      22.842  29.321  14.858  0.00  0.00    +0.252 C 
BRANCH  15  16
ATOM     16  O   UNL     1      22.485  27.982  15.210  0.00  0.00    -0.352 OA
BRANCH  16  17
ATOM     17  C   UNL     1      22.530  27.715  16.610  0.00  0.00    +0.159 C 
ATOM     18  C   UNL     1      21.729  26.460  16.895  0.00  0.00    +0.034 C 
ENDBRANCH  16  17
ENDBRANCH  15  16
BRANCH  15  19
ATOM     19  O   UNL     1      22.395  29.610  13.527  0.00  0.00    -0.352 OA
BRANCH  19  20
ATOM     20  C   UNL     1      20.970  29.655  13.427  0.00  0.00    +0.159 C 
ATOM     21  C   UNL     1      20.587  30.305  12.113  0.00  0.00    +0.034 C 
ENDBRANCH  19  20
ENDBRANCH  15  19
ENDBRANCH  14  15
ENDBRANCH  13  14
ENDBRANCH  11  13
ENDBRANCH   7   9
ENDBRANCH   6   7
ENDBRANCH   5   6
ENDBRANCH   1   5
BRANCH   2  22
ATOM     22  C   UNL     1      31.507  34.565  19.482  0.00  0.00    +0.152 C 
BRANCH  22  23
ATOM     23  C   UNL     1      31.568  34.772  21.009  0.00  0.00    +0.193 C 
ATOM     24  O   UNL     1      30.233  34.546  21.513  0.00  0.00    -0.219 OA
BRANCH  23  25
ATOM     25  C   UNL     1      32.456  33.808  21.826  0.00  0.00    +0.212 C 
ATOM     26  O   UNL     1      33.316  33.056  20.954  0.00  0.00    -0.218 OA
BRANCH  25  27
ATOM     27  C   UNL     1      33.346  34.539  22.902  0.00  0.00    +0.171 C 
ATOM     28  O   UNL     1      32.585  35.023  24.005  0.00  0.00    -0.343 OA
ATOM     29  C   UNL     1      33.070  35.908  24.970  0.00  0.00    +0.220 C 
ATOM     30  C   UNL     1      33.731  37.142  24.330  0.00  0.00    +0.076 C 
ATOM     31  C   UNL     1      34.782  36.637  23.328  0.00  0.00    +0.177 C 
ATOM     32  O   UNL     1      35.452  37.741  22.736  0.00  0.00    -0.221 OA
ATOM     33  C   UNL     1      34.105  35.739  22.247  0.00  0.00    +0.155 C 
BRANCH  33  34
ATOM     34  N   UNL     1      35.099  35.262  21.288  0.00  0.00    -0.202 NA
ATOM     35  C   UNL     1      35.322  35.647  20.006  0.00  0.00    +0.242 C 
ATOM     36  C   UNL     1      36.598  35.206  19.338  0.00  0.00    +0.096 C 
ATOM     37  O   UNL     1      34.488  36.339  19.425  0.00  0.00    -0.273 OA
ENDBRANCH  33  34
BRANCH  29  38
ATOM     38  C   UNL     1      34.048  35.205  26.060  0.00  0.00    +0.391 C 
ATOM     39  O   UNL     1      34.705  36.224  26.646  0.00  0.00    -0.243 OA
ATOM     40  O   UNL     1      33.623  33.941  26.176  0.00  0.00    -0.243 OA
ENDBRANCH  29  38
ENDBRANCH  25  27
ENDBRANCH  23  25
ENDBRANCH  22  23
ENDBRANCH   2  22
TORSDOF 17
