REMARK  Name = lig_assembled_73.pdb
REMARK  13 active torsions:
REMARK  status: ('A' for Active; 'I' for Inactive)
REMARK    1  A    between atoms: _2  and  _9
REMARK    2  A    between atoms: _3  and  _13
REMARK    3  A    between atoms: _6  and  _7
REMARK    4  A    between atoms: _6  and  _17
REMARK    5  A    between atoms: _12  and  _15
REMARK    6  A    between atoms: _17  and  _19
REMARK    7  A    between atoms: _18  and  _23
REMARK    8  A    between atoms: _19  and  _22
REMARK    9  A    between atoms: _27  and  _37
REMARK   10  A    between atoms: _29  and  _30
REMARK   11  A    between atoms: _31  and  _33
REMARK   12  A    between atoms: _33  and  _35
REMARK   13  A    between atoms: _35  and  _37
REMARK                            x       y       z     vdW  Elec       q    Type
REMARK                         _______ _______ _______ _____ _____    ______ ____
ROOT
ATOM      1  C   UNL     1      26.502  38.280  24.888  0.00  0.00    +0.400 C 
ATOM      2  N   UNL     1      27.351  37.845  25.879  0.00  0.00    -0.278 N 
ATOM      3  H   UNL     1      26.950  38.293  26.762  0.00  0.00    +0.152 HD
ATOM      4  O   UNL     1      25.473  38.862  25.221  0.00  0.00    -0.226 OA
ENDROOT
BRANCH   2   5
ATOM      5  C   UNL     1      28.518  37.053  26.259  0.00  0.00    +0.152 C 
BRANCH   5   6
ATOM      6  C   UNL     1      29.768  37.848  26.690  0.00  0.00    +0.193 C 
ATOM      7  O   UNL     1      29.299  38.964  27.478  0.00  0.00    -0.219 OA
BRANCH   6   8
ATOM      8  C   UNL     1      30.790  37.134  27.601  0.00  0.00    +0.212 C 
ATOM      9  O   UNL     1      31.147  37.976  28.710  0.00  0.00    -0.218 OA
BRANCH   8  10
ATOM     10  C   UNL     1      30.271  35.756  28.162  0.00  0.00    +0.171 C 
ATOM     11  O   UNL     1      30.196  34.749  27.157  0.00  0.00    -0.343 OA
ATOM     12  C   UNL     1      29.549  33.522  27.318  0.00  0.00    +0.220 C 
ATOM     13  C   UNL     1      28.118  33.698  27.856  0.00  0.00    +0.076 C 
ATOM     14  C   UNL     1      28.205  34.555  29.130  0.00  0.00    +0.177 C 
ATOM     15  O   UNL     1      26.910  34.715  29.692  0.00  0.00    -0.221 OA
ATOM     16  C   UNL     1      28.856  35.935  28.805  0.00  0.00    +0.155 C 
BRANCH  16  17
ATOM     17  N   UNL     1      28.934  36.756  30.011  0.00  0.00    -0.202 NA
ATOM     18  C   UNL     1      29.530  36.493  31.202  0.00  0.00    +0.242 C 
ATOM     19  C   UNL     1      29.716  37.629  32.174  0.00  0.00    +0.096 C 
ATOM     20  O   UNL     1      29.901  35.349  31.457  0.00  0.00    -0.273 OA
ENDBRANCH  16  17
BRANCH  12  21
ATOM     21  C   UNL     1      30.394  32.456  28.206  0.00  0.00    +0.391 C 
ATOM     22  O   UNL     1      29.492  31.531  28.589  0.00  0.00    -0.243 OA
ATOM     23  O   UNL     1      31.685  32.723  27.975  0.00  0.00    -0.243 OA
ENDBRANCH  12  21
ENDBRANCH   8  10
ENDBRANCH   6   8
ENDBRANCH   5   6
ENDBRANCH   2   5
BRANCH   1  24
ATOM     24  O   UNL     1      26.895  38.055  23.677  0.00  0.00    -0.450 OA
BRANCH  24  25
ATOM     25  C   UNL     1      26.357  37.665  22.435  0.00  0.00    +0.240 C 
BRANCH  25  26
ATOM     26  C   UNL     1      25.446  36.423  22.413  0.00  0.00    +0.100 C 
BRANCH  26  28
ATOM     27  N   UNL     1      26.351  34.391  23.498  0.00  0.00    -0.134 NA
ATOM     28  C   UNL     1      26.259  35.192  22.397  0.00  0.00    +0.086 A 
ATOM     29  C   UNL     1      27.012  34.648  21.382  0.00  0.00    +0.139 A 
ATOM     30  N   UNL     1      27.546  33.498  21.914  0.00  0.00    -0.220 N 
ATOM     31  N   UNL     1      27.134  33.365  23.196  0.00  0.00    -0.061 NA
BRANCH  30  32
ATOM     32  C   UNL     1      28.403  32.548  21.298  0.00  0.00    +0.074 A 
ATOM     33  C   UNL     1      28.884  31.457  22.044  0.00  0.00    +0.032 A 
ATOM     34  C   UNL     1      29.738  30.511  21.460  0.00  0.00    +0.054 A 
ATOM     35  C   UNL     1      30.123  30.650  20.128  0.00  0.00    +0.195 A 
ATOM     36  C   UNL     1      29.643  31.733  19.394  0.00  0.00    +0.316 A 
ATOM     37  C   UNL     1      28.781  32.686  19.957  0.00  0.00    +0.116 A 
BRANCH  36  38
ATOM     38  N   UNL     1      30.034  31.910  18.009  0.00  0.00    +0.083 N 
ATOM     39  O   UNL     1      30.563  32.985  17.696  0.00  0.00    +0.042 OA
ATOM     40  O   UNL     1      29.723  31.003  17.224  0.00  0.00    -0.576 OA
ENDBRANCH  36  38
BRANCH  35  41
ATOM     41  O   UNL     1      30.937  29.719  19.555  0.00  0.00    -0.501 OA
ATOM     42  H   UNL     1      31.264  29.100  20.231  0.00  0.00    +0.292 HD
ENDBRANCH  35  41
ENDBRANCH  30  32
ENDBRANCH  26  28
ENDBRANCH  25  26
ENDBRANCH  24  25
ENDBRANCH   1  24
TORSDOF 13
