REMARK  Name = lig_assembled_3.pdb
REMARK  11 active torsions:
REMARK  status: ('A' for Active; 'I' for Inactive)
REMARK    1  A    between atoms: _2  and  _8
REMARK    2  A    between atoms: _5  and  _6
REMARK    3  A    between atoms: _5  and  _13
REMARK    4  A    between atoms: _13  and  _15
REMARK    5  A    between atoms: _14  and  _19
REMARK    6  A    between atoms: _15  and  _18
REMARK    7  A    between atoms: _23  and  _33
REMARK    8  A    between atoms: _25  and  _26
REMARK    9  A    between atoms: _27  and  _29
REMARK   10  A    between atoms: _29  and  _31
REMARK   11  A    between atoms: _31  and  _33
REMARK                            x       y       z     vdW  Elec       q    Type
REMARK                         _______ _______ _______ _____ _____    ______ ____
ROOT
ATOM      1  C   UNL     1      30.898  29.850  22.131  0.00  0.00    +0.152 C 
ENDROOT
BRANCH   1   3
ATOM      2  C   UNL     1      32.238  32.125  21.443  0.00  0.00    +0.400 C 
ATOM      3  N   UNL     1      31.910  30.886  21.941  0.00  0.00    -0.278 N 
ATOM      4  H   UNL     1      32.817  30.556  22.400  0.00  0.00    +0.152 HD
ATOM      5  O   UNL     1      33.319  32.612  21.766  0.00  0.00    -0.226 OA
BRANCH   2   6
ATOM      6  O   UNL     1      31.372  32.655  20.643  0.00  0.00    -0.450 OA
BRANCH   6   7
ATOM      7  C   UNL     1      30.810  32.423  19.372  0.00  0.00    +0.240 C 
BRANCH   7   8
ATOM      8  C   UNL     1      30.286  33.645  18.593  0.00  0.00    +0.100 C 
BRANCH   8  10
ATOM      9  N   UNL     1      31.014  35.819  19.523  0.00  0.00    -0.134 NA
ATOM     10  C   UNL     1      30.113  34.795  19.501  0.00  0.00    +0.086 A 
ATOM     11  C   UNL     1      29.114  35.054  20.411  0.00  0.00    +0.139 A 
ATOM     12  N   UNL     1      29.435  36.278  20.954  0.00  0.00    -0.220 N 
ATOM     13  N   UNL     1      30.599  36.713  20.411  0.00  0.00    -0.061 NA
BRANCH  12  14
ATOM     14  C   UNL     1      28.717  37.041  21.910  0.00  0.00    +0.067 A 
ATOM     15  C   UNL     1      27.676  37.894  21.516  0.00  0.00    +0.028 A 
ATOM     16  C   UNL     1      27.001  38.660  22.471  0.00  0.00    +0.002 A 
ATOM     17  C   UNL     1      27.357  38.579  23.815  0.00  0.00    +0.000 A 
ATOM     18  C   UNL     1      28.385  37.727  24.214  0.00  0.00    +0.002 A 
ATOM     19  C   UNL     1      29.065  36.957  23.268  0.00  0.00    +0.028 A 
ENDBRANCH  12  14
ENDBRANCH   8  10
ENDBRANCH   7   8
ENDBRANCH   6   7
ENDBRANCH   2   6
ENDBRANCH   1   3
BRANCH   1  20
ATOM     20  C   UNL     1      30.633  28.929  20.923  0.00  0.00    +0.193 C 
ATOM     21  O   UNL     1      31.842  28.922  20.132  0.00  0.00    -0.219 OA
BRANCH  20  22
ATOM     22  C   UNL     1      30.351  27.438  21.209  0.00  0.00    +0.212 C 
ATOM     23  O   UNL     1      31.387  26.881  22.035  0.00  0.00    -0.218 OA
BRANCH  22  24
ATOM     24  C   UNL     1      28.960  27.188  21.907  0.00  0.00    +0.171 C 
ATOM     25  O   UNL     1      27.900  27.910  21.290  0.00  0.00    -0.343 OA
ATOM     26  C   UNL     1      26.626  28.065  21.842  0.00  0.00    +0.220 C 
ATOM     27  C   UNL     1      26.692  28.560  23.298  0.00  0.00    +0.076 C 
ATOM     28  C   UNL     1      27.620  27.607  24.069  0.00  0.00    +0.177 C 
ATOM     29  O   UNL     1      27.684  27.997  25.434  0.00  0.00    -0.221 OA
ATOM     30  C   UNL     1      29.037  27.592  23.416  0.00  0.00    +0.155 C 
BRANCH  30  31
ATOM     31  N   UNL     1      29.924  26.693  24.150  0.00  0.00    -0.202 NA
ATOM     32  C   UNL     1      30.824  26.969  25.128  0.00  0.00    +0.242 C 
ATOM     33  C   UNL     1      31.394  25.822  25.921  0.00  0.00    +0.096 C 
ATOM     34  O   UNL     1      31.148  28.135  25.344  0.00  0.00    -0.273 OA
ENDBRANCH  30  31
BRANCH  26  35
ATOM     35  C   UNL     1      25.695  26.741  21.703  0.00  0.00    +0.391 C 
ATOM     36  O   UNL     1      24.754  26.876  22.658  0.00  0.00    -0.243 OA
ATOM     37  O   UNL     1      26.018  26.183  20.530  0.00  0.00    -0.243 OA
ENDBRANCH  26  35
ENDBRANCH  22  24
ENDBRANCH  20  22
ENDBRANCH   1  20
TORSDOF 11
