REMARK  Name = lig_assembled_59.pdb
REMARK  13 active torsions:
REMARK  status: ('A' for Active; 'I' for Inactive)
REMARK    1  A    between atoms: _2  and  _9
REMARK    2  A    between atoms: _6  and  _7
REMARK    3  A    between atoms: _6  and  _15
REMARK    4  A    between atoms: _12  and  _13
REMARK    5  A    between atoms: _13  and  _14
REMARK    6  A    between atoms: _15  and  _17
REMARK    7  A    between atoms: _16  and  _21
REMARK    8  A    between atoms: _17  and  _20
REMARK    9  A    between atoms: _25  and  _35
REMARK   10  A    between atoms: _27  and  _28
REMARK   11  A    between atoms: _29  and  _31
REMARK   12  A    between atoms: _31  and  _33
REMARK   13  A    between atoms: _33  and  _35
REMARK                            x       y       z     vdW  Elec       q    Type
REMARK                         _______ _______ _______ _____ _____    ______ ____
ROOT
ATOM      1  C   UNL     1      28.428  40.550  22.670  0.00  0.00    +0.400 C 
ATOM      2  N   UNL     1      29.650  40.091  22.240  0.00  0.00    -0.278 N 
ATOM      3  H   UNL     1      29.537  40.044  21.178  0.00  0.00    +0.152 HD
ATOM      4  O   UNL     1      27.627  40.945  21.826  0.00  0.00    -0.226 OA
ENDROOT
BRANCH   1   5
ATOM      5  O   UNL     1      28.225  40.489  23.945  0.00  0.00    -0.450 OA
BRANCH   5   6
ATOM      6  C   UNL     1      27.734  41.299  24.989  0.00  0.00    +0.240 C 
BRANCH   6   7
ATOM      7  C   UNL     1      28.386  41.142  26.376  0.00  0.00    +0.100 C 
BRANCH   7   9
ATOM      8  N   UNL     1      30.437  39.805  26.714  0.00  0.00    -0.134 NA
ATOM      9  C   UNL     1      29.841  40.939  26.238  0.00  0.00    +0.087 A 
ATOM     10  C   UNL     1      30.797  41.748  25.672  0.00  0.00    +0.141 A 
ATOM     11  N   UNL     1      31.979  41.059  25.828  0.00  0.00    -0.202 N 
ATOM     12  N   UNL     1      31.737  39.882  26.459  0.00  0.00    -0.059 NA
BRANCH  11  13
ATOM     13  C   UNL     1      33.278  41.471  25.425  0.00  0.00    +0.156 A 
ATOM     14  C   UNL     1      34.388  40.797  25.929  0.00  0.00    +0.048 A 
ATOM     15  C   UNL     1      35.661  41.234  25.564  0.00  0.00    +0.011 A 
ATOM     16  C   UNL     1      35.803  42.323  24.700  0.00  0.00    -0.004 A 
ATOM     17  C   UNL     1      34.638  42.932  24.246  0.00  0.00    +0.119 A 
ATOM     18  N   UNL     1      33.387  42.531  24.577  0.00  0.00    -0.236 NA
BRANCH  16  19
ATOM     19  C   UNL     1      37.162  42.866  24.367  0.00  0.00    +0.192 C 
BRANCH  19  20
ATOM     20  O   UNL     1      37.372  42.911  22.964  0.00  0.00    -0.390 OA
ATOM     21  H   UNL     1      37.488  41.992  22.666  0.00  0.00    +0.210 HD
ENDBRANCH  19  20
ENDBRANCH  16  19
ENDBRANCH  11  13
ENDBRANCH   7   9
ENDBRANCH   6   7
ENDBRANCH   5   6
ENDBRANCH   1   5
BRANCH   2  22
ATOM     22  C   UNL     1      31.007  39.664  22.573  0.00  0.00    +0.152 C 
BRANCH  22  23
ATOM     23  C   UNL     1      31.836  39.070  21.415  0.00  0.00    +0.193 C 
ATOM     24  O   UNL     1      31.041  39.216  20.218  0.00  0.00    -0.219 OA
BRANCH  23  25
ATOM     25  C   UNL     1      33.178  39.753  21.073  0.00  0.00    +0.212 C 
ATOM     26  O   UNL     1      33.941  39.986  22.268  0.00  0.00    -0.218 OA
BRANCH  25  27
ATOM     27  C   UNL     1      34.061  38.924  20.064  0.00  0.00    +0.171 C 
ATOM     28  O   UNL     1      34.338  37.608  20.533  0.00  0.00    -0.343 OA
ATOM     29  C   UNL     1      35.285  36.752  19.965  0.00  0.00    +0.220 C 
ATOM     30  C   UNL     1      36.650  37.444  19.796  0.00  0.00    +0.076 C 
ATOM     31  C   UNL     1      36.413  38.752  19.023  0.00  0.00    +0.177 C 
ATOM     32  O   UNL     1      37.651  39.412  18.805  0.00  0.00    -0.221 OA
ATOM     33  C   UNL     1      35.414  39.663  19.802  0.00  0.00    +0.155 C 
BRANCH  33  34
ATOM     34  N   UNL     1      35.192  40.910  19.074  0.00  0.00    -0.202 NA
ATOM     35  C   UNL     1      35.483  42.186  19.431  0.00  0.00    +0.242 C 
ATOM     36  C   UNL     1      35.420  43.257  18.373  0.00  0.00    +0.096 C 
ATOM     37  O   UNL     1      35.790  42.437  20.595  0.00  0.00    -0.273 OA
ENDBRANCH  33  34
BRANCH  29  38
ATOM     38  C   UNL     1      34.788  36.065  18.579  0.00  0.00    +0.391 C 
ATOM     39  O   UNL     1      33.468  35.860  18.747  0.00  0.00    -0.243 OA
ATOM     40  O   UNL     1      35.786  36.238  17.703  0.00  0.00    -0.243 OA
ENDBRANCH  29  38
ENDBRANCH  25  27
ENDBRANCH  23  25
ENDBRANCH  22  23
ENDBRANCH   2  22
TORSDOF 13
