REMARK  Name = lig_assembled_22.pdb
REMARK  15 active torsions:
REMARK  status: ('A' for Active; 'I' for Inactive)
REMARK    1  A    between atoms: _2  and  _8
REMARK    2  A    between atoms: _4  and  _8
REMARK    3  A    between atoms: _4  and  _11
REMARK    4  A    between atoms: _5  and  _6
REMARK    5  A    between atoms: _5  and  _13
REMARK    6  A    between atoms: _8  and  _9
REMARK    7  A    between atoms: _8  and  _10
REMARK    8  A    between atoms: _13  and  _15
REMARK    9  A    between atoms: _14  and  _19
REMARK   10  A    between atoms: _15  and  _18
REMARK   11  A    between atoms: _23  and  _33
REMARK   12  A    between atoms: _25  and  _26
REMARK   13  A    between atoms: _27  and  _29
REMARK   14  A    between atoms: _29  and  _31
REMARK   15  A    between atoms: _31  and  _33
REMARK                            x       y       z     vdW  Elec       q    Type
REMARK                         _______ _______ _______ _____ _____    ______ ____
ROOT
ATOM      1  C   UNL     1      22.216  23.374  29.804  0.00  0.00    +0.400 C 
ATOM      2  N   UNL     1      20.953  23.897  29.659  0.00  0.00    -0.278 N 
ATOM      3  H   UNL     1      20.446  23.566  30.540  0.00  0.00    +0.152 HD
ATOM      4  O   UNL     1      22.512  22.863  30.882  0.00  0.00    -0.226 OA
ENDROOT
BRANCH   1   5
ATOM      5  O   UNL     1      22.975  23.444  28.760  0.00  0.00    -0.450 OA
BRANCH   5   6
ATOM      6  C   UNL     1      24.291  23.127  28.372  0.00  0.00    +0.240 C 
BRANCH   6   7
ATOM      7  C   UNL     1      24.671  23.351  26.896  0.00  0.00    +0.100 C 
BRANCH   7   9
ATOM      8  N   UNL     1      26.040  25.269  27.635  0.00  0.00    -0.134 NA
ATOM      9  C   UNL     1      25.874  24.199  26.801  0.00  0.00    +0.086 A 
ATOM     10  C   UNL     1      26.960  24.115  25.957  0.00  0.00    +0.135 A 
ATOM     11  N   UNL     1      27.756  25.163  26.327  0.00  0.00    -0.235 N 
ATOM     12  N   UNL     1      27.190  25.852  27.336  0.00  0.00    -0.064 NA
BRANCH  11  13
ATOM     13  C   UNL     1      29.041  25.595  25.774  0.00  0.00    +0.155 C 
ATOM     14  C   UNL     1      29.288  27.104  25.986  0.00  0.00    +0.048 C 
ATOM     15  C   UNL     1      29.048  25.308  24.260  0.00  0.00    +0.048 C 
BRANCH  13  16
ATOM     16  C   UNL     1      30.190  24.839  26.446  0.00  0.00    +0.332 C 
ATOM     17  O   UNL     1      30.091  24.244  27.513  0.00  0.00    -0.248 OA
BRANCH  16  18
ATOM     18  O   UNL     1      31.367  24.859  25.776  0.00  0.00    -0.479 OA
ATOM     19  H   UNL     1      31.387  25.374  24.946  0.00  0.00    +0.295 HD
ENDBRANCH  16  18
ENDBRANCH  13  16
ENDBRANCH  11  13
ENDBRANCH   7   9
ENDBRANCH   6   7
ENDBRANCH   5   6
ENDBRANCH   1   5
BRANCH   2  20
ATOM     20  C   UNL     1      20.020  24.695  28.868  0.00  0.00    +0.152 C 
BRANCH  20  21
ATOM     21  C   UNL     1      19.088  23.911  27.922  0.00  0.00    +0.193 C 
ATOM     22  O   UNL     1      19.156  22.525  28.326  0.00  0.00    -0.219 OA
BRANCH  21  23
ATOM     23  C   UNL     1      17.581  24.249  27.960  0.00  0.00    +0.212 C 
ATOM     24  O   UNL     1      17.115  24.312  29.318  0.00  0.00    -0.218 OA
BRANCH  23  25
ATOM     25  C   UNL     1      17.228  25.608  27.244  0.00  0.00    +0.171 C 
ATOM     26  O   UNL     1      17.164  26.705  28.150  0.00  0.00    -0.343 OA
ATOM     27  C   UNL     1      16.640  27.960  27.832  0.00  0.00    +0.220 C 
ATOM     28  C   UNL     1      15.245  27.850  27.192  0.00  0.00    +0.076 C 
ATOM     29  C   UNL     1      15.354  26.876  26.008  0.00  0.00    +0.177 C 
ATOM     30  O   UNL     1      14.097  26.769  25.354  0.00  0.00    -0.221 OA
ATOM     31  C   UNL     1      15.857  25.484  26.502  0.00  0.00    +0.155 C 
BRANCH  31  32
ATOM     32  N   UNL     1      15.956  24.553  25.381  0.00  0.00    -0.202 NA
ATOM     33  C   UNL     1      16.785  24.573  24.306  0.00  0.00    +0.242 C 
ATOM     34  C   UNL     1      16.880  23.336  23.452  0.00  0.00    +0.096 C 
ATOM     35  O   UNL     1      17.434  25.588  24.059  0.00  0.00    -0.273 OA
ENDBRANCH  31  32
BRANCH  27  36
ATOM     36  C   UNL     1      17.640  28.870  26.931  0.00  0.00    +0.391 C 
ATOM     37  O   UNL     1      16.866  29.860  26.445  0.00  0.00    -0.243 OA
ATOM     38  O   UNL     1      18.881  28.481  27.249  0.00  0.00    -0.243 OA
ENDBRANCH  27  36
ENDBRANCH  23  25
ENDBRANCH  21  23
ENDBRANCH  20  21
ENDBRANCH   2  20
TORSDOF 13
