REMARK  Name = lig_assembled_37.pdb
REMARK  16 active torsions:
REMARK  status: ('A' for Active; 'I' for Inactive)
REMARK    1  A    between atoms: _2  and  _8
REMARK    2  A    between atoms: _5  and  _6
REMARK    3  A    between atoms: _5  and  _19
REMARK    4  A    between atoms: _8  and  _9
REMARK    5  A    between atoms: _8  and  _10
REMARK    6  A    between atoms: _10  and  _17
REMARK    7  A    between atoms: _11  and  _12
REMARK    8  A    between atoms: _11  and  _17
REMARK    9  A    between atoms: _19  and  _21
REMARK   10  A    between atoms: _20  and  _25
REMARK   11  A    between atoms: _21  and  _24
REMARK   12  A    between atoms: _29  and  _39
REMARK   13  A    between atoms: _31  and  _32
REMARK   14  A    between atoms: _33  and  _35
REMARK   15  A    between atoms: _35  and  _37
REMARK   16  A    between atoms: _37  and  _39
REMARK                            x       y       z     vdW  Elec       q    Type
REMARK                         _______ _______ _______ _____ _____    ______ ____
ROOT
ATOM      1  C   UNL     1      28.641  36.326  18.607  0.00  0.00    +0.400 C 
ATOM      2  N   UNL     1      29.517  35.307  18.316  0.00  0.00    -0.278 N 
ATOM      3  H   UNL     1      30.432  35.632  18.763  0.00  0.00    +0.152 HD
ATOM      4  O   UNL     1      29.007  37.197  19.392  0.00  0.00    -0.226 OA
ENDROOT
BRANCH   2   5
ATOM      5  C   UNL     1      29.748  34.003  17.699  0.00  0.00    +0.152 C 
BRANCH   5   6
ATOM      6  C   UNL     1      28.604  32.977  17.831  0.00  0.00    +0.193 C 
ATOM      7  O   UNL     1      27.527  33.445  16.990  0.00  0.00    -0.219 OA
BRANCH   6   8
ATOM      8  C   UNL     1      28.876  31.537  17.342  0.00  0.00    +0.212 C 
ATOM      9  O   UNL     1      30.283  31.247  17.393  0.00  0.00    -0.218 OA
BRANCH   8  10
ATOM     10  C   UNL     1      28.105  30.440  18.171  0.00  0.00    +0.171 C 
ATOM     11  O   UNL     1      26.691  30.574  18.075  0.00  0.00    -0.343 OA
ATOM     12  C   UNL     1      25.778  29.900  18.890  0.00  0.00    +0.220 C 
ATOM     13  C   UNL     1      26.124  30.054  20.382  0.00  0.00    +0.076 C 
ATOM     14  C   UNL     1      27.590  29.629  20.563  0.00  0.00    +0.177 C 
ATOM     15  O   UNL     1      27.950  29.714  21.935  0.00  0.00    -0.221 OA
ATOM     16  C   UNL     1      28.520  30.515  19.677  0.00  0.00    +0.155 C 
BRANCH  16  17
ATOM     17  N   UNL     1      29.915  30.119  19.852  0.00  0.00    -0.202 NA
ATOM     18  C   UNL     1      30.893  30.693  20.597  0.00  0.00    +0.242 C 
ATOM     19  C   UNL     1      32.162  29.916  20.834  0.00  0.00    +0.096 C 
ATOM     20  O   UNL     1      30.724  31.821  21.057  0.00  0.00    -0.273 OA
ENDBRANCH  16  17
BRANCH  12  21
ATOM     21  C   UNL     1      25.575  28.341  18.482  0.00  0.00    +0.391 C 
ATOM     22  O   UNL     1      24.822  27.819  19.469  0.00  0.00    -0.243 OA
ATOM     23  O   UNL     1      25.961  28.240  17.204  0.00  0.00    -0.243 OA
ENDBRANCH  12  21
ENDBRANCH   8  10
ENDBRANCH   6   8
ENDBRANCH   5   6
ENDBRANCH   2   5
BRANCH   1  24
ATOM     24  O   UNL     1      27.508  36.284  17.988  0.00  0.00    -0.450 OA
BRANCH  24  25
ATOM     25  C   UNL     1      26.887  36.847  16.855  0.00  0.00    +0.240 C 
BRANCH  25  26
ATOM     26  C   UNL     1      27.796  37.509  15.802  0.00  0.00    +0.100 C 
BRANCH  26  28
ATOM     27  N   UNL     1      28.618  35.472  14.656  0.00  0.00    -0.134 NA
ATOM     28  C   UNL     1      27.917  36.646  14.612  0.00  0.00    +0.086 A 
ATOM     29  C   UNL     1      27.405  36.817  13.345  0.00  0.00    +0.134 A 
ATOM     30  N   UNL     1      27.852  35.729  12.657  0.00  0.00    -0.238 N 
ATOM     31  N   UNL     1      28.567  34.912  13.454  0.00  0.00    -0.065 NA
BRANCH  30  32
ATOM     32  C   UNL     1      27.603  35.346  11.280  0.00  0.00    +0.214 C 
ATOM     33  C   UNL     1      26.307  34.546  11.149  0.00  0.00    +0.045 C 
BRANCH  32  34
ATOM     34  C   UNL     1      27.564  36.556  10.374  0.00  0.00    +0.332 C 
ATOM     35  O   UNL     1      26.585  37.282  10.241  0.00  0.00    -0.248 OA
BRANCH  34  36
ATOM     36  O   UNL     1      28.750  36.726   9.731  0.00  0.00    -0.458 OA
BRANCH  36  37
ATOM     37  C   UNL     1      28.786  37.760   8.735  0.00  0.00    +0.267 C 
BRANCH  37  38
ATOM     38  C   UNL     1      29.884  38.742   9.053  0.00  0.00    -0.010 A 
ATOM     39  C   UNL     1      31.227  38.402   8.837  0.00  0.00    +0.007 A 
ATOM     40  C   UNL     1      32.243  39.321   9.106  0.00  0.00    +0.000 A 
ATOM     41  C   UNL     1      31.928  40.588   9.596  0.00  0.00    +0.000 A 
ATOM     42  C   UNL     1      30.597  40.935   9.820  0.00  0.00    +0.000 A 
ATOM     43  C   UNL     1      29.579  40.016   9.553  0.00  0.00    +0.007 A 
ENDBRANCH  37  38
ENDBRANCH  36  37
ENDBRANCH  34  36
ENDBRANCH  32  34
ENDBRANCH  30  32
ENDBRANCH  26  28
ENDBRANCH  25  26
ENDBRANCH  24  25
ENDBRANCH   1  24
TORSDOF 15
