REMARK  Name = lig_assembled_41.pdb
REMARK  13 active torsions:
REMARK  status: ('A' for Active; 'I' for Inactive)
REMARK    1  A    between atoms: _2  and  _8
REMARK    2  A    between atoms: _5  and  _6
REMARK    3  A    between atoms: _5  and  _16
REMARK    4  A    between atoms: _9  and  _10
REMARK    5  A    between atoms: _10  and  _11
REMARK    6  A    between atoms: _16  and  _18
REMARK    7  A    between atoms: _17  and  _22
REMARK    8  A    between atoms: _18  and  _21
REMARK    9  A    between atoms: _26  and  _36
REMARK   10  A    between atoms: _28  and  _29
REMARK   11  A    between atoms: _30  and  _32
REMARK   12  A    between atoms: _32  and  _34
REMARK   13  A    between atoms: _34  and  _36
REMARK                            x       y       z     vdW  Elec       q    Type
REMARK                         _______ _______ _______ _____ _____    ______ ____
ROOT
ATOM      1  C   UNL     1      25.535  32.763  21.292  0.00  0.00    +0.400 C 
ATOM      2  N   UNL     1      24.495  32.915  20.405  0.00  0.00    -0.278 N 
ATOM      3  H   UNL     1      24.367  33.975  20.352  0.00  0.00    +0.152 HD
ATOM      4  O   UNL     1      26.149  33.768  21.641  0.00  0.00    -0.226 OA
ENDROOT
BRANCH   2   5
ATOM      5  C   UNL     1      23.519  32.293  19.514  0.00  0.00    +0.152 C 
BRANCH   5   6
ATOM      6  C   UNL     1      23.906  30.915  18.938  0.00  0.00    +0.193 C 
ATOM      7  O   UNL     1      23.660  29.945  19.979  0.00  0.00    -0.219 OA
BRANCH   6   8
ATOM      8  C   UNL     1      23.100  30.394  17.728  0.00  0.00    +0.212 C 
ATOM      9  O   UNL     1      21.702  30.318  18.051  0.00  0.00    -0.218 OA
BRANCH   8  10
ATOM     10  C   UNL     1      23.270  31.281  16.435  0.00  0.00    +0.171 C 
ATOM     11  O   UNL     1      22.032  31.538  15.780  0.00  0.00    -0.343 OA
ATOM     12  C   UNL     1      21.917  32.082  14.499  0.00  0.00    +0.220 C 
ATOM     13  C   UNL     1      22.793  31.333  13.480  0.00  0.00    +0.076 C 
ATOM     14  C   UNL     1      24.225  31.295  14.041  0.00  0.00    +0.177 C 
ATOM     15  O   UNL     1      25.087  30.646  13.117  0.00  0.00    -0.221 OA
ATOM     16  C   UNL     1      24.240  30.580  15.428  0.00  0.00    +0.155 C 
BRANCH  16  17
ATOM     17  N   UNL     1      25.599  30.536  15.961  0.00  0.00    -0.202 NA
ATOM     18  C   UNL     1      26.284  29.500  16.508  0.00  0.00    +0.242 C 
ATOM     19  C   UNL     1      27.770  29.649  16.706  0.00  0.00    +0.096 C 
ATOM     20  O   UNL     1      25.683  28.475  16.825  0.00  0.00    -0.273 OA
ENDBRANCH  16  17
BRANCH  12  21
ATOM     21  C   UNL     1      22.181  33.684  14.450  0.00  0.00    +0.391 C 
ATOM     22  O   UNL     1      22.369  33.965  13.146  0.00  0.00    -0.243 OA
ATOM     23  O   UNL     1      21.820  34.155  15.650  0.00  0.00    -0.243 OA
ENDBRANCH  12  21
ENDBRANCH   8  10
ENDBRANCH   6   8
ENDBRANCH   5   6
ENDBRANCH   2   5
BRANCH   1  24
ATOM     24  O   UNL     1      25.748  31.557  21.704  0.00  0.00    -0.450 OA
BRANCH  24  25
ATOM     25  C   UNL     1      26.828  30.682  21.934  0.00  0.00    +0.240 C 
BRANCH  25  26
ATOM     26  C   UNL     1      26.501  29.275  22.471  0.00  0.00    +0.100 C 
BRANCH  26  28
ATOM     27  N   UNL     1      28.791  29.432  23.373  0.00  0.00    -0.134 NA
ATOM     28  C   UNL     1      27.591  28.788  23.334  0.00  0.00    +0.086 A 
ATOM     29  C   UNL     1      27.625  27.720  24.204  0.00  0.00    +0.139 A 
ATOM     30  N   UNL     1      28.917  27.684  24.677  0.00  0.00    -0.219 N 
ATOM     31  N   UNL     1      29.573  28.791  24.228  0.00  0.00    -0.061 NA
BRANCH  30  32
ATOM     32  C   UNL     1      29.552  26.786  25.583  0.00  0.00    +0.077 A 
ATOM     33  C   UNL     1      29.563  26.933  26.986  0.00  0.00    +0.043 A 
ATOM     34  C   UNL     1      30.275  25.995  27.761  0.00  0.00    +0.013 A 
ATOM     35  C   UNL     1      30.969  24.939  27.166  0.00  0.00    +0.001 A 
ATOM     36  C   UNL     1      30.939  24.780  25.789  0.00  0.00    +0.002 A 
ATOM     37  C   UNL     1      30.228  25.688  25.005  0.00  0.00    +0.028 A 
BRANCH  33  38
ATOM     38  C   UNL     1      28.696  27.898  27.729  0.00  0.00    +0.162 C 
ATOM     39  O   UNL     1      27.653  27.498  28.243  0.00  0.00    -0.292 OA
ATOM     40  C   UNL     1      29.100  29.348  27.850  0.00  0.00    +0.091 C 
ENDBRANCH  33  38
ENDBRANCH  30  32
ENDBRANCH  26  28
ENDBRANCH  25  26
ENDBRANCH  24  25
ENDBRANCH   1  24
TORSDOF 12
