REMARK  Name = lig_assembled_17.pdb
REMARK  17 active torsions:
REMARK  status: ('A' for Active; 'I' for Inactive)
REMARK    1  A    between atoms: _2  and  _9
REMARK    2  A    between atoms: _3  and  _10
REMARK    3  A    between atoms: _3  and  _11
REMARK    4  A    between atoms: _3  and  _13
REMARK    5  A    between atoms: _5  and  _13
REMARK    6  A    between atoms: _6  and  _7
REMARK    7  A    between atoms: _6  and  _14
REMARK    8  A    between atoms: _9  and  _10
REMARK    9  A    between atoms: _11  and  _12
REMARK   10  A    between atoms: _14  and  _16
REMARK   11  A    between atoms: _15  and  _20
REMARK   12  A    between atoms: _16  and  _19
REMARK   13  A    between atoms: _24  and  _34
REMARK   14  A    between atoms: _26  and  _27
REMARK   15  A    between atoms: _28  and  _30
REMARK   16  A    between atoms: _30  and  _32
REMARK   17  A    between atoms: _32  and  _34
REMARK                            x       y       z     vdW  Elec       q    Type
REMARK                         _______ _______ _______ _____ _____    ______ ____
ROOT
ATOM      1  C   UNL     1      28.788  46.510  25.254  0.00  0.00    +0.400 C 
ATOM      2  N   UNL     1      27.756  47.239  25.795  0.00  0.00    -0.278 N 
ATOM      3  H   UNL     1      27.348  46.582  26.533  0.00  0.00    +0.152 HD
ATOM      4  O   UNL     1      29.106  45.459  25.805  0.00  0.00    -0.226 OA
ENDROOT
BRANCH   2   5
ATOM      5  C   UNL     1      26.993  48.485  25.824  0.00  0.00    +0.152 C 
BRANCH   5   6
ATOM      6  C   UNL     1      27.820  49.787  25.867  0.00  0.00    +0.193 C 
ATOM      7  O   UNL     1      27.033  50.754  26.596  0.00  0.00    -0.219 OA
BRANCH   6   8
ATOM      8  C   UNL     1      29.173  49.750  26.612  0.00  0.00    +0.212 C 
ATOM      9  O   UNL     1      30.244  50.113  25.725  0.00  0.00    -0.218 OA
BRANCH   8  10
ATOM     10  C   UNL     1      29.218  50.698  27.870  0.00  0.00    +0.171 C 
ATOM     11  O   UNL     1      30.261  51.665  27.791  0.00  0.00    -0.343 OA
ATOM     12  C   UNL     1      30.681  52.461  28.859  0.00  0.00    +0.220 C 
ATOM     13  C   UNL     1      30.968  51.623  30.117  0.00  0.00    +0.076 C 
ATOM     14  C   UNL     1      29.721  50.768  30.398  0.00  0.00    +0.177 C 
ATOM     15  O   UNL     1      29.918  50.001  31.577  0.00  0.00    -0.221 OA
ATOM     16  C   UNL     1      29.409  49.854  29.172  0.00  0.00    +0.155 C 
BRANCH  16  17
ATOM     17  N   UNL     1      28.229  49.035  29.438  0.00  0.00    -0.202 NA
ATOM     18  C   UNL     1      28.069  47.690  29.352  0.00  0.00    +0.242 C 
ATOM     19  C   UNL     1      26.837  47.075  29.965  0.00  0.00    +0.096 C 
ATOM     20  O   UNL     1      28.922  47.011  28.784  0.00  0.00    -0.273 OA
ENDBRANCH  16  17
BRANCH  12  21
ATOM     21  C   UNL     1      29.674  53.695  29.180  0.00  0.00    +0.391 C 
ATOM     22  O   UNL     1      30.019  54.113  30.414  0.00  0.00    -0.243 OA
ATOM     23  O   UNL     1      29.104  54.021  28.014  0.00  0.00    -0.243 OA
ENDBRANCH  12  21
ENDBRANCH   8  10
ENDBRANCH   6   8
ENDBRANCH   5   6
ENDBRANCH   2   5
BRANCH   1  24
ATOM     24  O   UNL     1      29.314  46.997  24.179  0.00  0.00    -0.450 OA
BRANCH  24  25
ATOM     25  C   UNL     1      28.988  47.186  22.822  0.00  0.00    +0.240 C 
BRANCH  25  26
ATOM     26  C   UNL     1      30.056  47.832  21.918  0.00  0.00    +0.100 C 
BRANCH  26  28
ATOM     27  N   UNL     1      31.919  46.216  22.084  0.00  0.00    -0.134 NA
ATOM     28  C   UNL     1      31.405  47.452  22.373  0.00  0.00    +0.086 A 
ATOM     29  C   UNL     1      32.336  48.171  23.089  0.00  0.00    +0.133 A 
ATOM     30  N   UNL     1      33.398  47.325  23.184  0.00  0.00    -0.250 N 
ATOM     31  N   UNL     1      33.142  46.146  22.590  0.00  0.00    -0.065 NA
BRANCH  30  32
ATOM     32  C   UNL     1      34.697  47.569  23.776  0.00  0.00    +0.160 C 
BRANCH  32  33
ATOM     33  C   UNL     1      35.074  49.052  23.659  0.00  0.00    +0.107 C 
BRANCH  33  34
ATOM     34  N   UNL     1      35.903  49.422  22.485  0.00  0.00    -0.301 NA
BRANCH  34  35
ATOM     35  C   UNL     1      36.852  48.323  22.208  0.00  0.00    +0.081 C 
ATOM     36  C   UNL     1      38.317  48.660  22.469  0.00  0.00    +0.020 C 
ENDBRANCH  34  35
BRANCH  34  37
ATOM     37  C   UNL     1      36.555  50.736  22.620  0.00  0.00    +0.081 C 
ATOM     38  C   UNL     1      36.195  51.551  23.860  0.00  0.00    +0.020 C 
ENDBRANCH  34  37
ENDBRANCH  33  34
ENDBRANCH  32  33
ENDBRANCH  30  32
ENDBRANCH  26  28
ENDBRANCH  25  26
ENDBRANCH  24  25
ENDBRANCH   1  24
TORSDOF 15
