REMARK  Name = lig_assembled_13.pdb
REMARK  15 active torsions:
REMARK  status: ('A' for Active; 'I' for Inactive)
REMARK    1  A    between atoms: _2  and  _8
REMARK    2  A    between atoms: _4  and  _10
REMARK    3  A    between atoms: _5  and  _6
REMARK    4  A    between atoms: _5  and  _13
REMARK    5  A    between atoms: _8  and  _9
REMARK    6  A    between atoms: _9  and  _11
REMARK    7  A    between atoms: _10  and  _11
REMARK    8  A    between atoms: _13  and  _15
REMARK    9  A    between atoms: _14  and  _19
REMARK   10  A    between atoms: _15  and  _18
REMARK   11  A    between atoms: _23  and  _33
REMARK   12  A    between atoms: _25  and  _26
REMARK   13  A    between atoms: _27  and  _29
REMARK   14  A    between atoms: _29  and  _31
REMARK   15  A    between atoms: _31  and  _33
REMARK                            x       y       z     vdW  Elec       q    Type
REMARK                         _______ _______ _______ _____ _____    ______ ____
ROOT
ATOM      1  C   UNL     1      29.721  33.625  16.951  0.00  0.00    +0.152 C 
ENDROOT
BRANCH   1   3
ATOM      2  C   UNL     1      28.600  36.080  17.347  0.00  0.00    +0.400 C 
ATOM      3  N   UNL     1      29.474  35.020  17.304  0.00  0.00    -0.278 N 
ATOM      4  H   UNL     1      30.365  35.417  17.741  0.00  0.00    +0.152 HD
ATOM      5  O   UNL     1      28.930  37.079  17.982  0.00  0.00    -0.226 OA
BRANCH   2   6
ATOM      6  O   UNL     1      27.505  35.931  16.676  0.00  0.00    -0.450 OA
BRANCH   6   7
ATOM      7  C   UNL     1      27.018  36.130  15.369  0.00  0.00    +0.240 C 
BRANCH   7   8
ATOM      8  C   UNL     1      28.055  36.262  14.237  0.00  0.00    +0.100 C 
BRANCH   8  10
ATOM      9  N   UNL     1      27.692  34.366  12.689  0.00  0.00    -0.134 NA
ATOM     10  C   UNL     1      27.525  35.691  12.986  0.00  0.00    +0.086 A 
ATOM     11  C   UNL     1      26.838  36.298  11.963  0.00  0.00    +0.134 A 
ATOM     12  N   UNL     1      26.673  35.305  11.042  0.00  0.00    -0.241 N 
ATOM     13  N   UNL     1      27.146  34.135  11.502  0.00  0.00    -0.065 NA
BRANCH  12  14
ATOM     14  C   UNL     1      25.997  35.368   9.766  0.00  0.00    +0.265 C 
BRANCH  14  15
ATOM     15  C   UNL     1      26.958  35.575   8.630  0.00  0.00    +0.329 C 
ATOM     16  O   UNL     1      28.132  35.238   8.599  0.00  0.00    -0.249 OA
BRANCH  15  17
ATOM     17  O   UNL     1      26.338  36.306   7.654  0.00  0.00    -0.464 OA
BRANCH  17  18
ATOM     18  C   UNL     1      27.119  37.387   7.121  0.00  0.00    +0.229 C 
ATOM     19  C   UNL     1      26.602  38.678   7.734  0.00  0.00    +0.048 C 
ENDBRANCH  17  18
ENDBRANCH  15  17
ENDBRANCH  14  15
ENDBRANCH  12  14
ENDBRANCH   8  10
ENDBRANCH   7   8
ENDBRANCH   6   7
ENDBRANCH   2   6
ENDBRANCH   1   3
BRANCH   1  20
ATOM     20  C   UNL     1      28.644  32.612  17.390  0.00  0.00    +0.193 C 
ATOM     21  O   UNL     1      27.639  32.598  16.353  0.00  0.00    -0.219 OA
BRANCH  20  22
ATOM     22  C   UNL     1      29.069  31.134  17.534  0.00  0.00    +0.212 C 
ATOM     23  O   UNL     1      30.465  30.981  17.231  0.00  0.00    -0.218 OA
BRANCH  22  24
ATOM     24  C   UNL     1      28.798  30.543  18.971  0.00  0.00    +0.171 C 
ATOM     25  O   UNL     1      27.543  29.878  19.062  0.00  0.00    -0.343 OA
ATOM     26  C   UNL     1      26.947  29.480  20.261  0.00  0.00    +0.220 C 
ATOM     27  C   UNL     1      26.898  30.629  21.283  0.00  0.00    +0.076 C 
ATOM     28  C   UNL     1      28.325  31.186  21.422  0.00  0.00    +0.177 C 
ATOM     29  O   UNL     1      28.343  32.228  22.387  0.00  0.00    -0.221 OA
ATOM     30  C   UNL     1      28.844  31.685  20.038  0.00  0.00    +0.155 C 
BRANCH  30  31
ATOM     31  N   UNL     1      30.197  32.221  20.168  0.00  0.00    -0.202 NA
ATOM     32  C   UNL     1      30.607  33.487  20.435  0.00  0.00    +0.242 C 
ATOM     33  C   UNL     1      32.050  33.708  20.806  0.00  0.00    +0.096 C 
ATOM     34  O   UNL     1      29.801  34.413  20.370  0.00  0.00    -0.273 OA
ENDBRANCH  30  31
BRANCH  26  35
ATOM     35  C   UNL     1      27.610  28.141  20.900  0.00  0.00    +0.391 C 
ATOM     36  O   UNL     1      27.215  28.139  22.188  0.00  0.00    -0.243 OA
ATOM     37  O   UNL     1      28.031  27.406  19.864  0.00  0.00    -0.243 OA
ENDBRANCH  26  35
ENDBRANCH  22  24
ENDBRANCH  20  22
ENDBRANCH   1  20
TORSDOF 14
