REMARK  Name = lig_assembled_57.pdb
REMARK  12 active torsions:
REMARK  status: ('A' for Active; 'I' for Inactive)
REMARK    1  A    between atoms: _2  and  _9
REMARK    2  A    between atoms: _3  and  _12
REMARK    3  A    between atoms: _6  and  _7
REMARK    4  A    between atoms: _6  and  _14
REMARK    5  A    between atoms: _14  and  _16
REMARK    6  A    between atoms: _15  and  _20
REMARK    7  A    between atoms: _16  and  _19
REMARK    8  A    between atoms: _24  and  _34
REMARK    9  A    between atoms: _26  and  _27
REMARK   10  A    between atoms: _28  and  _30
REMARK   11  A    between atoms: _30  and  _32
REMARK   12  A    between atoms: _32  and  _34
REMARK                            x       y       z     vdW  Elec       q    Type
REMARK                         _______ _______ _______ _____ _____    ______ ____
ROOT
ATOM      1  C   UNL     1      26.576  35.244  22.130  0.00  0.00    +0.400 C 
ATOM      2  N   UNL     1      26.902  33.914  22.250  0.00  0.00    -0.278 N 
ATOM      3  H   UNL     1      27.697  33.790  21.546  0.00  0.00    +0.152 HD
ATOM      4  O   UNL     1      27.313  35.963  21.460  0.00  0.00    -0.226 OA
ENDROOT
BRANCH   1   5
ATOM      5  O   UNL     1      25.486  35.609  22.721  0.00  0.00    -0.450 OA
BRANCH   5   6
ATOM      6  C   UNL     1      24.670  36.750  22.849  0.00  0.00    +0.240 C 
BRANCH   6   7
ATOM      7  C   UNL     1      24.266  37.178  24.273  0.00  0.00    +0.100 C 
BRANCH   7   9
ATOM      8  N   UNL     1      22.984  35.206  25.026  0.00  0.00    -0.134 NA
ATOM      9  C   UNL     1      23.004  36.522  24.656  0.00  0.00    +0.086 A 
ATOM     10  C   UNL     1      21.726  37.033  24.742  0.00  0.00    +0.134 A 
ATOM     11  N   UNL     1      20.989  36.007  25.254  0.00  0.00    -0.248 N 
ATOM     12  N   UNL     1      21.741  34.891  25.353  0.00  0.00    -0.065 NA
BRANCH  11  13
ATOM     13  C   UNL     1      19.616  35.965  25.742  0.00  0.00    +0.111 C 
ATOM     14  C   UNL     1      19.556  35.337  27.143  0.00  0.00    +0.042 C 
ATOM     15  C   UNL     1      20.080  36.316  28.191  0.00  0.00    +0.086 C 
ATOM     16  N   UNL     1      19.330  37.576  28.224  0.00  0.00    -0.305 NA
ATOM     17  C   UNL     1      19.263  38.224  26.914  0.00  0.00    +0.086 C 
ATOM     18  C   UNL     1      18.020  37.425  28.850  0.00  0.00    +0.104 C 
ATOM     19  C   UNL     1      18.858  37.302  25.754  0.00  0.00    +0.042 C 
ENDBRANCH  11  13
ENDBRANCH   7   9
ENDBRANCH   6   7
ENDBRANCH   5   6
ENDBRANCH   1   5
BRANCH   2  20
ATOM     20  C   UNL     1      26.665  32.628  22.901  0.00  0.00    +0.152 C 
BRANCH  20  21
ATOM     21  C   UNL     1      27.876  31.677  22.989  0.00  0.00    +0.193 C 
ATOM     22  O   UNL     1      28.369  31.757  24.345  0.00  0.00    -0.219 OA
BRANCH  21  23
ATOM     23  C   UNL     1      27.621  30.171  22.760  0.00  0.00    +0.212 C 
ATOM     24  O   UNL     1      26.297  29.960  22.243  0.00  0.00    -0.218 OA
BRANCH  23  25
ATOM     25  C   UNL     1      28.658  29.504  21.778  0.00  0.00    +0.171 C 
ATOM     26  O   UNL     1      29.884  29.171  22.420  0.00  0.00    -0.343 OA
ATOM     27  C   UNL     1      31.050  28.799  21.747  0.00  0.00    +0.220 C 
ATOM     28  C   UNL     1      31.408  29.796  20.631  0.00  0.00    +0.076 C 
ATOM     29  C   UNL     1      30.167  29.953  19.737  0.00  0.00    +0.177 C 
ATOM     30  O   UNL     1      30.456  30.837  18.662  0.00  0.00    -0.221 OA
ATOM     31  C   UNL     1      28.958  30.464  20.581  0.00  0.00    +0.155 C 
BRANCH  31  32
ATOM     32  N   UNL     1      27.778  30.622  19.733  0.00  0.00    -0.202 NA
ATOM     33  C   UNL     1      27.258  31.742  19.170  0.00  0.00    +0.242 C 
ATOM     34  C   UNL     1      26.207  31.583  18.101  0.00  0.00    +0.096 C 
ATOM     35  O   UNL     1      27.652  32.847  19.538  0.00  0.00    -0.273 OA
ENDBRANCH  31  32
BRANCH  27  36
ATOM     36  C   UNL     1      31.020  27.271  21.196  0.00  0.00    +0.391 C 
ATOM     37  O   UNL     1      32.072  27.182  20.360  0.00  0.00    -0.243 OA
ATOM     38  O   UNL     1      30.170  26.609  21.990  0.00  0.00    -0.243 OA
ENDBRANCH  27  36
ENDBRANCH  23  25
ENDBRANCH  21  23
ENDBRANCH  20  21
ENDBRANCH   2  20
TORSDOF 11
