REMARK  Name = lig_assembled_46.pdb
REMARK  12 active torsions:
REMARK  status: ('A' for Active; 'I' for Inactive)
REMARK    1  A    between atoms: _2  and  _8
REMARK    2  A    between atoms: _5  and  _6
REMARK    3  A    between atoms: _5  and  _14
REMARK    4  A    between atoms: _8  and  _9
REMARK    5  A    between atoms: _14  and  _16
REMARK    6  A    between atoms: _15  and  _20
REMARK    7  A    between atoms: _16  and  _19
REMARK    8  A    between atoms: _24  and  _34
REMARK    9  A    between atoms: _26  and  _27
REMARK   10  A    between atoms: _28  and  _30
REMARK   11  A    between atoms: _30  and  _32
REMARK   12  A    between atoms: _32  and  _34
REMARK                            x       y       z     vdW  Elec       q    Type
REMARK                         _______ _______ _______ _____ _____    ______ ____
ROOT
ATOM      1  C   UNL     1      29.020  36.220  18.385  0.00  0.00    +0.400 C 
ATOM      2  N   UNL     1      30.257  35.716  18.710  0.00  0.00    -0.278 N 
ATOM      3  H   UNL     1      30.913  36.208  18.025  0.00  0.00    +0.152 HD
ATOM      4  O   UNL     1      28.967  37.164  17.600  0.00  0.00    -0.226 OA
ENDROOT
BRANCH   2   5
ATOM      5  C   UNL     1      31.059  34.841  19.561  0.00  0.00    +0.152 C 
BRANCH   5   6
ATOM      6  C   UNL     1      31.053  35.166  21.068  0.00  0.00    +0.193 C 
ATOM      7  O   UNL     1      30.100  34.271  21.682  0.00  0.00    -0.219 OA
BRANCH   6   8
ATOM      8  C   UNL     1      32.362  34.935  21.855  0.00  0.00    +0.212 C 
ATOM      9  O   UNL     1      33.471  34.790  20.954  0.00  0.00    -0.218 OA
BRANCH   8  10
ATOM     10  C   UNL     1      32.690  36.092  22.875  0.00  0.00    +0.171 C 
ATOM     11  O   UNL     1      32.004  35.941  24.114  0.00  0.00    -0.343 OA
ATOM     12  C   UNL     1      31.919  36.933  25.093  0.00  0.00    +0.220 C 
ATOM     13  C   UNL     1      31.453  38.277  24.506  0.00  0.00    +0.076 C 
ATOM     14  C   UNL     1      32.379  38.611  23.325  0.00  0.00    +0.177 C 
ATOM     15  O   UNL     1      32.016  39.867  22.769  0.00  0.00    -0.221 OA
ATOM     16  C   UNL     1      32.315  37.477  22.254  0.00  0.00    +0.155 C 
BRANCH  16  17
ATOM     17  N   UNL     1      33.188  37.795  21.127  0.00  0.00    -0.202 NA
ATOM     18  C   UNL     1      32.881  38.308  19.909  0.00  0.00    +0.242 C 
ATOM     19  C   UNL     1      34.004  38.813  19.041  0.00  0.00    +0.096 C 
ATOM     20  O   UNL     1      31.707  38.350  19.546  0.00  0.00    -0.273 OA
ENDBRANCH  16  17
BRANCH  12  21
ATOM     21  C   UNL     1      33.281  37.102  25.963  0.00  0.00    +0.391 C 
ATOM     22  O   UNL     1      33.156  38.295  26.576  0.00  0.00    -0.243 OA
ATOM     23  O   UNL     1      33.858  35.894  25.985  0.00  0.00    -0.243 OA
ENDBRANCH  12  21
ENDBRANCH   8  10
ENDBRANCH   6   8
ENDBRANCH   5   6
ENDBRANCH   2   5
BRANCH   1  24
ATOM     24  O   UNL     1      28.011  35.620  18.925  0.00  0.00    -0.450 OA
BRANCH  24  25
ATOM     25  C   UNL     1      26.989  34.718  18.570  0.00  0.00    +0.240 C 
BRANCH  25  26
ATOM     26  C   UNL     1      27.020  34.134  17.145  0.00  0.00    +0.100 C 
BRANCH  26  28
ATOM     27  N   UNL     1      25.983  31.972  17.761  0.00  0.00    -0.134 NA
ATOM     28  C   UNL     1      25.977  33.103  16.989  0.00  0.00    +0.086 A 
ATOM     29  C   UNL     1      24.874  33.077  16.163  0.00  0.00    +0.134 A 
ATOM     30  N   UNL     1      24.219  31.934  16.520  0.00  0.00    -0.247 N 
ATOM     31  N   UNL     1      24.898  31.266  17.473  0.00  0.00    -0.065 NA
BRANCH  30  32
ATOM     32  C   UNL     1      22.856  31.555  16.190  0.00  0.00    +0.180 C 
BRANCH  32  33
ATOM     33  C   UNL     1      22.705  30.971  14.807  0.00  0.00    -0.026 A 
ATOM     34  C   UNL     1      23.688  30.127  14.268  0.00  0.00    +0.005 A 
ATOM     35  C   UNL     1      23.495  29.515  13.027  0.00  0.00    +0.000 A 
ATOM     36  C   UNL     1      22.318  29.737  12.313  0.00  0.00    +0.000 A 
ATOM     37  C   UNL     1      21.338  30.579  12.833  0.00  0.00    +0.000 A 
ATOM     38  C   UNL     1      21.529  31.193  14.074  0.00  0.00    +0.005 A 
ENDBRANCH  32  33
ENDBRANCH  30  32
ENDBRANCH  26  28
ENDBRANCH  25  26
ENDBRANCH  24  25
ENDBRANCH   1  24
TORSDOF 12
