REMARK  Name = lig_assembled_31.pdb
REMARK  15 active torsions:
REMARK  status: ('A' for Active; 'I' for Inactive)
REMARK    1  A    between atoms: _2  and  _10
REMARK    2  A    between atoms: _3  and  _11
REMARK    3  A    between atoms: _4  and  _13
REMARK    4  A    between atoms: _7  and  _8
REMARK    5  A    between atoms: _7  and  _19
REMARK    6  A    between atoms: _10  and  _11
REMARK    7  A    between atoms: _13  and  _14
REMARK    8  A    between atoms: _19  and  _21
REMARK    9  A    between atoms: _20  and  _25
REMARK   10  A    between atoms: _21  and  _24
REMARK   11  A    between atoms: _29  and  _39
REMARK   12  A    between atoms: _31  and  _32
REMARK   13  A    between atoms: _33  and  _35
REMARK   14  A    between atoms: _35  and  _37
REMARK   15  A    between atoms: _37  and  _39
REMARK                            x       y       z     vdW  Elec       q    Type
REMARK                         _______ _______ _______ _____ _____    ______ ____
ROOT
ATOM      1  C   UNL     1      29.208  37.706  20.945  0.00  0.00    +0.400 C 
ATOM      2  N   UNL     1      29.685  36.559  20.356  0.00  0.00    -0.278 N 
ATOM      3  H   UNL     1      30.039  35.984  21.184  0.00  0.00    +0.152 HD
ATOM      4  O   UNL     1      29.124  37.737  22.170  0.00  0.00    -0.226 OA
ENDROOT
BRANCH   2   5
ATOM      5  C   UNL     1      29.906  35.786  19.137  0.00  0.00    +0.152 C 
BRANCH   5   6
ATOM      6  C   UNL     1      30.713  34.481  19.296  0.00  0.00    +0.193 C 
ATOM      7  O   UNL     1      31.700  34.726  20.322  0.00  0.00    -0.219 OA
BRANCH   6   8
ATOM      8  C   UNL     1      29.955  33.226  19.783  0.00  0.00    +0.212 C 
ATOM      9  O   UNL     1      28.730  33.601  20.434  0.00  0.00    -0.218 OA
BRANCH   8  10
ATOM     10  C   UNL     1      29.620  32.211  18.624  0.00  0.00    +0.171 C 
ATOM     11  O   UNL     1      28.750  32.768  17.643  0.00  0.00    -0.343 OA
ATOM     12  C   UNL     1      28.104  32.026  16.651  0.00  0.00    +0.220 C 
ATOM     13  C   UNL     1      27.366  30.810  17.238  0.00  0.00    +0.076 C 
ATOM     14  C   UNL     1      28.378  30.018  18.082  0.00  0.00    +0.177 C 
ATOM     15  O   UNL     1      27.756  28.858  18.617  0.00  0.00    -0.221 OA
ATOM     16  C   UNL     1      28.959  30.922  19.214  0.00  0.00    +0.155 C 
BRANCH  16  17
ATOM     17  N   UNL     1      29.915  30.172  20.023  0.00  0.00    -0.202 NA
ATOM     18  C   UNL     1      29.809  29.724  21.300  0.00  0.00    +0.242 C 
ATOM     19  C   UNL     1      30.821  28.723  21.793  0.00  0.00    +0.096 C 
ATOM     20  O   UNL     1      28.900  30.140  22.015  0.00  0.00    -0.273 OA
ENDBRANCH  16  17
BRANCH  12  21
ATOM     21  C   UNL     1      29.079  31.598  15.425  0.00  0.00    +0.391 C 
ATOM     22  O   UNL     1      30.129  32.438  15.506  0.00  0.00    -0.243 OA
ATOM     23  O   UNL     1      28.635  30.410  14.996  0.00  0.00    -0.243 OA
ENDBRANCH  12  21
ENDBRANCH   8  10
ENDBRANCH   6   8
ENDBRANCH   5   6
ENDBRANCH   2   5
BRANCH   1  24
ATOM     24  O   UNL     1      28.918  38.672  20.136  0.00  0.00    -0.450 OA
BRANCH  24  25
ATOM     25  C   UNL     1      28.739  40.069  20.161  0.00  0.00    +0.240 C 
BRANCH  25  26
ATOM     26  C   UNL     1      27.374  40.618  19.705  0.00  0.00    +0.100 C 
BRANCH  26  28
ATOM     27  N   UNL     1      25.732  39.087  18.662  0.00  0.00    -0.134 NA
ATOM     28  C   UNL     1      26.866  39.845  18.554  0.00  0.00    +0.086 A 
ATOM     29  C   UNL     1      27.362  39.732  17.274  0.00  0.00    +0.133 A 
ATOM     30  N   UNL     1      26.490  38.883  16.659  0.00  0.00    -0.250 N 
ATOM     31  N   UNL     1      25.508  38.502  17.492  0.00  0.00    -0.065 NA
BRANCH  30  32
ATOM     32  C   UNL     1      26.528  38.393  15.297  0.00  0.00    +0.164 C 
BRANCH  32  33
ATOM     33  C   UNL     1      27.906  37.855  14.940  0.00  0.00    +0.129 C 
BRANCH  33  34
ATOM     34  N   UNL     1      28.280  38.022  13.542  0.00  0.00    -0.298 N 
ATOM     35  H   UNL     1      28.689  37.259  13.021  0.00  0.00    +0.150 HD
ATOM     36  C   UNL     1      28.477  39.294  13.070  0.00  0.00    +0.300 C 
ATOM     37  O   UNL     1      28.256  40.296  13.748  0.00  0.00    -0.253 OA
ATOM     38  N   UNL     1      28.912  39.355  11.782  0.00  0.00    -0.292 N 
ATOM     39  H   UNL     1      29.134  38.532  11.242  0.00  0.00    +0.151 HD
BRANCH  38  40
ATOM     40  C   UNL     1      29.144  40.652  11.192  0.00  0.00    +0.180 C 
BRANCH  40  41
ATOM     41  C   UNL     1      30.420  40.736  10.438  0.00  0.00    +0.122 A 
ATOM     42  O   UNL     1      30.936  39.601   9.879  0.00  0.00    -0.466 OA
ATOM     43  C   UNL     1      32.092  39.961   9.255  0.00  0.00    +0.195 A 
ATOM     44  C   UNL     1      32.328  41.307   9.407  0.00  0.00    +0.041 A 
ATOM     45  C   UNL     1      31.249  41.809  10.171  0.00  0.00    +0.046 A 
ENDBRANCH  40  41
ENDBRANCH  38  40
ENDBRANCH  33  34
ENDBRANCH  32  33
ENDBRANCH  30  32
ENDBRANCH  26  28
ENDBRANCH  25  26
ENDBRANCH  24  25
ENDBRANCH   1  24
TORSDOF 15
