REMARK  Name = lig_assembled_76.pdb
REMARK  16 active torsions:
REMARK  status: ('A' for Active; 'I' for Inactive)
REMARK    1  A    between atoms: _2  and  _8
REMARK    2  A    between atoms: _5  and  _6
REMARK    3  A    between atoms: _5  and  _18
REMARK    4  A    between atoms: _8  and  _9
REMARK    5  A    between atoms: _9  and  _10
REMARK    6  A    between atoms: _9  and  _17
REMARK    7  A    between atoms: _10  and  _11
REMARK    8  A    between atoms: _11  and  _12
REMARK    9  A    between atoms: _18  and  _20
REMARK   10  A    between atoms: _19  and  _24
REMARK   11  A    between atoms: _20  and  _23
REMARK   12  A    between atoms: _28  and  _38
REMARK   13  A    between atoms: _30  and  _31
REMARK   14  A    between atoms: _32  and  _34
REMARK   15  A    between atoms: _34  and  _36
REMARK   16  A    between atoms: _36  and  _38
REMARK                            x       y       z     vdW  Elec       q    Type
REMARK                         _______ _______ _______ _____ _____    ______ ____
ROOT
ATOM      1  C   UNL     1      29.844  18.667  29.638  0.00  0.00    +0.400 C 
ATOM      2  N   UNL     1      28.862  17.736  29.396  0.00  0.00    -0.278 N 
ATOM      3  H   UNL     1      28.166  18.265  28.780  0.00  0.00    +0.152 HD
ATOM      4  O   UNL     1      29.811  19.721  29.008  0.00  0.00    -0.226 OA
ENDROOT
BRANCH   1   5
ATOM      5  O   UNL     1      30.706  18.348  30.546  0.00  0.00    -0.450 OA
BRANCH   5   6
ATOM      6  C   UNL     1      32.098  18.186  30.688  0.00  0.00    +0.240 C 
BRANCH   6   7
ATOM      7  C   UNL     1      32.917  19.420  31.115  0.00  0.00    +0.100 C 
BRANCH   7   9
ATOM      8  N   UNL     1      33.063  20.295  28.800  0.00  0.00    -0.134 NA
ATOM      9  C   UNL     1      32.773  20.499  30.124  0.00  0.00    +0.086 A 
ATOM     10  C   UNL     1      32.374  21.805  30.303  0.00  0.00    +0.133 A 
ATOM     11  N   UNL     1      32.438  22.338  29.052  0.00  0.00    -0.249 N 
ATOM     12  N   UNL     1      32.861  21.436  28.151  0.00  0.00    -0.065 NA
BRANCH  11  13
ATOM     13  C   UNL     1      32.242  23.718  28.668  0.00  0.00    +0.176 C 
BRANCH  13  14
ATOM     14  C   UNL     1      31.385  23.871  27.408  0.00  0.00    +0.136 C 
BRANCH  14  15
ATOM     15  O   UNL     1      30.558  25.039  27.511  0.00  0.00    -0.390 OA
ATOM     16  H   UNL     1      31.124  25.830  27.515  0.00  0.00    +0.210 HD
ENDBRANCH  14  15
BRANCH  14  17
ATOM     17  C   UNL     1      32.234  24.020  26.135  0.00  0.00    +0.038 C 
BRANCH  17  18
ATOM     18  C   UNL     1      33.139  25.252  26.148  0.00  0.00    +0.038 C 
BRANCH  18  19
ATOM     19  C   UNL     1      33.095  26.002  24.842  0.00  0.00    -0.047 A 
ATOM     20  C   UNL     1      34.093  25.805  23.879  0.00  0.00    +0.003 A 
ATOM     21  C   UNL     1      34.045  26.485  22.661  0.00  0.00    +0.000 A 
ATOM     22  C   UNL     1      33.003  27.372  22.400  0.00  0.00    +0.000 A 
ATOM     23  C   UNL     1      32.011  27.583  23.356  0.00  0.00    +0.000 A 
ATOM     24  C   UNL     1      32.058  26.905  24.575  0.00  0.00    +0.003 A 
ENDBRANCH  18  19
ENDBRANCH  17  18
ENDBRANCH  14  17
ENDBRANCH  13  14
ENDBRANCH  11  13
ENDBRANCH   7   9
ENDBRANCH   6   7
ENDBRANCH   5   6
ENDBRANCH   1   5
BRANCH   2  25
ATOM     25  C   UNL     1      28.361  16.377  29.586  0.00  0.00    +0.152 C 
BRANCH  25  26
ATOM     26  C   UNL     1      26.829  16.206  29.549  0.00  0.00    +0.193 C 
ATOM     27  O   UNL     1      26.259  17.483  29.912  0.00  0.00    -0.219 OA
BRANCH  26  28
ATOM     28  C   UNL     1      26.180  15.867  28.189  0.00  0.00    +0.212 C 
ATOM     29  O   UNL     1      27.010  16.325  27.109  0.00  0.00    -0.218 OA
BRANCH  28  30
ATOM     30  C   UNL     1      25.904  14.327  27.994  0.00  0.00    +0.171 C 
ATOM     31  O   UNL     1      25.253  13.742  29.117  0.00  0.00    -0.343 OA
ATOM     32  C   UNL     1      25.109  12.367  29.316  0.00  0.00    +0.220 C 
ATOM     33  C   UNL     1      26.449  11.625  29.163  0.00  0.00    +0.076 C 
ATOM     34  C   UNL     1      27.045  12.024  27.803  0.00  0.00    +0.177 C 
ATOM     35  O   UNL     1      28.268  11.333  27.593  0.00  0.00    -0.221 OA
ATOM     36  C   UNL     1      27.247  13.569  27.737  0.00  0.00    +0.155 C 
BRANCH  36  37
ATOM     37  N   UNL     1      27.820  13.951  26.448  0.00  0.00    -0.202 NA
ATOM     38  C   UNL     1      28.955  14.643  26.174  0.00  0.00    +0.242 C 
ATOM     39  C   UNL     1      29.468  14.644  24.758  0.00  0.00    +0.096 C 
ATOM     40  O   UNL     1      29.533  15.245  27.078  0.00  0.00    -0.273 OA
ENDBRANCH  36  37
BRANCH  32  41
ATOM     41  C   UNL     1      23.948  11.698  28.398  0.00  0.00    +0.391 C 
ATOM     42  O   UNL     1      24.556  10.684  27.752  0.00  0.00    -0.243 OA
ATOM     43  O   UNL     1      22.789  12.196  28.846  0.00  0.00    -0.243 OA
ENDBRANCH  32  41
ENDBRANCH  28  30
ENDBRANCH  26  28
ENDBRANCH  25  26
ENDBRANCH   2  25
TORSDOF 16
