REMARK  Name = lig_assembled_24.pdb
REMARK  14 active torsions:
REMARK  status: ('A' for Active; 'I' for Inactive)
REMARK    1  A    between atoms: _2  and  _8
REMARK    2  A    between atoms: _5  and  _6
REMARK    3  A    between atoms: _5  and  _16
REMARK    4  A    between atoms: _8  and  _9
REMARK    5  A    between atoms: _12  and  _15
REMARK    6  A    between atoms: _13  and  _15
REMARK    7  A    between atoms: _16  and  _18
REMARK    8  A    between atoms: _17  and  _22
REMARK    9  A    between atoms: _18  and  _21
REMARK   10  A    between atoms: _26  and  _36
REMARK   11  A    between atoms: _28  and  _29
REMARK   12  A    between atoms: _30  and  _32
REMARK   13  A    between atoms: _32  and  _34
REMARK   14  A    between atoms: _34  and  _36
REMARK                            x       y       z     vdW  Elec       q    Type
REMARK                         _______ _______ _______ _____ _____    ______ ____
ROOT
ATOM      1  C   UNL     1       7.860  33.482  20.274  0.00  0.00    +0.400 C 
ATOM      2  N   UNL     1       8.001  32.507  21.234  0.00  0.00    -0.278 N 
ATOM      3  H   UNL     1       7.145  32.649  21.858  0.00  0.00    +0.152 HD
ATOM      4  O   UNL     1       6.803  34.106  20.234  0.00  0.00    -0.226 OA
ENDROOT
BRANCH   1   5
ATOM      5  O   UNL     1       8.887  33.670  19.512  0.00  0.00    -0.450 OA
BRANCH   5   6
ATOM      6  C   UNL     1       9.635  32.981  18.538  0.00  0.00    +0.240 C 
BRANCH   6   7
ATOM      7  C   UNL     1      11.055  32.524  18.923  0.00  0.00    +0.100 C 
BRANCH   7   9
ATOM      8  N   UNL     1      10.430  30.448  17.728  0.00  0.00    -0.134 NA
ATOM      9  C   UNL     1      11.404  31.279  18.214  0.00  0.00    +0.086 A 
ATOM     10  C   UNL     1      12.639  30.755  17.905  0.00  0.00    +0.134 A 
ATOM     11  N   UNL     1      12.355  29.642  17.169  0.00  0.00    -0.247 N 
ATOM     12  N   UNL     1      11.022  29.444  17.099  0.00  0.00    -0.065 NA
BRANCH  11  13
ATOM     13  C   UNL     1      13.229  28.731  16.448  0.00  0.00    +0.180 C 
BRANCH  13  14
ATOM     14  C   UNL     1      14.285  29.403  15.604  0.00  0.00    -0.026 A 
ATOM     15  C   UNL     1      13.931  30.084  14.431  0.00  0.00    +0.009 A 
ATOM     16  C   UNL     1      14.913  30.705  13.656  0.00  0.00    +0.046 A 
ATOM     17  C   UNL     1      16.253  30.673  14.045  0.00  0.00    +0.120 A 
ATOM     18  C   UNL     1      16.615  29.977  15.196  0.00  0.00    +0.046 A 
ATOM     19  C   UNL     1      15.637  29.346  15.973  0.00  0.00    +0.009 A 
BRANCH  17  20
ATOM     20  O   UNL     1      17.125  31.298  13.197  0.00  0.00    -0.495 OA
ATOM     21  C   UNL     1      18.328  31.770  13.796  0.00  0.00    +0.277 C 
ENDBRANCH  17  20
ENDBRANCH  13  14
ENDBRANCH  11  13
ENDBRANCH   7   9
ENDBRANCH   6   7
ENDBRANCH   5   6
ENDBRANCH   1   5
BRANCH   2  22
ATOM     22  C   UNL     1       8.769  31.382  21.761  0.00  0.00    +0.152 C 
BRANCH  22  23
ATOM     23  C   UNL     1       9.989  31.742  22.633  0.00  0.00    +0.193 C 
ATOM     24  O   UNL     1       9.639  32.938  23.364  0.00  0.00    -0.219 OA
BRANCH  23  25
ATOM     25  C   UNL     1      10.411  30.733  23.724  0.00  0.00    +0.212 C 
ATOM     26  O   UNL     1       9.811  29.451  23.481  0.00  0.00    -0.218 OA
BRANCH  25  27
ATOM     27  C   UNL     1      11.972  30.547  23.833  0.00  0.00    +0.171 C 
ATOM     28  O   UNL     1      12.544  31.313  24.888  0.00  0.00    -0.343 OA
ATOM     29  C   UNL     1      13.914  31.526  25.055  0.00  0.00    +0.220 C 
ATOM     30  C   UNL     1      14.577  32.021  23.758  0.00  0.00    +0.076 C 
ATOM     31  C   UNL     1      14.207  31.031  22.642  0.00  0.00    +0.177 C 
ATOM     32  O   UNL     1      14.828  31.422  21.426  0.00  0.00    -0.221 OA
ATOM     33  C   UNL     1      12.656  30.952  22.486  0.00  0.00    +0.155 C 
BRANCH  33  34
ATOM     34  N   UNL     1      12.301  30.017  21.421  0.00  0.00    -0.202 NA
ATOM     35  C   UNL     1      12.506  28.678  21.338  0.00  0.00    +0.242 C 
ATOM     36  C   UNL     1      11.779  27.908  20.266  0.00  0.00    +0.096 C 
ATOM     37  O   UNL     1      13.270  28.130  22.130  0.00  0.00    -0.273 OA
ENDBRANCH  33  34
BRANCH  29  38
ATOM     38  C   UNL     1      14.697  30.243  25.673  0.00  0.00    +0.391 C 
ATOM     39  O   UNL     1      16.003  30.496  25.458  0.00  0.00    -0.243 OA
ATOM     40  O   UNL     1      13.799  29.584  26.415  0.00  0.00    -0.243 OA
ENDBRANCH  29  38
ENDBRANCH  25  27
ENDBRANCH  23  25
ENDBRANCH  22  23
ENDBRANCH   2  22
TORSDOF 13
