REMARK  Name = lig_assembled_0.pdb
REMARK  12 active torsions:
REMARK  status: ('A' for Active; 'I' for Inactive)
REMARK    1  A    between atoms: _2  and  _9
REMARK    2  A    between atoms: _6  and  _7
REMARK    3  A    between atoms: _6  and  _16
REMARK    4  A    between atoms: _10  and  _11
REMARK    5  A    between atoms: _16  and  _18
REMARK    6  A    between atoms: _17  and  _22
REMARK    7  A    between atoms: _18  and  _21
REMARK    8  A    between atoms: _26  and  _36
REMARK    9  A    between atoms: _28  and  _29
REMARK   10  A    between atoms: _30  and  _32
REMARK   11  A    between atoms: _32  and  _34
REMARK   12  A    between atoms: _34  and  _36
REMARK                            x       y       z     vdW  Elec       q    Type
REMARK                         _______ _______ _______ _____ _____    ______ ____
ROOT
ATOM      1  C   UNL     1      23.824  30.626  24.054  0.00  0.00    +0.400 C 
ATOM      2  N   UNL     1      24.552  29.906  23.137  0.00  0.00    -0.278 N 
ATOM      3  H   UNL     1      23.998  28.997  23.040  0.00  0.00    +0.152 HD
ATOM      4  O   UNL     1      22.719  30.200  24.380  0.00  0.00    -0.226 OA
ENDROOT
BRANCH   2   5
ATOM      5  C   UNL     1      25.707  29.834  22.246  0.00  0.00    +0.152 C 
BRANCH   5   6
ATOM      6  C   UNL     1      27.061  29.517  22.913  0.00  0.00    +0.193 C 
ATOM      7  O   UNL     1      26.796  29.322  24.320  0.00  0.00    -0.219 OA
BRANCH   6   8
ATOM      8  C   UNL     1      27.789  28.227  22.476  0.00  0.00    +0.212 C 
ATOM      9  O   UNL     1      27.059  27.569  21.428  0.00  0.00    -0.218 OA
BRANCH   8  10
ATOM     10  C   UNL     1      29.264  28.479  21.980  0.00  0.00    +0.171 C 
ATOM     11  O   UNL     1      30.146  28.833  23.041  0.00  0.00    -0.343 OA
ATOM     12  C   UNL     1      31.434  29.342  22.858  0.00  0.00    +0.220 C 
ATOM     13  C   UNL     1      31.445  30.528  21.878  0.00  0.00    +0.076 C 
ATOM     14  C   UNL     1      30.741  30.070  20.590  0.00  0.00    +0.177 C 
ATOM     15  O   UNL     1      30.759  31.119  19.632  0.00  0.00    -0.221 OA
ATOM     16  C   UNL     1      29.282  29.616  20.906  0.00  0.00    +0.155 C 
BRANCH  16  17
ATOM     17  N   UNL     1      28.608  29.186  19.684  0.00  0.00    -0.202 NA
ATOM     18  C   UNL     1      27.806  29.888  18.843  0.00  0.00    +0.242 C 
ATOM     19  C   UNL     1      27.481  29.289  17.499  0.00  0.00    +0.096 C 
ATOM     20  O   UNL     1      27.369  30.982  19.192  0.00  0.00    -0.273 OA
ENDBRANCH  16  17
BRANCH  12  21
ATOM     21  C   UNL     1      32.523  28.212  22.440  0.00  0.00    +0.391 C 
ATOM     22  O   UNL     1      31.842  27.050  22.457  0.00  0.00    -0.243 OA
ATOM     23  O   UNL     1      33.578  28.877  21.954  0.00  0.00    -0.243 OA
ENDBRANCH  12  21
ENDBRANCH   8  10
ENDBRANCH   6   8
ENDBRANCH   5   6
ENDBRANCH   2   5
BRANCH   1  24
ATOM     24  O   UNL     1      24.399  31.687  24.517  0.00  0.00    -0.450 OA
BRANCH  24  25
ATOM     25  C   UNL     1      24.277  33.088  24.441  0.00  0.00    +0.240 C 
BRANCH  25  26
ATOM     26  C   UNL     1      22.974  33.718  24.970  0.00  0.00    +0.100 C 
BRANCH  26  28
ATOM     27  N   UNL     1      21.114  34.841  23.802  0.00  0.00    -0.134 NA
ATOM     28  C   UNL     1      22.455  34.708  24.008  0.00  0.00    +0.086 A 
ATOM     29  C   UNL     1      23.125  35.619  23.223  0.00  0.00    +0.139 A 
ATOM     30  N   UNL     1      22.149  36.233  22.473  0.00  0.00    -0.219 N 
ATOM     31  N   UNL     1      20.933  35.801  22.909  0.00  0.00    -0.061 NA
BRANCH  30  32
ATOM     32  C   UNL     1      22.239  37.253  21.484  0.00  0.00    +0.079 A 
ATOM     33  C   UNL     1      22.537  37.030  20.124  0.00  0.00    +0.062 A 
ATOM     34  C   UNL     1      22.635  38.141  19.258  0.00  0.00    +0.015 A 
ATOM     35  C   UNL     1      22.457  39.444  19.725  0.00  0.00    +0.001 A 
ATOM     36  C   UNL     1      22.148  39.662  21.059  0.00  0.00    +0.002 A 
ATOM     37  C   UNL     1      22.029  38.578  21.928  0.00  0.00    +0.028 A 
BRANCH  33  38
ATOM     38  C   UNL     1      22.575  35.683  19.487  0.00  0.00    +0.244 C 
ATOM     39  O   UNL     1      21.560  35.054  19.230  0.00  0.00    -0.270 OA
ATOM     40  N   UNL     1      23.801  35.173  19.154  0.00  0.00    -0.325 N 
ATOM     41  H   UNL     1      23.814  34.281  18.675  0.00  0.00    +0.145 HD
ATOM     42  H   UNL     1      24.683  35.636  19.319  0.00  0.00    +0.145 HD
ENDBRANCH  33  38
ENDBRANCH  30  32
ENDBRANCH  26  28
ENDBRANCH  25  26
ENDBRANCH  24  25
ENDBRANCH   1  24
TORSDOF 12
