REMARK  Name = lig_assembled_48.pdb
REMARK  11 active torsions:
REMARK  status: ('A' for Active; 'I' for Inactive)
REMARK    1  A    between atoms: _2  and  _8
REMARK    2  A    between atoms: _5  and  _6
REMARK    3  A    between atoms: _5  and  _13
REMARK    4  A    between atoms: _13  and  _15
REMARK    5  A    between atoms: _14  and  _19
REMARK    6  A    between atoms: _15  and  _18
REMARK    7  A    between atoms: _23  and  _33
REMARK    8  A    between atoms: _25  and  _26
REMARK    9  A    between atoms: _27  and  _29
REMARK   10  A    between atoms: _29  and  _31
REMARK   11  A    between atoms: _31  and  _33
REMARK                            x       y       z     vdW  Elec       q    Type
REMARK                         _______ _______ _______ _____ _____    ______ ____
ROOT
ATOM      1  C   UNL     1      28.910  32.807  20.765  0.00  0.00    +0.152 C 
ENDROOT
BRANCH   1   3
ATOM      2  C   UNL     1      29.598  33.139  18.146  0.00  0.00    +0.400 C 
ATOM      3  N   UNL     1      29.321  33.355  19.475  0.00  0.00    -0.278 N 
ATOM      4  H   UNL     1      29.472  34.407  19.592  0.00  0.00    +0.152 HD
ATOM      5  O   UNL     1      29.750  34.118  17.420  0.00  0.00    -0.226 OA
BRANCH   2   6
ATOM      6  O   UNL     1      29.702  31.901  17.789  0.00  0.00    -0.450 OA
BRANCH   6   7
ATOM      7  C   UNL     1      30.060  31.142  16.658  0.00  0.00    +0.240 C 
BRANCH   7   8
ATOM      8  C   UNL     1      28.930  30.415  15.904  0.00  0.00    +0.100 C 
BRANCH   8  10
ATOM      9  N   UNL     1      27.942  32.478  14.970  0.00  0.00    -0.134 NA
ATOM     10  C   UNL     1      27.793  31.328  15.694  0.00  0.00    +0.086 A 
ATOM     11  C   UNL     1      26.482  31.224  16.107  0.00  0.00    +0.134 A 
ATOM     12  N   UNL     1      25.862  32.289  15.526  0.00  0.00    -0.248 N 
ATOM     13  N   UNL     1      26.763  33.080  14.905  0.00  0.00    -0.065 NA
BRANCH  12  14
ATOM     14  C   UNL     1      24.448  32.635  15.438  0.00  0.00    +0.109 C 
ATOM     15  C   UNL     1      24.079  33.103  14.018  0.00  0.00    +0.027 C 
ATOM     16  C   UNL     1      24.066  31.938  13.031  0.00  0.00    +0.002 C 
ATOM     17  C   UNL     1      23.057  30.878  13.455  0.00  0.00    +0.000 C 
ATOM     18  C   UNL     1      23.284  30.396  14.886  0.00  0.00    +0.002 C 
ATOM     19  C   UNL     1      23.460  31.541  15.891  0.00  0.00    +0.027 C 
ENDBRANCH  12  14
ENDBRANCH   8  10
ENDBRANCH   7   8
ENDBRANCH   6   7
ENDBRANCH   2   6
ENDBRANCH   1   3
BRANCH   1  20
ATOM     20  C   UNL     1      28.952  33.780  21.961  0.00  0.00    +0.193 C 
ATOM     21  O   UNL     1      27.592  34.206  22.199  0.00  0.00    -0.219 OA
BRANCH  20  22
ATOM     22  C   UNL     1      29.424  33.221  23.322  0.00  0.00    +0.212 C 
ATOM     23  O   UNL     1      29.275  31.793  23.356  0.00  0.00    -0.218 OA
BRANCH  22  24
ATOM     24  C   UNL     1      30.922  33.580  23.658  0.00  0.00    +0.171 C 
ATOM     25  O   UNL     1      31.124  34.979  23.831  0.00  0.00    -0.343 OA
ATOM     26  C   UNL     1      32.378  35.592  23.893  0.00  0.00    +0.220 C 
ATOM     27  C   UNL     1      33.279  35.170  22.720  0.00  0.00    +0.076 C 
ATOM     28  C   UNL     1      33.310  33.633  22.690  0.00  0.00    +0.177 C 
ATOM     29  O   UNL     1      34.163  33.188  21.645  0.00  0.00    -0.221 OA
ATOM     30  C   UNL     1      31.865  33.068  22.521  0.00  0.00    +0.155 C 
BRANCH  30  31
ATOM     31  N   UNL     1      31.892  31.608  22.486  0.00  0.00    -0.202 NA
ATOM     32  C   UNL     1      31.808  30.764  21.426  0.00  0.00    +0.242 C 
ATOM     33  C   UNL     1      32.158  29.314  21.638  0.00  0.00    +0.096 C 
ATOM     34  O   UNL     1      31.455  31.197  20.331  0.00  0.00    -0.273 OA
ENDBRANCH  30  31
BRANCH  26  35
ATOM     35  C   UNL     1      33.125  35.392  25.322  0.00  0.00    +0.391 C 
ATOM     36  O   UNL     1      34.412  35.717  25.089  0.00  0.00    -0.243 OA
ATOM     37  O   UNL     1      32.153  35.278  26.235  0.00  0.00    -0.243 OA
ENDBRANCH  26  35
ENDBRANCH  22  24
ENDBRANCH  20  22
ENDBRANCH   1  20
TORSDOF 11
