REMARK  Name = lig_assembled_68.pdb
REMARK  14 active torsions:
REMARK  status: ('A' for Active; 'I' for Inactive)
REMARK    1  A    between atoms: _2  and  _8
REMARK    2  A    between atoms: _5  and  _6
REMARK    3  A    between atoms: _5  and  _16
REMARK    4  A    between atoms: _8  and  _9
REMARK    5  A    between atoms: _9  and  _10
REMARK    6  A    between atoms: _9  and  _15
REMARK    7  A    between atoms: _16  and  _18
REMARK    8  A    between atoms: _17  and  _22
REMARK    9  A    between atoms: _18  and  _21
REMARK   10  A    between atoms: _26  and  _36
REMARK   11  A    between atoms: _28  and  _29
REMARK   12  A    between atoms: _30  and  _32
REMARK   13  A    between atoms: _32  and  _34
REMARK   14  A    between atoms: _34  and  _36
REMARK                            x       y       z     vdW  Elec       q    Type
REMARK                         _______ _______ _______ _____ _____    ______ ____
ROOT
ATOM      1  C   UNL     1      28.339  34.052  23.946  0.00  0.00    +0.400 C 
ATOM      2  N   UNL     1      27.793  32.892  24.442  0.00  0.00    -0.278 N 
ATOM      3  H   UNL     1      27.156  33.236  25.229  0.00  0.00    +0.152 HD
ATOM      4  O   UNL     1      27.882  35.122  24.339  0.00  0.00    -0.226 OA
ENDROOT
BRANCH   2   5
ATOM      5  C   UNL     1      27.683  31.437  24.369  0.00  0.00    +0.152 C 
BRANCH   5   6
ATOM      6  C   UNL     1      28.246  30.652  25.571  0.00  0.00    +0.193 C 
ATOM      7  O   UNL     1      27.477  31.054  26.726  0.00  0.00    -0.219 OA
BRANCH   6   8
ATOM      8  C   UNL     1      28.121  29.113  25.541  0.00  0.00    +0.212 C 
ATOM      9  O   UNL     1      26.967  28.717  24.782  0.00  0.00    -0.218 OA
BRANCH   8  10
ATOM     10  C   UNL     1      29.389  28.395  24.941  0.00  0.00    +0.171 C 
ATOM     11  O   UNL     1      29.305  28.222  23.530  0.00  0.00    -0.343 OA
ATOM     12  C   UNL     1      30.162  27.412  22.782  0.00  0.00    +0.220 C 
ATOM     13  C   UNL     1      30.278  25.999  23.380  0.00  0.00    +0.076 C 
ATOM     14  C   UNL     1      30.662  26.154  24.862  0.00  0.00    +0.177 C 
ATOM     15  O   UNL     1      30.821  24.873  25.454  0.00  0.00    -0.221 OA
ATOM     16  C   UNL     1      29.582  26.995  25.611  0.00  0.00    +0.155 C 
BRANCH  16  17
ATOM     17  N   UNL     1      29.939  27.138  27.020  0.00  0.00    -0.202 NA
ATOM     18  C   UNL     1      29.336  26.629  28.124  0.00  0.00    +0.242 C 
ATOM     19  C   UNL     1      30.078  26.685  29.435  0.00  0.00    +0.096 C 
ATOM     20  O   UNL     1      28.213  26.139  28.032  0.00  0.00    -0.273 OA
ENDBRANCH  16  17
BRANCH  12  21
ATOM     21  C   UNL     1      31.624  28.075  22.530  0.00  0.00    +0.391 C 
ATOM     22  O   UNL     1      32.387  27.068  22.064  0.00  0.00    -0.243 OA
ATOM     23  O   UNL     1      31.443  29.401  22.588  0.00  0.00    -0.243 OA
ENDBRANCH  12  21
ENDBRANCH   8  10
ENDBRANCH   6   8
ENDBRANCH   5   6
ENDBRANCH   2   5
BRANCH   1  24
ATOM     24  O   UNL     1      29.322  33.899  23.120  0.00  0.00    -0.450 OA
BRANCH  24  25
ATOM     25  C   UNL     1      30.730  33.919  23.119  0.00  0.00    +0.240 C 
BRANCH  25  26
ATOM     26  C   UNL     1      31.421  35.296  23.142  0.00  0.00    +0.100 C 
BRANCH  26  28
ATOM     27  N   UNL     1      33.863  35.567  23.478  0.00  0.00    -0.134 NA
ATOM     28  C   UNL     1      32.815  35.181  22.680  0.00  0.00    +0.086 A 
ATOM     29  C   UNL     1      33.310  34.722  21.482  0.00  0.00    +0.133 A 
ATOM     30  N   UNL     1      34.662  34.846  21.613  0.00  0.00    -0.249 N 
ATOM     31  N   UNL     1      34.991  35.364  22.809  0.00  0.00    -0.065 NA
BRANCH  30  32
ATOM     32  C   UNL     1      35.677  34.589  20.614  0.00  0.00    +0.181 C 
BRANCH  32  33
ATOM     33  C   UNL     1      35.923  35.806  19.712  0.00  0.00    +0.166 C 
BRANCH  33  34
ATOM     34  C   UNL     1      36.839  35.535  18.528  0.00  0.00    -0.017 A 
ATOM     35  C   UNL     1      37.941  34.679  18.705  0.00  0.00    +0.006 A 
ATOM     36  C   UNL     1      38.793  34.382  17.638  0.00  0.00    +0.000 A 
ATOM     37  C   UNL     1      38.554  34.928  16.381  0.00  0.00    +0.000 A 
ATOM     38  C   UNL     1      37.458  35.760  16.184  0.00  0.00    +0.000 A 
ATOM     39  C   UNL     1      36.603  36.059  17.249  0.00  0.00    +0.006 A 
ENDBRANCH  33  34
BRANCH  33  40
ATOM     40  O   UNL     1      36.510  36.855  20.493  0.00  0.00    -0.385 OA
ATOM     41  H   UNL     1      37.474  36.811  20.383  0.00  0.00    +0.210 HD
ENDBRANCH  33  40
ENDBRANCH  32  33
ENDBRANCH  30  32
ENDBRANCH  26  28
ENDBRANCH  25  26
ENDBRANCH  24  25
ENDBRANCH   1  24
TORSDOF 14
