REMARK  Name = lig_assembled_72.pdb
REMARK  15 active torsions:
REMARK  status: ('A' for Active; 'I' for Inactive)
REMARK    1  A    between atoms: _2  and  _8
REMARK    2  A    between atoms: _4  and  _8
REMARK    3  A    between atoms: _4  and  _11
REMARK    4  A    between atoms: _5  and  _6
REMARK    5  A    between atoms: _5  and  _12
REMARK    6  A    between atoms: _8  and  _9
REMARK    7  A    between atoms: _8  and  _10
REMARK    8  A    between atoms: _12  and  _14
REMARK    9  A    between atoms: _13  and  _18
REMARK   10  A    between atoms: _14  and  _17
REMARK   11  A    between atoms: _22  and  _32
REMARK   12  A    between atoms: _24  and  _25
REMARK   13  A    between atoms: _26  and  _28
REMARK   14  A    between atoms: _28  and  _30
REMARK   15  A    between atoms: _30  and  _32
REMARK                            x       y       z     vdW  Elec       q    Type
REMARK                         _______ _______ _______ _____ _____    ______ ____
ROOT
ATOM      1  C   UNL     1      30.202  34.208  17.853  0.00  0.00    +0.152 C 
ENDROOT
BRANCH   1   3
ATOM      2  C   UNL     1      29.499  35.873  19.898  0.00  0.00    +0.400 C 
ATOM      3  N   UNL     1      30.198  35.049  19.047  0.00  0.00    -0.278 N 
ATOM      4  H   UNL     1      31.174  35.017  19.482  0.00  0.00    +0.152 HD
ATOM      5  O   UNL     1      30.030  36.198  20.956  0.00  0.00    -0.226 OA
BRANCH   2   6
ATOM      6  O   UNL     1      28.338  36.257  19.477  0.00  0.00    -0.450 OA
BRANCH   6   7
ATOM      7  C   UNL     1      27.765  37.309  18.737  0.00  0.00    +0.240 C 
BRANCH   7   8
ATOM      8  C   UNL     1      28.552  37.836  17.522  0.00  0.00    +0.100 C 
BRANCH   8  10
ATOM      9  N   UNL     1      29.084  40.010  18.574  0.00  0.00    -0.134 NA
ATOM     10  C   UNL     1      29.511  38.874  17.943  0.00  0.00    +0.086 A 
ATOM     11  C   UNL     1      30.881  38.921  17.810  0.00  0.00    +0.134 A 
ATOM     12  N   UNL     1      31.234  40.113  18.381  0.00  0.00    -0.244 N 
ATOM     13  N   UNL     1      30.142  40.761  18.837  0.00  0.00    -0.065 NA
BRANCH  12  14
ATOM     14  C   UNL     1      32.579  40.688  18.528  0.00  0.00    +0.083 C 
ATOM     15  C   UNL     1      33.144  41.020  17.135  0.00  0.00    +0.038 C 
ATOM     16  C   UNL     1      33.503  39.671  19.227  0.00  0.00    +0.038 C 
BRANCH  14  17
ATOM     17  C   UNL     1      32.552  42.003  19.354  0.00  0.00    +0.185 C 
BRANCH  17  18
ATOM     18  O   UNL     1      32.272  41.781  20.736  0.00  0.00    -0.393 OA
ATOM     19  H   UNL     1      31.344  41.465  20.773  0.00  0.00    +0.209 HD
ENDBRANCH  17  18
ENDBRANCH  14  17
ENDBRANCH  12  14
ENDBRANCH   8  10
ENDBRANCH   7   8
ENDBRANCH   6   7
ENDBRANCH   2   6
ENDBRANCH   1   3
BRANCH   1  20
ATOM     20  C   UNL     1      28.885  33.469  17.539  0.00  0.00    +0.193 C 
ATOM     21  O   UNL     1      28.204  34.245  16.528  0.00  0.00    -0.219 OA
BRANCH  20  22
ATOM     22  C   UNL     1      28.988  32.052  16.932  0.00  0.00    +0.212 C 
ATOM     23  O   UNL     1      30.362  31.639  16.851  0.00  0.00    -0.218 OA
BRANCH  22  24
ATOM     24  C   UNL     1      28.182  30.966  17.742  0.00  0.00    +0.171 C 
ATOM     25  O   UNL     1      26.786  31.001  17.466  0.00  0.00    -0.343 OA
ATOM     26  C   UNL     1      25.817  30.326  18.213  0.00  0.00    +0.220 C 
ATOM     27  C   UNL     1      25.964  30.602  19.719  0.00  0.00    +0.076 C 
ATOM     28  C   UNL     1      27.418  30.287  20.108  0.00  0.00    +0.177 C 
ATOM     29  O   UNL     1      27.598  30.488  21.503  0.00  0.00    -0.221 OA
ATOM     30  C   UNL     1      28.400  31.169  19.277  0.00  0.00    +0.155 C 
BRANCH  30  31
ATOM     31  N   UNL     1      29.782  30.878  19.649  0.00  0.00    -0.202 NA
ATOM     32  C   UNL     1      30.601  31.520  20.520  0.00  0.00    +0.242 C 
ATOM     33  C   UNL     1      31.878  30.839  20.938  0.00  0.00    +0.096 C 
ATOM     34  O   UNL     1      30.285  32.630  20.945  0.00  0.00    -0.273 OA
ENDBRANCH  30  31
BRANCH  26  35
ATOM     35  C   UNL     1      25.755  28.733  17.901  0.00  0.00    +0.391 C 
ATOM     36  O   UNL     1      25.068  28.204  18.933  0.00  0.00    -0.243 OA
ATOM     37  O   UNL     1      26.130  28.591  16.624  0.00  0.00    -0.243 OA
ENDBRANCH  26  35
ENDBRANCH  22  24
ENDBRANCH  20  22
ENDBRANCH   1  20
TORSDOF 13
