REMARK  Name = lig_assembled_34.pdb
REMARK  14 active torsions:
REMARK  status: ('A' for Active; 'I' for Inactive)
REMARK    1  A    between atoms: _2  and  _8
REMARK    2  A    between atoms: _5  and  _6
REMARK    3  A    between atoms: _5  and  _32
REMARK    4  A    between atoms: _10  and  _11
REMARK    5  A    between atoms: _12  and  _13
REMARK    6  A    between atoms: _17  and  _30
REMARK    7  A    between atoms: _32  and  _34
REMARK    8  A    between atoms: _33  and  _38
REMARK    9  A    between atoms: _34  and  _37
REMARK   10  A    between atoms: _42  and  _52
REMARK   11  A    between atoms: _44  and  _45
REMARK   12  A    between atoms: _46  and  _48
REMARK   13  A    between atoms: _48  and  _50
REMARK   14  A    between atoms: _50  and  _52
REMARK                            x       y       z     vdW  Elec       q    Type
REMARK                         _______ _______ _______ _____ _____    ______ ____
ROOT
ATOM      1  N   UNL     1      26.689  38.774  18.434  0.00  0.00    -0.134 NA
ATOM      2  C   UNL     1      25.423  38.288  18.594  0.00  0.00    +0.086 A 
ATOM      3  C   UNL     1      24.939  37.894  17.371  0.00  0.00    +0.139 A 
ATOM      4  N   UNL     1      25.960  38.131  16.476  0.00  0.00    -0.220 N 
ATOM      5  N   UNL     1      27.005  38.690  17.143  0.00  0.00    -0.061 NA
ENDROOT
BRANCH   4   6
ATOM      6  C   UNL     1      25.998  37.821  15.091  0.00  0.00    +0.068 A 
ATOM      7  C   UNL     1      26.794  38.589  14.232  0.00  0.00    +0.038 A 
ATOM      8  C   UNL     1      26.782  38.421  12.826  0.00  0.00    +0.007 A 
ATOM      9  C   UNL     1      25.995  37.389  12.278  0.00  0.00    -0.008 A 
ATOM     10  C   UNL     1      25.230  36.585  13.158  0.00  0.00    +0.011 A 
ATOM     11  C   UNL     1      25.214  36.805  14.546  0.00  0.00    +0.028 A 
BRANCH   9  12
ATOM     12  C   UNL     1      25.838  37.123  10.810  0.00  0.00    +0.004 A 
ATOM     13  C   UNL     1      26.658  36.273  10.131  0.00  0.00    +0.026 A 
ATOM     14  C   UNL     1      27.797  35.594  10.763  0.00  0.00    +0.016 A 
ATOM     15  C   UNL     1      28.698  34.914  10.039  0.00  0.00    +0.051 A 
ATOM     16  C   UNL     1      28.552  34.795   8.569  0.00  0.00    +0.183 A 
ATOM     17  O   UNL     1      29.403  34.230   7.886  0.00  0.00    -0.288 OA
ATOM     18  C   UNL     1      27.309  35.313   7.965  0.00  0.00    +0.097 A 
ATOM     19  C   UNL     1      26.411  35.973   8.708  0.00  0.00    +0.140 A 
ATOM     20  O   UNL     1      25.199  36.316   8.126  0.00  0.00    -0.455 OA
ATOM     21  C   UNL     1      24.386  37.200   8.784  0.00  0.00    +0.140 A 
ATOM     22  C   UNL     1      23.223  37.584   8.114  0.00  0.00    +0.092 A 
ATOM     23  C   UNL     1      22.383  38.520   8.694  0.00  0.00    +0.120 A 
ATOM     24  C   UNL     1      22.731  39.134   9.893  0.00  0.00    +0.046 A 
ATOM     25  C   UNL     1      23.893  38.729  10.558  0.00  0.00    +0.016 A 
ATOM     26  C   UNL     1      24.704  37.709  10.040  0.00  0.00    +0.026 A 
BRANCH  23  27
ATOM     27  O   UNL     1      21.208  38.813   8.066  0.00  0.00    -0.507 OA
ATOM     28  H   UNL     1      20.666  39.331   8.683  0.00  0.00    +0.292 HD
ENDBRANCH  23  27
ENDBRANCH   9  12
BRANCH   8  29
ATOM     29  C   UNL     1      27.573  39.431  12.018  0.00  0.00    +0.072 C 
ATOM     30  O   UNL     1      26.959  40.501  11.705  0.00  0.00    -0.545 OA
ATOM     31  O   UNL     1      28.742  39.117  11.644  0.00  0.00    -0.545 OA
ENDBRANCH   8  29
ENDBRANCH   4   6
BRANCH   2  32
ATOM     32  C   UNL     1      24.758  38.229  19.910  0.00  0.00    +0.100 C 
BRANCH  32  33
ATOM     33  C   UNL     1      23.902  39.487  20.147  0.00  0.00    +0.240 C 
BRANCH  33  34
ATOM     34  O   UNL     1      22.567  39.459  19.696  0.00  0.00    -0.450 OA
BRANCH  34  35
ATOM     35  C   UNL     1      21.908  39.447  18.584  0.00  0.00    +0.400 C 
ATOM     36  N   UNL     1      21.248  38.276  18.296  0.00  0.00    -0.278 N 
ATOM     37  H   UNL     1      20.627  38.539  17.467  0.00  0.00    +0.152 HD
ATOM     38  O   UNL     1      21.799  40.382  17.796  0.00  0.00    -0.226 OA
BRANCH  36  39
ATOM     39  C   UNL     1      21.031  36.863  18.598  0.00  0.00    +0.152 C 
BRANCH  39  40
ATOM     40  C   UNL     1      21.481  35.860  17.516  0.00  0.00    +0.193 C 
ATOM     41  O   UNL     1      22.579  35.108  18.077  0.00  0.00    -0.219 OA
BRANCH  40  42
ATOM     42  C   UNL     1      20.465  34.785  17.071  0.00  0.00    +0.212 C 
ATOM     43  O   UNL     1      19.121  35.253  17.265  0.00  0.00    -0.218 OA
BRANCH  42  44
ATOM     44  C   UNL     1      20.635  34.350  15.565  0.00  0.00    +0.171 C 
ATOM     45  O   UNL     1      21.522  33.246  15.411  0.00  0.00    -0.343 OA
ATOM     46  C   UNL     1      22.038  32.816  14.186  0.00  0.00    +0.220 C 
ATOM     47  C   UNL     1      22.656  33.977  13.388  0.00  0.00    +0.076 C 
ATOM     48  C   UNL     1      21.595  35.086  13.289  0.00  0.00    +0.177 C 
ATOM     49  O   UNL     1      22.102  36.171  12.524  0.00  0.00    -0.221 OA
ATOM     50  C   UNL     1      21.168  35.550  14.717  0.00  0.00    +0.155 C 
BRANCH  50  51
ATOM     51  N   UNL     1      20.166  36.609  14.627  0.00  0.00    -0.202 NA
ATOM     52  C   UNL     1      20.317  37.956  14.702  0.00  0.00    +0.242 C 
ATOM     53  C   UNL     1      19.163  38.829  14.283  0.00  0.00    +0.096 C 
ATOM     54  O   UNL     1      21.379  38.427  15.103  0.00  0.00    -0.273 OA
ENDBRANCH  50  51
BRANCH  46  55
ATOM     55  C   UNL     1      20.971  31.978  13.293  0.00  0.00    +0.391 C 
ATOM     56  O   UNL     1      21.507  31.940  12.057  0.00  0.00    -0.243 OA
ATOM     57  O   UNL     1      20.136  31.396  14.163  0.00  0.00    -0.243 OA
ENDBRANCH  46  55
ENDBRANCH  42  44
ENDBRANCH  40  42
ENDBRANCH  39  40
ENDBRANCH  36  39
ENDBRANCH  34  35
ENDBRANCH  33  34
ENDBRANCH  32  33
ENDBRANCH   2  32
TORSDOF 14
