REMARK  Name = lig_assembled_12.pdb
REMARK  14 active torsions:
REMARK  status: ('A' for Active; 'I' for Inactive)
REMARK    1  A    between atoms: _2  and  _8
REMARK    2  A    between atoms: _5  and  _6
REMARK    3  A    between atoms: _5  and  _16
REMARK    4  A    between atoms: _8  and  _15
REMARK    5  A    between atoms: _9  and  _10
REMARK    6  A    between atoms: _9  and  _15
REMARK    7  A    between atoms: _16  and  _18
REMARK    8  A    between atoms: _17  and  _22
REMARK    9  A    between atoms: _18  and  _21
REMARK   10  A    between atoms: _26  and  _36
REMARK   11  A    between atoms: _28  and  _29
REMARK   12  A    between atoms: _30  and  _32
REMARK   13  A    between atoms: _32  and  _34
REMARK   14  A    between atoms: _34  and  _36
REMARK                            x       y       z     vdW  Elec       q    Type
REMARK                         _______ _______ _______ _____ _____    ______ ____
ROOT
ATOM      1  C   UNL     1      22.579  48.853  24.036  0.00  0.00    +0.400 C 
ATOM      2  N   UNL     1      22.961  48.333  22.821  0.00  0.00    -0.278 N 
ATOM      3  H   UNL     1      24.025  48.442  22.830  0.00  0.00    +0.152 HD
ATOM      4  O   UNL     1      23.456  49.119  24.854  0.00  0.00    -0.226 OA
ENDROOT
BRANCH   2   5
ATOM      5  C   UNL     1      22.577  47.702  21.562  0.00  0.00    +0.152 C 
BRANCH   5   6
ATOM      6  C   UNL     1      21.943  48.627  20.503  0.00  0.00    +0.193 C 
ATOM      7  O   UNL     1      21.772  49.918  21.129  0.00  0.00    -0.219 OA
BRANCH   6   8
ATOM      8  C   UNL     1      22.764  48.923  19.229  0.00  0.00    +0.212 C 
ATOM      9  O   UNL     1      22.090  49.893  18.411  0.00  0.00    -0.218 OA
BRANCH   8  10
ATOM     10  C   UNL     1      24.221  49.445  19.531  0.00  0.00    +0.171 C 
ATOM     11  O   UNL     1      24.224  50.666  20.264  0.00  0.00    -0.343 OA
ATOM     12  C   UNL     1      25.352  51.468  20.454  0.00  0.00    +0.220 C 
ATOM     13  C   UNL     1      26.073  51.762  19.127  0.00  0.00    +0.076 C 
ATOM     14  C   UNL     1      26.346  50.414  18.440  0.00  0.00    +0.177 C 
ATOM     15  O   UNL     1      27.048  50.627  17.224  0.00  0.00    -0.221 OA
ATOM     16  C   UNL     1      25.005  49.655  18.194  0.00  0.00    +0.155 C 
BRANCH  16  17
ATOM     17  N   UNL     1      25.259  48.376  17.535  0.00  0.00    -0.202 NA
ATOM     18  C   UNL     1      25.164  48.042  16.223  0.00  0.00    +0.242 C 
ATOM     19  C   UNL     1      25.767  46.738  15.772  0.00  0.00    +0.096 C 
ATOM     20  O   UNL     1      24.596  48.803  15.442  0.00  0.00    -0.273 OA
ENDBRANCH  16  17
BRANCH  12  21
ATOM     21  C   UNL     1      26.376  50.889  21.574  0.00  0.00    +0.391 C 
ATOM     22  O   UNL     1      25.704  49.888  22.176  0.00  0.00    -0.243 OA
ATOM     23  O   UNL     1      27.576  51.405  21.281  0.00  0.00    -0.243 OA
ENDBRANCH  12  21
ENDBRANCH   8  10
ENDBRANCH   6   8
ENDBRANCH   5   6
ENDBRANCH   2   5
BRANCH   1  24
ATOM     24  O   UNL     1      21.309  49.043  24.188  0.00  0.00    -0.450 OA
BRANCH  24  25
ATOM     25  C   UNL     1      20.355  50.066  24.024  0.00  0.00    +0.240 C 
BRANCH  25  26
ATOM     26  C   UNL     1      20.878  51.495  23.785  0.00  0.00    +0.100 C 
BRANCH  26  28
ATOM     27  N   UNL     1      19.449  52.290  25.648  0.00  0.00    -0.134 NA
ATOM     28  C   UNL     1      19.972  52.484  24.395  0.00  0.00    +0.086 A 
ATOM     29  C   UNL     1      19.508  53.678  23.895  0.00  0.00    +0.136 A 
ATOM     30  N   UNL     1      18.684  54.150  24.874  0.00  0.00    -0.226 N 
ATOM     31  N   UNL     1      18.669  53.324  25.938  0.00  0.00    -0.063 NA
BRANCH  30  32
ATOM     32  C   UNL     1      17.923  55.387  24.901  0.00  0.00    +0.305 C 
BRANCH  32  33
ATOM     33  O   UNL     1      16.586  55.104  25.309  0.00  0.00    -0.353 OA
BRANCH  33  34
ATOM     34  C   UNL     1      15.729  54.895  24.195  0.00  0.00    +0.197 C 
BRANCH  34  35
ATOM     35  C   UNL     1      15.002  53.598  24.421  0.00  0.00    -0.022 A 
ATOM     36  C   UNL     1      15.272  52.480  23.618  0.00  0.00    +0.006 A 
ATOM     37  C   UNL     1      14.568  51.289  23.802  0.00  0.00    +0.000 A 
ATOM     38  C   UNL     1      13.584  51.204  24.785  0.00  0.00    +0.000 A 
ATOM     39  C   UNL     1      13.299  52.311  25.582  0.00  0.00    +0.000 A 
ATOM     40  C   UNL     1      14.002  53.504  25.399  0.00  0.00    +0.006 A 
ENDBRANCH  34  35
ENDBRANCH  33  34
ENDBRANCH  32  33
ENDBRANCH  30  32
ENDBRANCH  26  28
ENDBRANCH  25  26
ENDBRANCH  24  25
ENDBRANCH   1  24
TORSDOF 14
