REMARK  Name = lig_assembled_83.pdb
REMARK  15 active torsions:
REMARK  status: ('A' for Active; 'I' for Inactive)
REMARK    1  A    between atoms: _2  and  _11
REMARK    2  A    between atoms: _3  and  _13
REMARK    3  A    between atoms: _8  and  _9
REMARK    4  A    between atoms: _8  and  _19
REMARK    5  A    between atoms: _11  and  _12
REMARK    6  A    between atoms: _12  and  _13
REMARK    7  A    between atoms: _12  and  _17
REMARK    8  A    between atoms: _19  and  _21
REMARK    9  A    between atoms: _20  and  _25
REMARK   10  A    between atoms: _21  and  _24
REMARK   11  A    between atoms: _29  and  _39
REMARK   12  A    between atoms: _31  and  _32
REMARK   13  A    between atoms: _33  and  _35
REMARK   14  A    between atoms: _35  and  _37
REMARK   15  A    between atoms: _37  and  _39
REMARK                            x       y       z     vdW  Elec       q    Type
REMARK                         _______ _______ _______ _____ _____    ______ ____
ROOT
ATOM      1  C   UNL     1      29.603  14.801  29.807  0.00  0.00    +0.400 C 
ATOM      2  N   UNL     1      28.810  14.877  30.927  0.00  0.00    -0.278 N 
ATOM      3  H   UNL     1      29.187  14.095  31.550  0.00  0.00    +0.152 HD
ATOM      4  O   UNL     1      30.586  14.065  29.841  0.00  0.00    -0.226 OA
ENDROOT
BRANCH   2   5
ATOM      5  C   UNL     1      27.719  15.541  31.637  0.00  0.00    +0.152 C 
BRANCH   5   6
ATOM      6  C   UNL     1      27.341  14.946  33.009  0.00  0.00    +0.193 C 
ATOM      7  O   UNL     1      26.696  16.002  33.755  0.00  0.00    -0.219 OA
BRANCH   6   8
ATOM      8  C   UNL     1      26.324  13.784  33.029  0.00  0.00    +0.212 C 
ATOM      9  O   UNL     1      25.467  13.887  34.178  0.00  0.00    -0.218 OA
BRANCH   8  10
ATOM     10  C   UNL     1      25.426  13.717  31.735  0.00  0.00    +0.171 C 
ATOM     11  O   UNL     1      26.173  13.395  30.567  0.00  0.00    -0.343 OA
ATOM     12  C   UNL     1      25.684  13.508  29.263  0.00  0.00    +0.220 C 
ATOM     13  C   UNL     1      25.059  14.890  29.005  0.00  0.00    +0.076 C 
ATOM     14  C   UNL     1      24.020  15.141  30.110  0.00  0.00    +0.177 C 
ATOM     15  O   UNL     1      23.382  16.392  29.896  0.00  0.00    -0.221 OA
ATOM     16  C   UNL     1      24.702  15.086  31.512  0.00  0.00    +0.155 C 
BRANCH  16  17
ATOM     17  N   UNL     1      23.719  15.331  32.564  0.00  0.00    -0.202 NA
ATOM     18  C   UNL     1      22.587  14.648  32.870  0.00  0.00    +0.242 C 
ATOM     19  C   UNL     1      21.911  14.936  34.185  0.00  0.00    +0.096 C 
ATOM     20  O   UNL     1      22.144  13.820  32.077  0.00  0.00    -0.273 OA
ENDBRANCH  16  17
BRANCH  12  21
ATOM     21  C   UNL     1      24.672  12.308  28.846  0.00  0.00    +0.391 C 
ATOM     22  O   UNL     1      24.117  12.709  27.686  0.00  0.00    -0.243 OA
ATOM     23  O   UNL     1      24.988  11.268  29.628  0.00  0.00    -0.243 OA
ENDBRANCH  12  21
ENDBRANCH   8  10
ENDBRANCH   6   8
ENDBRANCH   5   6
ENDBRANCH   2   5
BRANCH   1  24
ATOM     24  O   UNL     1      29.211  15.504  28.795  0.00  0.00    -0.450 OA
BRANCH  24  25
ATOM     25  C   UNL     1      28.663  15.315  27.511  0.00  0.00    +0.240 C 
BRANCH  25  26
ATOM     26  C   UNL     1      28.656  16.524  26.556  0.00  0.00    +0.100 C 
BRANCH  26  28
ATOM     27  N   UNL     1      26.781  17.787  27.584  0.00  0.00    -0.134 NA
ATOM     28  C   UNL     1      28.105  17.713  27.232  0.00  0.00    +0.086 A 
ATOM     29  C   UNL     1      28.735  18.875  27.614  0.00  0.00    +0.133 A 
ATOM     30  N   UNL     1      27.748  19.605  28.201  0.00  0.00    -0.249 N 
ATOM     31  N   UNL     1      26.573  18.958  28.174  0.00  0.00    -0.065 NA
BRANCH  30  32
ATOM     32  C   UNL     1      27.848  20.931  28.771  0.00  0.00    +0.178 C 
BRANCH  32  33
ATOM     33  C   UNL     1      29.290  21.445  28.778  0.00  0.00    +0.156 C 
BRANCH  33  34
ATOM     34  O   UNL     1      29.338  22.770  28.237  0.00  0.00    -0.388 OA
ATOM     35  H   UNL     1      28.864  23.386  28.832  0.00  0.00    +0.210 HD
ENDBRANCH  33  34
BRANCH  33  36
ATOM     36  C   UNL     1      29.862  21.430  30.204  0.00  0.00    +0.162 C 
BRANCH  36  37
ATOM     37  N   UNL     1      31.300  21.219  30.228  0.00  0.00    -0.269 N 
ATOM     38  C   UNL     1      31.919  20.146  29.628  0.00  0.00    +0.113 A 
ATOM     39  C   UNL     1      33.264  20.325  29.846  0.00  0.00    +0.137 A 
ATOM     40  N   UNL     1      33.490  21.454  30.585  0.00  0.00    -0.172 NA
ATOM     41  C   UNL     1      32.296  21.977  30.796  0.00  0.00    +0.450 A 
ATOM     42  N   UNL     1      32.106  23.202  31.539  0.00  0.00    +0.120 N 
ATOM     43  O   UNL     1      30.943  23.614  31.683  0.00  0.00    +0.045 OA
ATOM     44  O   UNL     1      33.113  23.756  31.993  0.00  0.00    -0.573 OA
ENDBRANCH  36  37
ENDBRANCH  33  36
ENDBRANCH  32  33
ENDBRANCH  30  32
ENDBRANCH  26  28
ENDBRANCH  25  26
ENDBRANCH  24  25
ENDBRANCH   1  24
TORSDOF 15
