REMARK  Name = lig_assembled_26.pdb
REMARK  15 active torsions:
REMARK  status: ('A' for Active; 'I' for Inactive)
REMARK    1  A    between atoms: _2  and  _8
REMARK    2  A    between atoms: _5  and  _6
REMARK    3  A    between atoms: _5  and  _18
REMARK    4  A    between atoms: _8  and  _9
REMARK    5  A    between atoms: _8  and  _10
REMARK    6  A    between atoms: _10  and  _11
REMARK    7  A    between atoms: _11  and  _12
REMARK    8  A    between atoms: _18  and  _20
REMARK    9  A    between atoms: _19  and  _24
REMARK   10  A    between atoms: _20  and  _23
REMARK   11  A    between atoms: _28  and  _38
REMARK   12  A    between atoms: _30  and  _31
REMARK   13  A    between atoms: _32  and  _34
REMARK   14  A    between atoms: _34  and  _36
REMARK   15  A    between atoms: _36  and  _38
REMARK                            x       y       z     vdW  Elec       q    Type
REMARK                         _______ _______ _______ _____ _____    ______ ____
ROOT
ATOM      1  C   UNL     1      28.975  40.125  22.402  0.00  0.00    +0.400 C 
ATOM      2  N   UNL     1      30.145  39.677  21.834  0.00  0.00    -0.278 N 
ATOM      3  H   UNL     1      29.923  39.662  20.789  0.00  0.00    +0.152 HD
ATOM      4  O   UNL     1      28.095  40.548  21.657  0.00  0.00    -0.226 OA
ENDROOT
BRANCH   2   5
ATOM      5  C   UNL     1      31.526  39.237  22.014  0.00  0.00    +0.152 C 
BRANCH   5   6
ATOM      6  C   UNL     1      32.207  38.616  20.777  0.00  0.00    +0.193 C 
ATOM      7  O   UNL     1      31.154  38.068  19.954  0.00  0.00    -0.219 OA
BRANCH   6   8
ATOM      8  C   UNL     1      32.979  39.565  19.834  0.00  0.00    +0.212 C 
ATOM      9  O   UNL     1      33.934  40.341  20.575  0.00  0.00    -0.218 OA
BRANCH   8  10
ATOM     10  C   UNL     1      33.734  38.812  18.672  0.00  0.00    +0.171 C 
ATOM     11  O   UNL     1      34.462  37.679  19.135  0.00  0.00    -0.343 OA
ATOM     12  C   UNL     1      35.404  36.983  18.375  0.00  0.00    +0.220 C 
ATOM     13  C   UNL     1      36.440  37.930  17.745  0.00  0.00    +0.076 C 
ATOM     14  C   UNL     1      35.668  39.018  16.981  0.00  0.00    +0.177 C 
ATOM     15  O   UNL     1      36.582  39.900  16.344  0.00  0.00    -0.221 OA
ATOM     16  C   UNL     1      34.722  39.789  17.953  0.00  0.00    +0.155 C 
BRANCH  16  17
ATOM     17  N   UNL     1      33.991  40.828  17.232  0.00  0.00    -0.202 NA
ATOM     18  C   UNL     1      34.207  42.168  17.188  0.00  0.00    +0.242 C 
ATOM     19  C   UNL     1      33.490  42.973  16.136  0.00  0.00    +0.096 C 
ATOM     20  O   UNL     1      34.973  42.687  17.997  0.00  0.00    -0.273 OA
ENDBRANCH  16  17
BRANCH  12  21
ATOM     21  C   UNL     1      34.741  36.000  17.265  0.00  0.00    +0.391 C 
ATOM     22  O   UNL     1      33.519  35.704  17.749  0.00  0.00    -0.243 OA
ATOM     23  O   UNL     1      35.513  36.098  16.176  0.00  0.00    -0.243 OA
ENDBRANCH  12  21
ENDBRANCH   8  10
ENDBRANCH   6   8
ENDBRANCH   5   6
ENDBRANCH   2   5
BRANCH   1  24
ATOM     24  O   UNL     1      28.904  40.027  23.689  0.00  0.00    -0.450 OA
BRANCH  24  25
ATOM     25  C   UNL     1      29.130  40.815  24.834  0.00  0.00    +0.240 C 
BRANCH  25  26
ATOM     26  C   UNL     1      28.029  41.815  25.238  0.00  0.00    +0.100 C 
BRANCH  26  28
ATOM     27  N   UNL     1      27.092  43.564  23.748  0.00  0.00    -0.134 NA
ATOM     28  C   UNL     1      28.151  43.056  24.454  0.00  0.00    +0.086 A 
ATOM     29  C   UNL     1      29.238  43.881  24.290  0.00  0.00    +0.134 A 
ATOM     30  N   UNL     1      28.794  44.860  23.453  0.00  0.00    -0.248 N 
ATOM     31  N   UNL     1      27.492  44.681  23.152  0.00  0.00    -0.065 NA
BRANCH  30  32
ATOM     32  C   UNL     1      29.491  46.032  22.947  0.00  0.00    +0.113 C 
ATOM     33  C   UNL     1      30.978  46.099  23.326  0.00  0.00    +0.033 C 
BRANCH  32  34
ATOM     34  C   UNL     1      29.277  46.247  21.438  0.00  0.00    +0.106 C 
BRANCH  34  35
ATOM     35  C   UNL     1      30.180  45.400  20.559  0.00  0.00    +0.165 C 
ATOM     36  O   UNL     1      30.085  44.175  20.508  0.00  0.00    -0.292 OA
BRANCH  35  37
ATOM     37  C   UNL     1      31.246  46.074  19.762  0.00  0.00    +0.017 A 
ATOM     38  C   UNL     1      31.161  47.418  19.376  0.00  0.00    +0.011 A 
ATOM     39  C   UNL     1      32.209  48.010  18.665  0.00  0.00    +0.001 A 
ATOM     40  C   UNL     1      33.339  47.264  18.331  0.00  0.00    +0.000 A 
ATOM     41  C   UNL     1      33.426  45.925  18.701  0.00  0.00    +0.001 A 
ATOM     42  C   UNL     1      32.384  45.331  19.413  0.00  0.00    +0.011 A 
ENDBRANCH  35  37
ENDBRANCH  34  35
ENDBRANCH  32  34
ENDBRANCH  30  32
ENDBRANCH  26  28
ENDBRANCH  25  26
ENDBRANCH  24  25
ENDBRANCH   1  24
TORSDOF 14
