REMARK  Name = lig_assembled_51.pdb
REMARK  11 active torsions:
REMARK  status: ('A' for Active; 'I' for Inactive)
REMARK    1  A    between atoms: _2  and  _8
REMARK    2  A    between atoms: _5  and  _6
REMARK    3  A    between atoms: _5  and  _17
REMARK    4  A    between atoms: _17  and  _19
REMARK    5  A    between atoms: _18  and  _23
REMARK    6  A    between atoms: _19  and  _22
REMARK    7  A    between atoms: _27  and  _37
REMARK    8  A    between atoms: _29  and  _30
REMARK    9  A    between atoms: _31  and  _33
REMARK   10  A    between atoms: _33  and  _35
REMARK   11  A    between atoms: _35  and  _37
REMARK                            x       y       z     vdW  Elec       q    Type
REMARK                         _______ _______ _______ _____ _____    ______ ____
ROOT
ATOM      1  C   UNL     1      28.485  34.560  23.139  0.00  0.00    +0.400 C 
ATOM      2  N   UNL     1      28.014  35.851  23.150  0.00  0.00    -0.278 N 
ATOM      3  H   UNL     1      28.587  36.317  23.924  0.00  0.00    +0.152 HD
ATOM      4  O   UNL     1      29.483  34.301  23.808  0.00  0.00    -0.226 OA
ENDROOT
BRANCH   1   5
ATOM      5  O   UNL     1      27.800  33.720  22.434  0.00  0.00    -0.450 OA
BRANCH   5   6
ATOM      6  C   UNL     1      26.577  33.024  22.493  0.00  0.00    +0.240 C 
BRANCH   6   7
ATOM      7  C   UNL     1      26.248  32.276  23.799  0.00  0.00    +0.100 C 
BRANCH   7   9
ATOM      8  N   UNL     1      28.003  31.480  25.352  0.00  0.00    -0.134 NA
ATOM      9  C   UNL     1      27.347  31.362  24.158  0.00  0.00    +0.086 A 
ATOM     10  C   UNL     1      27.888  30.314  23.451  0.00  0.00    +0.134 A 
ATOM     11  N   UNL     1      28.879  29.833  24.263  0.00  0.00    -0.245 N 
ATOM     12  N   UNL     1      28.938  30.541  25.407  0.00  0.00    -0.065 NA
BRANCH  11  13
ATOM     13  C   UNL     1      29.793  28.718  23.999  0.00  0.00    +0.066 C 
ATOM     14  C   UNL     1      28.992  27.464  23.557  0.00  0.00    +0.034 C 
ATOM     15  C   UNL     1      29.936  26.296  23.231  0.00  0.00    -0.008 C 
ATOM     16  C   UNL     1      30.890  26.717  22.101  0.00  0.00    +0.007 C 
ATOM     17  C   UNL     1      31.725  27.932  22.539  0.00  0.00    -0.008 C 
ATOM     18  C   UNL     1      32.533  27.566  23.793  0.00  0.00    +0.007 C 
ATOM     19  C   UNL     1      31.584  27.153  24.928  0.00  0.00    -0.008 C 
ATOM     20  C   UNL     1      30.755  25.939  24.480  0.00  0.00    +0.007 C 
ATOM     21  C   UNL     1      30.782  29.103  22.866  0.00  0.00    +0.034 C 
ATOM     22  C   UNL     1      30.637  28.323  25.248  0.00  0.00    +0.034 C 
ENDBRANCH  11  13
ENDBRANCH   7   9
ENDBRANCH   6   7
ENDBRANCH   5   6
ENDBRANCH   1   5
BRANCH   2  23
ATOM     23  C   UNL     1      27.114  36.853  22.584  0.00  0.00    +0.152 C 
BRANCH  23  24
ATOM     24  C   UNL     1      27.780  38.128  22.028  0.00  0.00    +0.193 C 
ATOM     25  O   UNL     1      27.933  37.931  20.606  0.00  0.00    -0.219 OA
BRANCH  24  26
ATOM     26  C   UNL     1      26.998  39.455  22.151  0.00  0.00    +0.212 C 
ATOM     27  O   UNL     1      25.910  39.312  23.079  0.00  0.00    -0.218 OA
BRANCH  26  28
ATOM     28  C   UNL     1      27.894  40.668  22.608  0.00  0.00    +0.171 C 
ATOM     29  O   UNL     1      28.526  41.325  21.514  0.00  0.00    -0.343 OA
ATOM     30  C   UNL     1      29.552  42.264  21.644  0.00  0.00    +0.220 C 
ATOM     31  C   UNL     1      30.686  41.747  22.547  0.00  0.00    +0.076 C 
ATOM     32  C   UNL     1      30.053  41.293  23.872  0.00  0.00    +0.177 C 
ATOM     33  O   UNL     1      31.065  40.841  24.761  0.00  0.00    -0.221 OA
ATOM     34  C   UNL     1      28.993  40.178  23.607  0.00  0.00    +0.155 C 
BRANCH  34  35
ATOM     35  N   UNL     1      28.394  39.738  24.864  0.00  0.00    -0.202 NA
ATOM     36  C   UNL     1      28.640  38.625  25.600  0.00  0.00    +0.242 C 
ATOM     37  C   UNL     1      28.096  38.561  27.004  0.00  0.00    +0.096 C 
ATOM     38  O   UNL     1      29.293  37.706  25.112  0.00  0.00    -0.273 OA
ENDBRANCH  34  35
BRANCH  30  39
ATOM     39  C   UNL     1      29.033  43.729  22.117  0.00  0.00    +0.391 C 
ATOM     40  O   UNL     1      30.139  44.366  22.550  0.00  0.00    -0.243 OA
ATOM     41  O   UNL     1      27.794  43.857  21.629  0.00  0.00    -0.243 OA
ENDBRANCH  30  39
ENDBRANCH  26  28
ENDBRANCH  24  26
ENDBRANCH  23  24
ENDBRANCH   2  23
TORSDOF 11
