REMARK  Name = lig_assembled_89.pdb
REMARK  14 active torsions:
REMARK  status: ('A' for Active; 'I' for Inactive)
REMARK    1  A    between atoms: _2  and  _11
REMARK    2  A    between atoms: _5  and  _19
REMARK    3  A    between atoms: _8  and  _9
REMARK    4  A    between atoms: _8  and  _24
REMARK    5  A    between atoms: _19  and  _20
REMARK    6  A    between atoms: _19  and  _21
REMARK    7  A    between atoms: _24  and  _26
REMARK    8  A    between atoms: _25  and  _30
REMARK    9  A    between atoms: _26  and  _29
REMARK   10  A    between atoms: _34  and  _44
REMARK   11  A    between atoms: _36  and  _37
REMARK   12  A    between atoms: _38  and  _40
REMARK   13  A    between atoms: _40  and  _42
REMARK   14  A    between atoms: _42  and  _44
REMARK                            x       y       z     vdW  Elec       q    Type
REMARK                         _______ _______ _______ _____ _____    ______ ____
ROOT
ATOM      1  C   UNL     1      27.918  36.575  17.846  0.00  0.00    +0.240 C 
ENDROOT
BRANCH   1   2
ATOM      2  C   UNL     1      28.925  36.683  16.684  0.00  0.00    +0.100 C 
BRANCH   2   4
ATOM      3  N   UNL     1      28.349  35.656  14.518  0.00  0.00    -0.134 NA
ATOM      4  C   UNL     1      28.214  36.691  15.395  0.00  0.00    +0.087 A 
ATOM      5  C   UNL     1      27.346  37.616  14.865  0.00  0.00    +0.141 A 
ATOM      6  N   UNL     1      26.946  37.085  13.653  0.00  0.00    -0.200 N 
ATOM      7  N   UNL     1      27.573  35.900  13.471  0.00  0.00    -0.059 NA
BRANCH   6   8
ATOM      8  C   UNL     1      25.963  37.643  12.784  0.00  0.00    +0.186 A 
ATOM      9  C   UNL     1      26.069  38.022  11.461  0.00  0.00    +0.158 A 
ATOM     10  C   UNL     1      27.171  38.121  10.556  0.00  0.00    +0.280 A 
ATOM     11  O   UNL     1      28.331  38.191  10.939  0.00  0.00    -0.265 OA
ATOM     12  N   UNL     1      26.825  38.167   9.190  0.00  0.00    -0.302 N 
ATOM     13  C   UNL     1      25.490  38.555   8.791  0.00  0.00    +0.069 A 
ATOM     14  C   UNL     1      25.160  38.886   7.469  0.00  0.00    +0.028 A 
ATOM     15  C   UNL     1      23.868  39.309   7.127  0.00  0.00    +0.002 A 
ATOM     16  C   UNL     1      22.875  39.398   8.096  0.00  0.00    +0.002 A 
ATOM     17  C   UNL     1      23.164  39.065   9.416  0.00  0.00    +0.028 A 
ATOM     18  C   UNL     1      24.463  38.658   9.755  0.00  0.00    +0.072 A 
ATOM     19  N   UNL     1      24.790  38.322  11.079  0.00  0.00    -0.291 N 
ATOM     20  C   UNL     1      23.994  38.223  12.192  0.00  0.00    +0.207 A 
ATOM     21  N   UNL     1      24.669  37.803  13.241  0.00  0.00    -0.216 NA
BRANCH  12  22
ATOM     22  C   UNL     1      27.911  38.010   8.193  0.00  0.00    +0.085 C 
ATOM     23  C   UNL     1      28.787  36.764   8.422  0.00  0.00    +0.030 C 
ATOM     24  C   UNL     1      28.779  39.265   8.099  0.00  0.00    +0.030 C 
ENDBRANCH  12  22
ENDBRANCH   6   8
ENDBRANCH   2   4
ENDBRANCH   1   2
BRANCH   1  25
ATOM     25  O   UNL     1      27.207  35.366  17.979  0.00  0.00    -0.450 OA
BRANCH  25  26
ATOM     26  C   UNL     1      27.421  34.092  17.924  0.00  0.00    +0.400 C 
ATOM     27  N   UNL     1      27.967  33.531  19.054  0.00  0.00    -0.278 N 
ATOM     28  H   UNL     1      27.876  32.481  18.877  0.00  0.00    +0.152 HD
ATOM     29  O   UNL     1      27.154  33.352  16.980  0.00  0.00    -0.226 OA
BRANCH  27  30
ATOM     30  C   UNL     1      28.615  33.721  20.349  0.00  0.00    +0.152 C 
BRANCH  30  31
ATOM     31  C   UNL     1      29.643  32.647  20.760  0.00  0.00    +0.193 C 
ATOM     32  O   UNL     1      29.741  32.695  22.200  0.00  0.00    -0.219 OA
BRANCH  31  33
ATOM     33  C   UNL     1      29.301  31.174  20.446  0.00  0.00    +0.212 C 
ATOM     34  O   UNL     1      29.357  30.936  19.030  0.00  0.00    -0.218 OA
BRANCH  33  35
ATOM     35  C   UNL     1      30.253  30.145  21.168  0.00  0.00    +0.171 C 
ATOM     36  O   UNL     1      31.611  30.276  20.761  0.00  0.00    -0.343 OA
ATOM     37  C   UNL     1      32.614  29.348  21.051  0.00  0.00    +0.220 C 
ATOM     38  C   UNL     1      32.191  27.916  20.679  0.00  0.00    +0.076 C 
ATOM     39  C   UNL     1      30.839  27.642  21.358  0.00  0.00    +0.177 C 
ATOM     40  O   UNL     1      30.421  26.313  21.078  0.00  0.00    -0.221 OA
ATOM     41  C   UNL     1      29.778  28.682  20.883  0.00  0.00    +0.155 C 
BRANCH  41  42
ATOM     42  N   UNL     1      28.490  28.421  21.520  0.00  0.00    -0.202 NA
ATOM     43  C   UNL     1      27.406  27.756  21.045  0.00  0.00    +0.242 C 
ATOM     44  C   UNL     1      26.319  27.375  22.016  0.00  0.00    +0.096 C 
ATOM     45  O   UNL     1      27.338  27.481  19.849  0.00  0.00    -0.273 OA
ENDBRANCH  41  42
BRANCH  37  46
ATOM     46  C   UNL     1      33.151  29.433  22.582  0.00  0.00    +0.391 C 
ATOM     47  O   UNL     1      33.954  28.362  22.729  0.00  0.00    -0.243 OA
ATOM     48  O   UNL     1      32.846  30.663  23.013  0.00  0.00    -0.243 OA
ENDBRANCH  37  46
ENDBRANCH  33  35
ENDBRANCH  31  33
ENDBRANCH  30  31
ENDBRANCH  27  30
ENDBRANCH  25  26
ENDBRANCH   1  25
TORSDOF 12
