REMARK  Name = lig_assembled_23.pdb
REMARK  13 active torsions:
REMARK  status: ('A' for Active; 'I' for Inactive)
REMARK    1  A    between atoms: _2  and  _9
REMARK    2  A    between atoms: _3  and  _44
REMARK    3  A    between atoms: _6  and  _7
REMARK    4  A    between atoms: _6  and  _16
REMARK    5  A    between atoms: _11  and  _44
REMARK    6  A    between atoms: _16  and  _18
REMARK    7  A    between atoms: _17  and  _22
REMARK    8  A    between atoms: _18  and  _21
REMARK    9  A    between atoms: _26  and  _36
REMARK   10  A    between atoms: _28  and  _29
REMARK   11  A    between atoms: _30  and  _32
REMARK   12  A    between atoms: _32  and  _34
REMARK   13  A    between atoms: _34  and  _36
REMARK                            x       y       z     vdW  Elec       q    Type
REMARK                         _______ _______ _______ _____ _____    ______ ____
ROOT
ATOM      1  C   UNL     1      28.348  40.650  22.904  0.00  0.00    +0.400 C 
ATOM      2  N   UNL     1      29.461  40.394  23.669  0.00  0.00    -0.278 N 
ATOM      3  H   UNL     1      30.209  40.153  22.944  0.00  0.00    +0.152 HD
ATOM      4  O   UNL     1      28.488  40.728  21.686  0.00  0.00    -0.226 OA
ENDROOT
BRANCH   2   5
ATOM      5  C   UNL     1      30.069  40.319  24.995  0.00  0.00    +0.152 C 
BRANCH   5   6
ATOM      6  C   UNL     1      31.545  39.873  25.041  0.00  0.00    +0.193 C 
ATOM      7  O   UNL     1      31.821  39.219  23.783  0.00  0.00    -0.219 OA
BRANCH   6   8
ATOM      8  C   UNL     1      32.622  40.975  25.147  0.00  0.00    +0.212 C 
ATOM      9  O   UNL     1      32.167  42.042  25.995  0.00  0.00    -0.218 OA
BRANCH   8  10
ATOM     10  C   UNL     1      34.003  40.449  25.697  0.00  0.00    +0.171 C 
ATOM     11  O   UNL     1      33.865  39.709  26.905  0.00  0.00    -0.343 OA
ATOM     12  C   UNL     1      34.930  39.339  27.729  0.00  0.00    +0.220 C 
ATOM     13  C   UNL     1      35.836  40.538  28.062  0.00  0.00    +0.076 C 
ATOM     14  C   UNL     1      36.244  41.193  26.731  0.00  0.00    +0.177 C 
ATOM     15  O   UNL     1      37.117  42.285  26.980  0.00  0.00    -0.221 OA
ATOM     16  C   UNL     1      34.975  41.648  25.946  0.00  0.00    +0.155 C 
BRANCH  16  17
ATOM     17  N   UNL     1      35.357  42.277  24.685  0.00  0.00    -0.202 NA
ATOM     18  C   UNL     1      35.181  43.556  24.264  0.00  0.00    +0.242 C 
ATOM     19  C   UNL     1      35.932  44.017  23.042  0.00  0.00    +0.096 C 
ATOM     20  O   UNL     1      34.424  44.300  24.883  0.00  0.00    -0.273 OA
ENDBRANCH  16  17
BRANCH  12  21
ATOM     21  C   UNL     1      35.787  38.084  27.155  0.00  0.00    +0.391 C 
ATOM     22  O   UNL     1      35.067  37.617  26.117  0.00  0.00    -0.243 OA
ATOM     23  O   UNL     1      36.998  38.174  27.720  0.00  0.00    -0.243 OA
ENDBRANCH  12  21
ENDBRANCH   8  10
ENDBRANCH   6   8
ENDBRANCH   5   6
ENDBRANCH   2   5
BRANCH   1  24
ATOM     24  O   UNL     1      27.235  40.755  23.552  0.00  0.00    -0.450 OA
BRANCH  24  25
ATOM     25  C   UNL     1      26.180  41.673  23.722  0.00  0.00    +0.240 C 
BRANCH  25  26
ATOM     26  C   UNL     1      25.584  41.818  25.135  0.00  0.00    +0.100 C 
BRANCH  26  28
ATOM     27  N   UNL     1      26.835  40.818  27.018  0.00  0.00    -0.134 NA
ATOM     28  C   UNL     1      26.660  41.849  26.142  0.00  0.00    +0.086 A 
ATOM     29  C   UNL     1      27.610  42.815  26.388  0.00  0.00    +0.139 A 
ATOM     30  N   UNL     1      28.360  42.318  27.430  0.00  0.00    -0.220 N 
ATOM     31  N   UNL     1      27.866  41.111  27.799  0.00  0.00    -0.061 NA
BRANCH  30  32
ATOM     32  C   UNL     1      29.474  42.902  28.085  0.00  0.00    +0.069 A 
ATOM     33  C   UNL     1      30.205  42.144  29.010  0.00  0.00    +0.056 A 
ATOM     34  C   UNL     1      31.283  42.730  29.684  0.00  0.00    +0.107 A 
ATOM     35  C   UNL     1      31.658  44.049  29.430  0.00  0.00    +0.028 A 
ATOM     36  C   UNL     1      30.939  44.797  28.498  0.00  0.00    +0.004 A 
ATOM     37  C   UNL     1      29.848  44.230  27.830  0.00  0.00    +0.028 A 
BRANCH  34  38
ATOM     38  S   UNL     1      32.157  41.777  30.890  0.00  0.00    +0.056 S 
ATOM     39  O   UNL     1      32.775  40.650  30.234  0.00  0.00    -0.153 OA
ATOM     40  O   UNL     1      32.886  42.667  31.763  0.00  0.00    -0.153 OA
BRANCH  38  41
ATOM     41  N   UNL     1      30.906  41.163  31.825  0.00  0.00    -0.204 NA
ATOM     42  H   UNL     1      30.972  41.523  32.777  0.00  0.00    +0.144 HD
ATOM     43  H   UNL     1      30.892  40.144  31.765  0.00  0.00    +0.144 HD
ENDBRANCH  38  41
ENDBRANCH  34  38
ENDBRANCH  30  32
ENDBRANCH  26  28
ENDBRANCH  25  26
ENDBRANCH  24  25
ENDBRANCH   1  24
TORSDOF 13
