REMARK  Name = lig_assembled_52.pdb
REMARK  11 active torsions:
REMARK  status: ('A' for Active; 'I' for Inactive)
REMARK    1  A    between atoms: _2  and  _9
REMARK    2  A    between atoms: _6  and  _7
REMARK    3  A    between atoms: _6  and  _13
REMARK    4  A    between atoms: _13  and  _15
REMARK    5  A    between atoms: _14  and  _19
REMARK    6  A    between atoms: _15  and  _18
REMARK    7  A    between atoms: _23  and  _33
REMARK    8  A    between atoms: _25  and  _26
REMARK    9  A    between atoms: _27  and  _29
REMARK   10  A    between atoms: _29  and  _31
REMARK   11  A    between atoms: _31  and  _33
REMARK                            x       y       z     vdW  Elec       q    Type
REMARK                         _______ _______ _______ _____ _____    ______ ____
ROOT
ATOM      1  C   UNL     1      31.096  27.618  25.648  0.00  0.00    +0.152 C 
ENDROOT
BRANCH   1   3
ATOM      2  C   UNL     1      32.922  26.092  26.984  0.00  0.00    +0.400 C 
ATOM      3  N   UNL     1      32.248  27.145  26.411  0.00  0.00    -0.278 N 
ATOM      4  H   UNL     1      32.876  27.984  26.623  0.00  0.00    +0.152 HD
ATOM      5  O   UNL     1      34.061  26.289  27.397  0.00  0.00    -0.226 OA
BRANCH   2   6
ATOM      6  O   UNL     1      32.263  24.982  27.060  0.00  0.00    -0.450 OA
BRANCH   6   7
ATOM      7  C   UNL     1      31.868  24.039  28.029  0.00  0.00    +0.240 C 
BRANCH   7   8
ATOM      8  C   UNL     1      30.418  23.522  27.968  0.00  0.00    +0.100 C 
BRANCH   8  10
ATOM      9  N   UNL     1      28.547  24.955  27.218  0.00  0.00    -0.134 NA
ATOM     10  C   UNL     1      29.470  24.634  28.170  0.00  0.00    +0.086 A 
ATOM     11  C   UNL     1      29.325  25.486  29.241  0.00  0.00    +0.140 A 
ATOM     12  N   UNL     1      28.274  26.307  28.902  0.00  0.00    -0.218 N 
ATOM     13  N   UNL     1      27.828  25.974  27.667  0.00  0.00    -0.060 NA
BRANCH  12  14
ATOM     14  C   UNL     1      27.683  27.341  29.659  0.00  0.00    +0.085 A 
ATOM     15  C   UNL     1      26.306  27.395  29.892  0.00  0.00    +0.031 A 
ATOM     16  C   UNL     1      25.781  28.454  30.628  0.00  0.00    +0.022 A 
ATOM     17  C   UNL     1      26.649  29.420  31.108  0.00  0.00    +0.111 A 
ATOM     18  N   UNL     1      27.983  29.393  30.907  0.00  0.00    -0.261 NA
ATOM     19  C   UNL     1      28.476  28.354  30.187  0.00  0.00    +0.138 A 
ENDBRANCH  12  14
ENDBRANCH   8  10
ENDBRANCH   7   8
ENDBRANCH   6   7
ENDBRANCH   2   6
ENDBRANCH   1   3
BRANCH   1  20
ATOM     20  C   UNL     1      30.643  26.723  24.476  0.00  0.00    +0.193 C 
ATOM     21  O   UNL     1      29.326  27.177  24.092  0.00  0.00    -0.219 OA
BRANCH  20  22
ATOM     22  C   UNL     1      31.467  26.782  23.171  0.00  0.00    +0.212 C 
ATOM     23  O   UNL     1      30.598  26.917  22.035  0.00  0.00    -0.218 OA
BRANCH  22  24
ATOM     24  C   UNL     1      32.515  27.960  23.147  0.00  0.00    +0.171 C 
ATOM     25  O   UNL     1      33.560  27.783  24.098  0.00  0.00    -0.343 OA
ATOM     26  C   UNL     1      34.474  28.775  24.458  0.00  0.00    +0.220 C 
ATOM     27  C   UNL     1      33.770  30.091  24.835  0.00  0.00    +0.076 C 
ATOM     28  C   UNL     1      32.834  30.463  23.673  0.00  0.00    +0.177 C 
ATOM     29  O   UNL     1      32.186  31.696  23.954  0.00  0.00    -0.221 OA
ATOM     30  C   UNL     1      31.799  29.322  23.430  0.00  0.00    +0.155 C 
BRANCH  30  31
ATOM     31  N   UNL     1      30.903  29.675  22.332  0.00  0.00    -0.202 NA
ATOM     32  C   UNL     1      29.720  30.341  22.356  0.00  0.00    +0.242 C 
ATOM     33  C   UNL     1      29.147  30.830  21.052  0.00  0.00    +0.096 C 
ATOM     34  O   UNL     1      29.151  30.529  23.430  0.00  0.00    -0.273 OA
ENDBRANCH  30  31
BRANCH  26  35
ATOM     35  C   UNL     1      35.637  29.017  23.349  0.00  0.00    +0.391 C 
ATOM     36  O   UNL     1      35.994  30.308  23.495  0.00  0.00    -0.243 OA
ATOM     37  O   UNL     1      36.005  27.800  22.928  0.00  0.00    -0.243 OA
ENDBRANCH  26  35
ENDBRANCH  22  24
ENDBRANCH  20  22
ENDBRANCH   1  20
TORSDOF 11
