REMARK  Name = lig_assembled_88.pdb
REMARK  13 active torsions:
REMARK  status: ('A' for Active; 'I' for Inactive)
REMARK    1  A    between atoms: _2  and  _8
REMARK    2  A    between atoms: _4  and  _14
REMARK    3  A    between atoms: _5  and  _6
REMARK    4  A    between atoms: _5  and  _15
REMARK    5  A    between atoms: _8  and  _9
REMARK    6  A    between atoms: _15  and  _17
REMARK    7  A    between atoms: _16  and  _21
REMARK    8  A    between atoms: _17  and  _20
REMARK    9  A    between atoms: _25  and  _35
REMARK   10  A    between atoms: _27  and  _28
REMARK   11  A    between atoms: _29  and  _31
REMARK   12  A    between atoms: _31  and  _33
REMARK   13  A    between atoms: _33  and  _35
REMARK                            x       y       z     vdW  Elec       q    Type
REMARK                         _______ _______ _______ _____ _____    ______ ____
ROOT
ATOM      1  C   UNL     1      28.563  36.034  18.677  0.00  0.00    +0.400 C 
ATOM      2  N   UNL     1      29.712  35.284  18.586  0.00  0.00    -0.278 N 
ATOM      3  H   UNL     1      30.488  35.995  18.770  0.00  0.00    +0.152 HD
ATOM      4  O   UNL     1      28.656  37.186  19.095  0.00  0.00    -0.226 OA
ENDROOT
BRANCH   1   5
ATOM      5  O   UNL     1      27.481  35.452  18.276  0.00  0.00    -0.450 OA
BRANCH   5   6
ATOM      6  C   UNL     1      26.739  35.275  17.093  0.00  0.00    +0.240 C 
BRANCH   6   7
ATOM      7  C   UNL     1      27.503  35.346  15.757  0.00  0.00    +0.100 C 
BRANCH   7   9
ATOM      8  N   UNL     1      26.709  33.482  14.333  0.00  0.00    -0.134 NA
ATOM      9  C   UNL     1      26.675  34.812  14.659  0.00  0.00    +0.086 A 
ATOM     10  C   UNL     1      25.806  35.462  13.811  0.00  0.00    +0.134 A 
ATOM     11  N   UNL     1      25.404  34.486  12.945  0.00  0.00    -0.247 N 
ATOM     12  N   UNL     1      25.909  33.287  13.294  0.00  0.00    -0.065 NA
BRANCH  11  13
ATOM     13  C   UNL     1      24.608  34.630  11.737  0.00  0.00    +0.184 C 
BRANCH  13  14
ATOM     14  C   UNL     1      25.382  35.232  10.580  0.00  0.00    +0.017 A 
ATOM     15  C   UNL     1      26.597  34.688  10.120  0.00  0.00    +0.024 A 
ATOM     16  C   UNL     1      27.282  35.269   9.051  0.00  0.00    +0.019 A 
ATOM     17 BR   UNL     1      28.937  34.542   8.494  0.00  0.00    -0.050 Br
ATOM     18  C   UNL     1      26.766  36.381   8.392  0.00  0.00    +0.034 A 
ATOM     19  C   UNL     1      25.541  36.900   8.805  0.00  0.00    +0.061 A 
ATOM     20 BR   UNL     1      24.823  38.392   7.880  0.00  0.00    -0.046 Br
ATOM     21  C   UNL     1      24.854  36.328   9.884  0.00  0.00    +0.136 A 
BRANCH  21  22
ATOM     22  O   UNL     1      23.642  36.823  10.288  0.00  0.00    -0.505 OA
ATOM     23  H   UNL     1      23.403  37.549   9.681  0.00  0.00    +0.292 HD
ENDBRANCH  21  22
ENDBRANCH  13  14
ENDBRANCH  11  13
ENDBRANCH   7   9
ENDBRANCH   6   7
ENDBRANCH   5   6
ENDBRANCH   1   5
BRANCH   2  24
ATOM     24  C   UNL     1      30.332  33.979  18.370  0.00  0.00    +0.152 C 
BRANCH  24  25
ATOM     25  C   UNL     1      29.433  32.750  18.620  0.00  0.00    +0.193 C 
ATOM     26  O   UNL     1      28.880  32.372  17.340  0.00  0.00    -0.219 OA
BRANCH  25  27
ATOM     27  C   UNL     1      30.111  31.464  19.142  0.00  0.00    +0.212 C 
ATOM     28  O   UNL     1      31.232  31.791  19.979  0.00  0.00    -0.218 OA
BRANCH  27  29
ATOM     29  C   UNL     1      29.134  30.528  19.952  0.00  0.00    +0.171 C 
ATOM     30  O   UNL     1      28.438  29.609  19.117  0.00  0.00    -0.343 OA
ATOM     31  C   UNL     1      27.347  28.840  19.529  0.00  0.00    +0.220 C 
ATOM     32  C   UNL     1      26.269  29.700  20.211  0.00  0.00    +0.076 C 
ATOM     33  C   UNL     1      26.956  30.500  21.330  0.00  0.00    +0.177 C 
ATOM     34  O   UNL     1      25.993  31.284  22.021  0.00  0.00    -0.221 OA
ATOM     35  C   UNL     1      28.090  31.391  20.735  0.00  0.00    +0.155 C 
BRANCH  35  36
ATOM     36  N   UNL     1      28.741  32.159  21.794  0.00  0.00    -0.202 NA
ATOM     37  C   UNL     1      28.618  33.472  22.114  0.00  0.00    +0.242 C 
ATOM     38  C   UNL     1      29.174  33.942  23.433  0.00  0.00    +0.096 C 
ATOM     39  O   UNL     1      28.060  34.239  21.331  0.00  0.00    -0.273 OA
ENDBRANCH  35  36
BRANCH  31  40
ATOM     40  C   UNL     1      27.763  27.565  20.445  0.00  0.00    +0.391 C 
ATOM     41  O   UNL     1      26.597  27.078  20.913  0.00  0.00    -0.243 OA
ATOM     42  O   UNL     1      29.042  27.301  20.153  0.00  0.00    -0.243 OA
ENDBRANCH  31  40
ENDBRANCH  27  29
ENDBRANCH  25  27
ENDBRANCH  24  25
ENDBRANCH   2  24
TORSDOF 13
