REMARK  Name = lig_assembled_36.pdb
REMARK  13 active torsions:
REMARK  status: ('A' for Active; 'I' for Inactive)
REMARK    1  A    between atoms: _2  and  _9
REMARK    2  A    between atoms: _6  and  _7
REMARK    3  A    between atoms: _6  and  _16
REMARK    4  A    between atoms: _9  and  _10
REMARK    5  A    between atoms: _13  and  _14
REMARK    6  A    between atoms: _16  and  _18
REMARK    7  A    between atoms: _17  and  _22
REMARK    8  A    between atoms: _18  and  _21
REMARK    9  A    between atoms: _26  and  _36
REMARK   10  A    between atoms: _28  and  _29
REMARK   11  A    between atoms: _30  and  _32
REMARK   12  A    between atoms: _32  and  _34
REMARK   13  A    between atoms: _34  and  _36
REMARK                            x       y       z     vdW  Elec       q    Type
REMARK                         _______ _______ _______ _____ _____    ______ ____
ROOT
ATOM      1  C   UNL     1      27.258  36.882  23.199  0.00  0.00    +0.400 C 
ATOM      2  N   UNL     1      27.389  36.105  22.073  0.00  0.00    -0.278 N 
ATOM      3  H   UNL     1      28.427  36.189  21.833  0.00  0.00    +0.152 HD
ATOM      4  O   UNL     1      28.281  37.299  23.737  0.00  0.00    -0.226 OA
ENDROOT
BRANCH   1   5
ATOM      5  O   UNL     1      26.045  37.128  23.572  0.00  0.00    -0.450 OA
BRANCH   5   6
ATOM      6  C   UNL     1      25.084  36.635  24.476  0.00  0.00    +0.240 C 
BRANCH   6   7
ATOM      7  C   UNL     1      25.441  36.659  25.975  0.00  0.00    +0.100 C 
BRANCH   7   9
ATOM      8  N   UNL     1      24.300  37.390  28.048  0.00  0.00    -0.134 NA
ATOM      9  C   UNL     1      24.523  37.552  26.705  0.00  0.00    +0.086 A 
ATOM     10  C   UNL     1      23.797  38.631  26.253  0.00  0.00    +0.134 A 
ATOM     11  N   UNL     1      23.231  39.138  27.385  0.00  0.00    -0.247 N 
ATOM     12  N   UNL     1      23.489  38.359  28.452  0.00  0.00    -0.065 NA
BRANCH  11  13
ATOM     13  C   UNL     1      22.457  40.355  27.528  0.00  0.00    +0.180 C 
BRANCH  13  14
ATOM     14  C   UNL     1      23.131  41.327  28.468  0.00  0.00    -0.026 A 
ATOM     15  C   UNL     1      24.376  41.892  28.150  0.00  0.00    +0.007 A 
ATOM     16  C   UNL     1      24.991  42.795  29.024  0.00  0.00    +0.019 A 
ATOM     17  C   UNL     1      24.372  43.141  30.229  0.00  0.00    +0.052 A 
ATOM     18  C   UNL     1      23.144  42.565  30.564  0.00  0.00    +0.019 A 
ATOM     19  C   UNL     1      22.530  41.661  29.692  0.00  0.00    +0.007 A 
BRANCH  17  20
ATOM     20  C   UNL     1      24.994  44.084  31.114  0.00  0.00    +0.099 C 
ATOM     21  N   UNL     1      25.496  44.854  31.822  0.00  0.00    -0.191 NA
ENDBRANCH  17  20
ENDBRANCH  13  14
ENDBRANCH  11  13
ENDBRANCH   7   9
ENDBRANCH   6   7
ENDBRANCH   5   6
ENDBRANCH   1   5
BRANCH   2  22
ATOM     22  C   UNL     1      26.764  35.225  21.089  0.00  0.00    +0.152 C 
BRANCH  22  23
ATOM     23  C   UNL     1      27.540  33.940  20.736  0.00  0.00    +0.193 C 
ATOM     24  O   UNL     1      27.126  32.931  21.683  0.00  0.00    -0.219 OA
BRANCH  23  25
ATOM     25  C   UNL     1      27.276  33.302  19.354  0.00  0.00    +0.212 C 
ATOM     26  O   UNL     1      26.283  34.052  18.636  0.00  0.00    -0.218 OA
BRANCH  25  27
ATOM     27  C   UNL     1      28.570  33.192  18.459  0.00  0.00    +0.171 C 
ATOM     28  O   UNL     1      29.143  34.462  18.168  0.00  0.00    -0.343 OA
ATOM     29  C   UNL     1      30.137  34.677  17.210  0.00  0.00    +0.220 C 
ATOM     30  C   UNL     1      29.766  34.053  15.854  0.00  0.00    +0.076 C 
ATOM     31  C   UNL     1      29.417  32.577  16.104  0.00  0.00    +0.177 C 
ATOM     32  O   UNL     1      29.104  31.941  14.873  0.00  0.00    -0.221 OA
ATOM     33  C   UNL     1      28.233  32.468  17.115  0.00  0.00    +0.155 C 
BRANCH  33  34
ATOM     34  N   UNL     1      27.893  31.067  17.349  0.00  0.00    -0.202 NA
ATOM     35  C   UNL     1      26.746  30.395  17.079  0.00  0.00    +0.242 C 
ATOM     36  C   UNL     1      26.764  28.891  17.150  0.00  0.00    +0.096 C 
ATOM     37  O   UNL     1      25.730  31.022  16.783  0.00  0.00    -0.273 OA
ENDBRANCH  33  34
BRANCH  29  38
ATOM     38  C   UNL     1      31.616  34.213  17.697  0.00  0.00    +0.391 C 
ATOM     39  O   UNL     1      32.361  34.196  16.574  0.00  0.00    -0.243 OA
ATOM     40  O   UNL     1      31.615  34.317  19.031  0.00  0.00    -0.243 OA
ENDBRANCH  29  38
ENDBRANCH  25  27
ENDBRANCH  23  25
ENDBRANCH  22  23
ENDBRANCH   2  22
TORSDOF 13
