REMARK  Name = lig_assembled_50.pdb
REMARK  15 active torsions:
REMARK  status: ('A' for Active; 'I' for Inactive)
REMARK    1  A    between atoms: _2  and  _8
REMARK    2  A    between atoms: _4  and  _9
REMARK    3  A    between atoms: _4  and  _10
REMARK    4  A    between atoms: _5  and  _6
REMARK    5  A    between atoms: _5  and  _12
REMARK    6  A    between atoms: _8  and  _9
REMARK    7  A    between atoms: _9  and  _11
REMARK    8  A    between atoms: _12  and  _14
REMARK    9  A    between atoms: _13  and  _18
REMARK   10  A    between atoms: _14  and  _17
REMARK   11  A    between atoms: _22  and  _32
REMARK   12  A    between atoms: _24  and  _25
REMARK   13  A    between atoms: _26  and  _28
REMARK   14  A    between atoms: _28  and  _30
REMARK   15  A    between atoms: _30  and  _32
REMARK                            x       y       z     vdW  Elec       q    Type
REMARK                         _______ _______ _______ _____ _____    ______ ____
ROOT
ATOM      1  C   UNL     1      25.408  30.291  30.783  0.00  0.00    +0.400 C 
ATOM      2  N   UNL     1      26.622  30.691  30.275  0.00  0.00    -0.278 N 
ATOM      3  H   UNL     1      27.229  30.804  31.148  0.00  0.00    +0.152 HD
ATOM      4  O   UNL     1      25.346  29.997  31.974  0.00  0.00    -0.226 OA
ENDROOT
BRANCH   2   5
ATOM      5  C   UNL     1      27.439  31.008  29.107  0.00  0.00    +0.152 C 
BRANCH   5   6
ATOM      6  C   UNL     1      27.822  29.818  28.203  0.00  0.00    +0.193 C 
ATOM      7  O   UNL     1      28.747  30.327  27.217  0.00  0.00    -0.219 OA
BRANCH   6   8
ATOM      8  C   UNL     1      28.568  28.634  28.857  0.00  0.00    +0.212 C 
ATOM      9  O   UNL     1      27.679  27.885  29.700  0.00  0.00    -0.218 OA
BRANCH   8  10
ATOM     10  C   UNL     1      29.219  27.651  27.810  0.00  0.00    +0.171 C 
ATOM     11  O   UNL     1      28.265  27.105  26.906  0.00  0.00    -0.343 OA
ATOM     12  C   UNL     1      28.518  26.035  26.044  0.00  0.00    +0.220 C 
ATOM     13  C   UNL     1      29.138  24.839  26.786  0.00  0.00    +0.076 C 
ATOM     14  C   UNL     1      30.366  25.357  27.554  0.00  0.00    +0.177 C 
ATOM     15  O   UNL     1      31.002  24.280  28.228  0.00  0.00    -0.221 OA
ATOM     16  C   UNL     1      29.942  26.479  28.551  0.00  0.00    +0.155 C 
BRANCH  16  17
ATOM     17  N   UNL     1      31.105  26.969  29.288  0.00  0.00    -0.202 NA
ATOM     18  C   UNL     1      31.390  26.888  30.612  0.00  0.00    +0.242 C 
ATOM     19  C   UNL     1      32.791  27.213  31.063  0.00  0.00    +0.096 C 
ATOM     20  O   UNL     1      30.511  26.555  31.404  0.00  0.00    -0.273 OA
ENDBRANCH  16  17
BRANCH  12  21
ATOM     21  C   UNL     1      29.395  26.448  24.740  0.00  0.00    +0.391 C 
ATOM     22  O   UNL     1      29.592  25.294  24.074  0.00  0.00    -0.243 OA
ATOM     23  O   UNL     1      29.332  27.783  24.660  0.00  0.00    -0.243 OA
ENDBRANCH  12  21
ENDBRANCH   8  10
ENDBRANCH   6   8
ENDBRANCH   5   6
ENDBRANCH   2   5
BRANCH   1  24
ATOM     24  O   UNL     1      24.423  30.295  29.946  0.00  0.00    -0.450 OA
BRANCH  24  25
ATOM     25  C   UNL     1      23.440  31.177  29.457  0.00  0.00    +0.240 C 
BRANCH  25  26
ATOM     26  C   UNL     1      23.861  32.176  28.362  0.00  0.00    +0.100 C 
BRANCH  26  28
ATOM     27  N   UNL     1      23.320  30.377  26.747  0.00  0.00    -0.134 NA
ATOM     28  C   UNL     1      24.071  31.476  27.080  0.00  0.00    +0.086 A 
ATOM     29  C   UNL     1      24.953  31.746  26.054  0.00  0.00    +0.133 A 
ATOM     30  N   UNL     1      24.695  30.777  25.137  0.00  0.00    -0.249 N 
ATOM     31  N   UNL     1      23.703  29.965  25.548  0.00  0.00    -0.065 NA
BRANCH  30  32
ATOM     32  C   UNL     1      25.343  30.549  23.867  0.00  0.00    +0.178 C 
BRANCH  32  33
ATOM     33  C   UNL     1      26.065  29.200  23.768  0.00  0.00    +0.161 C 
BRANCH  33  34
ATOM     34  O   UNL     1      26.262  28.584  25.044  0.00  0.00    -0.388 OA
ATOM     35  H   UNL     1      25.392  28.488  25.481  0.00  0.00    +0.210 HD
ENDBRANCH  33  34
BRANCH  33  36
ATOM     36  C   UNL     1      25.386  28.209  22.814  0.00  0.00    +0.189 C 
BRANCH  36  37
ATOM     37  O   UNL     1      24.030  27.971  23.191  0.00  0.00    -0.392 OA
ATOM     38  H   UNL     1      23.814  28.560  23.938  0.00  0.00    +0.210 HD
ENDBRANCH  36  37
ENDBRANCH  33  36
ENDBRANCH  32  33
ENDBRANCH  30  32
ENDBRANCH  26  28
ENDBRANCH  25  26
ENDBRANCH  24  25
ENDBRANCH   1  24
TORSDOF 15
