REMARK  Name = lig_assembled_39.pdb
REMARK  12 active torsions:
REMARK  status: ('A' for Active; 'I' for Inactive)
REMARK    1  A    between atoms: _2  and  _8
REMARK    2  A    between atoms: _5  and  _6
REMARK    3  A    between atoms: _5  and  _14
REMARK    4  A    between atoms: _8  and  _9
REMARK    5  A    between atoms: _14  and  _16
REMARK    6  A    between atoms: _15  and  _20
REMARK    7  A    between atoms: _16  and  _19
REMARK    8  A    between atoms: _24  and  _34
REMARK    9  A    between atoms: _26  and  _27
REMARK   10  A    between atoms: _28  and  _30
REMARK   11  A    between atoms: _30  and  _32
REMARK   12  A    between atoms: _32  and  _34
REMARK                            x       y       z     vdW  Elec       q    Type
REMARK                         _______ _______ _______ _____ _____    ______ ____
ROOT
ATOM      1  C   UNL     1      27.731  36.740  25.466  0.00  0.00    +0.400 C 
ATOM      2  N   UNL     1      28.219  36.237  24.283  0.00  0.00    -0.278 N 
ATOM      3  H   UNL     1      28.909  36.988  23.961  0.00  0.00    +0.152 HD
ATOM      4  O   UNL     1      28.273  37.735  25.940  0.00  0.00    -0.226 OA
ENDROOT
BRANCH   2   5
ATOM      5  C   UNL     1      28.230  35.157  23.301  0.00  0.00    +0.152 C 
BRANCH   5   6
ATOM      6  C   UNL     1      29.522  35.004  22.472  0.00  0.00    +0.193 C 
ATOM      7  O   UNL     1      30.183  33.812  22.951  0.00  0.00    -0.219 OA
BRANCH   6   8
ATOM      8  C   UNL     1      29.373  34.778  20.951  0.00  0.00    +0.212 C 
ATOM      9  O   UNL     1      28.111  35.285  20.489  0.00  0.00    -0.218 OA
BRANCH   8  10
ATOM     10  C   UNL     1      30.524  35.445  20.106  0.00  0.00    +0.171 C 
ATOM     11  O   UNL     1      31.608  34.556  19.858  0.00  0.00    -0.343 OA
ATOM     12  C   UNL     1      32.849  34.948  19.351  0.00  0.00    +0.220 C 
ATOM     13  C   UNL     1      33.438  36.132  20.138  0.00  0.00    +0.076 C 
ATOM     14  C   UNL     1      32.373  37.241  20.172  0.00  0.00    +0.177 C 
ATOM     15  O   UNL     1      32.882  38.377  20.856  0.00  0.00    -0.221 OA
ATOM     16  C   UNL     1      31.068  36.712  20.844  0.00  0.00    +0.155 C 
BRANCH  16  17
ATOM     17  N   UNL     1      30.056  37.764  20.885  0.00  0.00    -0.202 NA
ATOM     18  C   UNL     1      29.720  38.608  21.894  0.00  0.00    +0.242 C 
ATOM     19  C   UNL     1      28.846  39.793  21.575  0.00  0.00    +0.096 C 
ATOM     20  O   UNL     1      30.134  38.389  23.031  0.00  0.00    -0.273 OA
ENDBRANCH  16  17
BRANCH  12  21
ATOM     21  C   UNL     1      32.833  35.242  17.754  0.00  0.00    +0.391 C 
ATOM     22  O   UNL     1      33.924  36.000  17.529  0.00  0.00    -0.243 OA
ATOM     23  O   UNL     1      31.941  34.393  17.230  0.00  0.00    -0.243 OA
ENDBRANCH  12  21
ENDBRANCH   8  10
ENDBRANCH   6   8
ENDBRANCH   5   6
ENDBRANCH   2   5
BRANCH   1  24
ATOM     24  O   UNL     1      26.708  36.121  25.957  0.00  0.00    -0.450 OA
BRANCH  24  25
ATOM     25  C   UNL     1      25.329  35.973  25.710  0.00  0.00    +0.240 C 
BRANCH  25  26
ATOM     26  C   UNL     1      24.475  37.254  25.656  0.00  0.00    +0.100 C 
BRANCH  26  28
ATOM     27  N   UNL     1      25.076  39.130  27.155  0.00  0.00    -0.134 NA
ATOM     28  C   UNL     1      24.461  37.919  26.972  0.00  0.00    +0.086 A 
ATOM     29  C   UNL     1      23.878  37.524  28.155  0.00  0.00    +0.134 A 
ATOM     30  N   UNL     1      24.104  38.575  28.995  0.00  0.00    -0.247 N 
ATOM     31  N   UNL     1      24.876  39.510  28.409  0.00  0.00    -0.065 NA
BRANCH  30  32
ATOM     32  C   UNL     1      23.561  38.788  30.329  0.00  0.00    +0.181 C 
BRANCH  32  33
ATOM     33  C   UNL     1      22.091  39.167  30.325  0.00  0.00    -0.012 A 
ATOM     34  C   UNL     1      21.682  40.485  30.035  0.00  0.00    +0.006 A 
ATOM     35  C   UNL     1      20.333  40.849  30.032  0.00  0.00    +0.000 A 
ATOM     36  C   UNL     1      19.360  39.908  30.345  0.00  0.00    +0.001 A 
ATOM     37  C   UNL     1      19.737  38.610  30.677  0.00  0.00    +0.015 A 
ATOM     38  C   UNL     1      21.091  38.243  30.679  0.00  0.00    +0.023 A 
ATOM     39 BR   UNL     1      21.489  36.460  31.206  0.00  0.00    -0.050 Br
ENDBRANCH  32  33
ENDBRANCH  30  32
ENDBRANCH  26  28
ENDBRANCH  25  26
ENDBRANCH  24  25
ENDBRANCH   1  24
TORSDOF 12
