REMARK  Name = lig_assembled_70.pdb
REMARK  11 active torsions:
REMARK  status: ('A' for Active; 'I' for Inactive)
REMARK    1  A    between atoms: _2  and  _9
REMARK    2  A    between atoms: _6  and  _7
REMARK    3  A    between atoms: _6  and  _17
REMARK    4  A    between atoms: _17  and  _19
REMARK    5  A    between atoms: _18  and  _23
REMARK    6  A    between atoms: _19  and  _22
REMARK    7  A    between atoms: _27  and  _37
REMARK    8  A    between atoms: _29  and  _30
REMARK    9  A    between atoms: _31  and  _33
REMARK   10  A    between atoms: _33  and  _35
REMARK   11  A    between atoms: _35  and  _37
REMARK                            x       y       z     vdW  Elec       q    Type
REMARK                         _______ _______ _______ _____ _____    ______ ____
ROOT
ATOM      1  C   UNL     1      35.315   8.301   6.061  0.00  0.00    +0.400 C 
ATOM      2  N   UNL     1      36.649   8.392   6.381  0.00  0.00    -0.278 N 
ATOM      3  H   UNL     1      36.676   9.172   7.111  0.00  0.00    +0.152 HD
ATOM      4  O   UNL     1      34.511   8.929   6.745  0.00  0.00    -0.226 OA
ENDROOT
BRANCH   1   5
ATOM      5  O   UNL     1      35.035   7.573   5.030  0.00  0.00    -0.450 OA
BRANCH   5   6
ATOM      6  C   UNL     1      35.119   7.632   3.626  0.00  0.00    +0.240 C 
BRANCH   6   7
ATOM      7  C   UNL     1      33.797   7.681   2.836  0.00  0.00    +0.100 C 
BRANCH   7   9
ATOM      8  N   UNL     1      34.262   6.835   0.553  0.00  0.00    -0.134 NA
ATOM      9  C   UNL     1      34.061   7.886   1.400  0.00  0.00    +0.086 A 
ATOM     10  C   UNL     1      34.146   9.059   0.686  0.00  0.00    +0.140 A 
ATOM     11  N   UNL     1      34.393   8.670  -0.611  0.00  0.00    -0.218 N 
ATOM     12  N   UNL     1      34.470   7.320  -0.665  0.00  0.00    -0.060 NA
BRANCH  11  13
ATOM     13  C   UNL     1      34.528   9.480  -1.756  0.00  0.00    +0.086 A 
ATOM     14  C   UNL     1      33.488  10.301  -2.163  0.00  0.00    +0.139 A 
ATOM     15  N   UNL     1      33.565  11.140  -3.228  0.00  0.00    -0.253 NA
ATOM     16  C   UNL     1      34.718  11.184  -3.922  0.00  0.00    +0.071 A 
ATOM     17  C   UNL     1      35.824  10.374  -3.590  0.00  0.00    +0.002 A 
ATOM     18  C   UNL     1      37.012  10.449  -4.339  0.00  0.00    +0.010 A 
ATOM     19  C   UNL     1      37.117  11.339  -5.403  0.00  0.00    +0.001 A 
ATOM     20  C   UNL     1      36.035  12.147  -5.729  0.00  0.00    +0.002 A 
ATOM     21  C   UNL     1      34.848  12.057  -4.994  0.00  0.00    +0.028 A 
ATOM     22  C   UNL     1      35.710   9.508  -2.496  0.00  0.00    +0.039 A 
ENDBRANCH  11  13
ENDBRANCH   7   9
ENDBRANCH   6   7
ENDBRANCH   5   6
ENDBRANCH   1   5
BRANCH   2  23
ATOM     23  C   UNL     1      38.011   7.902   6.187  0.00  0.00    +0.152 C 
BRANCH  23  24
ATOM     24  C   UNL     1      38.990   8.873   5.494  0.00  0.00    +0.193 C 
ATOM     25  O   UNL     1      38.185   9.891   4.859  0.00  0.00    -0.219 OA
BRANCH  24  26
ATOM     26  C   UNL     1      39.970   9.661   6.391  0.00  0.00    +0.212 C 
ATOM     27  O   UNL     1      40.670   8.770   7.274  0.00  0.00    -0.218 OA
BRANCH  26  28
ATOM     28  C   UNL     1      41.029  10.496   5.575  0.00  0.00    +0.171 C 
ATOM     29  O   UNL     1      40.576  11.812   5.275  0.00  0.00    -0.343 OA
ATOM     30  C   UNL     1      41.199  12.673   4.368  0.00  0.00    +0.220 C 
ATOM     31  C   UNL     1      41.453  11.987   3.014  0.00  0.00    +0.076 C 
ATOM     32  C   UNL     1      42.213  10.680   3.292  0.00  0.00    +0.177 C 
ATOM     33  O   UNL     1      42.509  10.025   2.067  0.00  0.00    -0.221 OA
ATOM     34  C   UNL     1      41.376   9.763   4.238  0.00  0.00    +0.155 C 
BRANCH  34  35
ATOM     35  N   UNL     1      42.092   8.517   4.499  0.00  0.00    -0.202 NA
ATOM     36  C   UNL     1      41.924   7.288   3.948  0.00  0.00    +0.242 C 
ATOM     37  C   UNL     1      42.989   6.248   4.181  0.00  0.00    +0.096 C 
ATOM     38  O   UNL     1      40.920   7.054   3.279  0.00  0.00    -0.273 OA
ENDBRANCH  34  35
BRANCH  30  39
ATOM     39  C   UNL     1      42.550  13.360   4.952  0.00  0.00    +0.391 C 
ATOM     40  O   UNL     1      42.634  12.933   6.226  0.00  0.00    -0.243 OA
ATOM     41  O   UNL     1      43.214  13.831   3.889  0.00  0.00    -0.243 OA
ENDBRANCH  30  39
ENDBRANCH  26  28
ENDBRANCH  24  26
ENDBRANCH  23  24
ENDBRANCH   2  23
TORSDOF 11
