REMARK  Name = lig_assembled_32.pdb
REMARK  14 active torsions:
REMARK  status: ('A' for Active; 'I' for Inactive)
REMARK    1  A    between atoms: _2  and  _8
REMARK    2  A    between atoms: _4  and  _9
REMARK    3  A    between atoms: _4  and  _10
REMARK    4  A    between atoms: _5  and  _6
REMARK    5  A    between atoms: _5  and  _12
REMARK    6  A    between atoms: _8  and  _9
REMARK    7  A    between atoms: _12  and  _14
REMARK    8  A    between atoms: _13  and  _18
REMARK    9  A    between atoms: _14  and  _17
REMARK   10  A    between atoms: _22  and  _32
REMARK   11  A    between atoms: _24  and  _25
REMARK   12  A    between atoms: _26  and  _28
REMARK   13  A    between atoms: _28  and  _30
REMARK   14  A    between atoms: _30  and  _32
REMARK                            x       y       z     vdW  Elec       q    Type
REMARK                         _______ _______ _______ _____ _____    ______ ____
ROOT
ATOM      1  C   UNL     1      29.074  32.278  20.815  0.00  0.00    +0.152 C 
ENDROOT
BRANCH   1   3
ATOM      2  C   UNL     1      30.872  30.239  20.583  0.00  0.00    +0.400 C 
ATOM      3  N   UNL     1      30.021  31.285  20.315  0.00  0.00    -0.278 N 
ATOM      4  H   UNL     1      30.093  31.397  19.255  0.00  0.00    +0.152 HD
ATOM      5  O   UNL     1      31.329  29.606  19.635  0.00  0.00    -0.226 OA
BRANCH   2   6
ATOM      6  O   UNL     1      31.137  30.039  21.833  0.00  0.00    -0.450 OA
BRANCH   6   7
ATOM      7  C   UNL     1      30.773  29.165  22.875  0.00  0.00    +0.240 C 
BRANCH   7   8
ATOM      8  C   UNL     1      31.584  29.242  24.183  0.00  0.00    +0.100 C 
BRANCH   8  10
ATOM      9  N   UNL     1      32.939  27.276  24.835  0.00  0.00    -0.134 NA
ATOM     10  C   UNL     1      31.721  27.901  24.781  0.00  0.00    +0.086 A 
ATOM     11  C   UNL     1      30.769  27.080  25.346  0.00  0.00    +0.133 A 
ATOM     12  N   UNL     1      31.469  25.972  25.709  0.00  0.00    -0.251 N 
ATOM     13  N   UNL     1      32.772  26.090  25.403  0.00  0.00    -0.065 NA
BRANCH  12  14
ATOM     14  C   UNL     1      30.977  24.771  26.349  0.00  0.00    +0.156 C 
BRANCH  14  15
ATOM     15  C   UNL     1      31.906  24.296  27.459  0.00  0.00    +0.143 C 
BRANCH  15  16
ATOM     16  C   UNL     1      32.408  22.914  27.157  0.00  0.00    +0.306 C 
ATOM     17  O   UNL     1      32.394  22.393  26.053  0.00  0.00    -0.251 OA
BRANCH  16  18
ATOM     18  O   UNL     1      32.875  22.278  28.254  0.00  0.00    -0.481 OA
ATOM     19  H   UNL     1      32.838  22.809  29.073  0.00  0.00    +0.295 HD
ENDBRANCH  16  18
ENDBRANCH  15  16
ENDBRANCH  14  15
ENDBRANCH  12  14
ENDBRANCH   8  10
ENDBRANCH   7   8
ENDBRANCH   6   7
ENDBRANCH   2   6
ENDBRANCH   1   3
BRANCH   1  20
ATOM     20  C   UNL     1      27.740  32.391  20.049  0.00  0.00    +0.193 C 
ATOM     21  O   UNL     1      28.070  32.436  18.643  0.00  0.00    -0.219 OA
BRANCH  20  22
ATOM     22  C   UNL     1      26.742  31.218  20.173  0.00  0.00    +0.212 C 
ATOM     23  O   UNL     1      27.416  30.031  20.620  0.00  0.00    -0.218 OA
BRANCH  22  24
ATOM     24  C   UNL     1      25.545  31.518  21.154  0.00  0.00    +0.171 C 
ATOM     25  O   UNL     1      25.319  32.912  21.332  0.00  0.00    -0.343 OA
ATOM     26  C   UNL     1      24.495  33.457  22.320  0.00  0.00    +0.220 C 
ATOM     27  C   UNL     1      24.826  32.895  23.713  0.00  0.00    +0.076 C 
ATOM     28  C   UNL     1      24.790  31.360  23.614  0.00  0.00    +0.177 C 
ATOM     29  O   UNL     1      25.051  30.789  24.888  0.00  0.00    -0.221 OA
ATOM     30  C   UNL     1      25.819  30.867  22.549  0.00  0.00    +0.155 C 
BRANCH  30  31
ATOM     31  N   UNL     1      25.793  29.409  22.457  0.00  0.00    -0.202 NA
ATOM     32  C   UNL     1      26.515  28.483  23.137  0.00  0.00    +0.242 C 
ATOM     33  C   UNL     1      26.083  27.042  23.062  0.00  0.00    +0.096 C 
ATOM     34  O   UNL     1      27.493  28.838  23.793  0.00  0.00    -0.273 OA
ENDBRANCH  30  31
BRANCH  26  35
ATOM     35  C   UNL     1      22.910  33.326  21.985  0.00  0.00    +0.391 C 
ATOM     36  O   UNL     1      22.296  33.387  23.182  0.00  0.00    -0.243 OA
ATOM     37  O   UNL     1      22.795  33.511  20.664  0.00  0.00    -0.243 OA
ENDBRANCH  26  35
ENDBRANCH  22  24
ENDBRANCH  20  22
ENDBRANCH   1  20
TORSDOF 14
