REMARK  Name = lig_assembled_53.pdb
REMARK  13 active torsions:
REMARK  status: ('A' for Active; 'I' for Inactive)
REMARK    1  A    between atoms: _2  and  _8
REMARK    2  A    between atoms: _4  and  _8
REMARK    3  A    between atoms: _4  and  _9
REMARK    4  A    between atoms: _5  and  _6
REMARK    5  A    between atoms: _5  and  _11
REMARK    6  A    between atoms: _11  and  _13
REMARK    7  A    between atoms: _12  and  _17
REMARK    8  A    between atoms: _13  and  _16
REMARK    9  A    between atoms: _21  and  _31
REMARK   10  A    between atoms: _23  and  _24
REMARK   11  A    between atoms: _25  and  _27
REMARK   12  A    between atoms: _27  and  _29
REMARK   13  A    between atoms: _29  and  _31
REMARK                            x       y       z     vdW  Elec       q    Type
REMARK                         _______ _______ _______ _____ _____    ______ ____
ROOT
ATOM      1  C   UNL     1      25.508  30.779  29.462  0.00  0.00    +0.152 C 
ENDROOT
BRANCH   1   3
ATOM      2  C   UNL     1      24.812  30.073  26.920  0.00  0.00    +0.400 C 
ATOM      3  N   UNL     1      24.817  30.607  28.187  0.00  0.00    -0.278 N 
ATOM      4  H   UNL     1      23.876  31.110  28.247  0.00  0.00    +0.152 HD
ATOM      5  O   UNL     1      23.767  30.119  26.276  0.00  0.00    -0.226 OA
BRANCH   2   6
ATOM      6  O   UNL     1      25.940  29.592  26.511  0.00  0.00    -0.450 OA
BRANCH   6   7
ATOM      7  C   UNL     1      26.806  29.692  25.405  0.00  0.00    +0.240 C 
BRANCH   7   8
ATOM      8  C   UNL     1      26.908  28.472  24.469  0.00  0.00    +0.100 C 
BRANCH   8  10
ATOM      9  N   UNL     1      27.979  27.959  22.296  0.00  0.00    -0.134 NA
ATOM     10  C   UNL     1      27.431  28.876  23.151  0.00  0.00    +0.086 A 
ATOM     11  C   UNL     1      27.474  30.120  22.563  0.00  0.00    +0.134 A 
ATOM     12  N   UNL     1      28.120  29.909  21.382  0.00  0.00    -0.241 N 
ATOM     13  N   UNL     1      28.379  28.598  21.205  0.00  0.00    -0.065 NA
BRANCH  12  14
ATOM     14  C   UNL     1      28.398  30.819  20.291  0.00  0.00    +0.265 C 
BRANCH  14  15
ATOM     15  C   UNL     1      29.171  30.229  19.142  0.00  0.00    +0.326 C 
ATOM     16  O   UNL     1      30.341  30.442  18.862  0.00  0.00    -0.249 OA
BRANCH  15  17
ATOM     17  O   UNL     1      28.413  29.396  18.379  0.00  0.00    -0.479 OA
ATOM     18  H   UNL     1      27.492  29.266  18.676  0.00  0.00    +0.295 HD
ENDBRANCH  15  17
ENDBRANCH  14  15
ENDBRANCH  12  14
ENDBRANCH   8  10
ENDBRANCH   7   8
ENDBRANCH   6   7
ENDBRANCH   2   6
ENDBRANCH   1   3
BRANCH   1  19
ATOM     19  C   UNL     1      25.756  32.234  29.910  0.00  0.00    +0.193 C 
ATOM     20  O   UNL     1      26.965  32.224  30.701  0.00  0.00    -0.219 OA
BRANCH  19  21
ATOM     21  C   UNL     1      26.023  33.285  28.810  0.00  0.00    +0.212 C 
ATOM     22  O   UNL     1      24.892  33.388  27.930  0.00  0.00    -0.218 OA
BRANCH  21  23
ATOM     23  C   UNL     1      26.350  34.717  29.382  0.00  0.00    +0.171 C 
ATOM     24  O   UNL     1      25.393  35.156  30.341  0.00  0.00    -0.343 OA
ATOM     25  C   UNL     1      25.301  36.464  30.821  0.00  0.00    +0.220 C 
ATOM     26  C   UNL     1      25.261  37.491  29.675  0.00  0.00    +0.076 C 
ATOM     27  C   UNL     1      26.472  37.218  28.767  0.00  0.00    +0.177 C 
ATOM     28  O   UNL     1      26.505  38.166  27.710  0.00  0.00    -0.221 OA
ATOM     29  C   UNL     1      26.413  35.758  28.217  0.00  0.00    +0.155 C 
BRANCH  29  30
ATOM     30  N   UNL     1      27.558  35.497  27.348  0.00  0.00    -0.202 NA
ATOM     31  C   UNL     1      27.597  35.259  26.013  0.00  0.00    +0.242 C 
ATOM     32  C   UNL     1      28.931  35.314  25.315  0.00  0.00    +0.096 C 
ATOM     33  O   UNL     1      26.556  35.008  25.409  0.00  0.00    -0.273 OA
ENDBRANCH  29  30
BRANCH  25  34
ATOM     34  C   UNL     1      26.444  36.834  31.914  0.00  0.00    +0.391 C 
ATOM     35  O   UNL     1      26.353  38.169  32.074  0.00  0.00    -0.243 OA
ATOM     36  O   UNL     1      26.828  35.672  32.456  0.00  0.00    -0.243 OA
ENDBRANCH  25  34
ENDBRANCH  21  23
ENDBRANCH  19  21
ENDBRANCH   1  19
TORSDOF 13
