REMARK  Name = lig_assembled_62.pdb
REMARK  15 active torsions:
REMARK  status: ('A' for Active; 'I' for Inactive)
REMARK    1  A    between atoms: _2  and  _9
REMARK    2  A    between atoms: _5  and  _9
REMARK    3  A    between atoms: _6  and  _7
REMARK    4  A    between atoms: _6  and  _14
REMARK    5  A    between atoms: _9  and  _10
REMARK    6  A    between atoms: _10  and  _13
REMARK    7  A    between atoms: _11  and  _13
REMARK    8  A    between atoms: _14  and  _16
REMARK    9  A    between atoms: _15  and  _20
REMARK   10  A    between atoms: _16  and  _19
REMARK   11  A    between atoms: _24  and  _34
REMARK   12  A    between atoms: _26  and  _27
REMARK   13  A    between atoms: _28  and  _30
REMARK   14  A    between atoms: _30  and  _32
REMARK   15  A    between atoms: _32  and  _34
REMARK                            x       y       z     vdW  Elec       q    Type
REMARK                         _______ _______ _______ _____ _____    ______ ____
ROOT
ATOM      1  C   UNL     1      21.836  32.620  31.485  0.00  0.00    +0.400 C 
ATOM      2  N   UNL     1      23.103  32.632  30.951  0.00  0.00    -0.278 N 
ATOM      3  H   UNL     1      23.728  32.428  31.793  0.00  0.00    +0.152 HD
ATOM      4  O   UNL     1      21.699  32.231  32.642  0.00  0.00    -0.226 OA
ENDROOT
BRANCH   2   5
ATOM      5  C   UNL     1      23.956  32.779  29.774  0.00  0.00    +0.152 C 
BRANCH   5   6
ATOM      6  C   UNL     1      24.117  31.525  28.890  0.00  0.00    +0.193 C 
ATOM      7  O   UNL     1      25.490  31.508  28.440  0.00  0.00    -0.219 OA
BRANCH   6   8
ATOM      8  C   UNL     1      23.914  30.148  29.559  0.00  0.00    +0.212 C 
ATOM      9  O   UNL     1      22.515  29.887  29.757  0.00  0.00    -0.218 OA
BRANCH   8  10
ATOM     10  C   UNL     1      24.537  28.956  28.736  0.00  0.00    +0.171 C 
ATOM     11  O   UNL     1      24.019  28.876  27.412  0.00  0.00    -0.343 OA
ATOM     12  C   UNL     1      24.209  27.788  26.557  0.00  0.00    +0.220 C 
ATOM     13  C   UNL     1      23.851  26.456  27.239  0.00  0.00    +0.076 C 
ATOM     14  C   UNL     1      24.637  26.386  28.559  0.00  0.00    +0.177 C 
ATOM     15  O   UNL     1      24.372  25.153  29.213  0.00  0.00    -0.221 OA
ATOM     16  C   UNL     1      24.269  27.600  29.468  0.00  0.00    +0.155 C 
BRANCH  16  17
ATOM     17  N   UNL     1      25.008  27.534  30.726  0.00  0.00    -0.202 NA
ATOM     18  C   UNL     1      24.547  27.435  31.999  0.00  0.00    +0.242 C 
ATOM     19  C   UNL     1      25.527  27.087  33.090  0.00  0.00    +0.096 C 
ATOM     20  O   UNL     1      23.355  27.626  32.231  0.00  0.00    -0.273 OA
ENDBRANCH  16  17
BRANCH  12  21
ATOM     21  C   UNL     1      25.691  27.738  25.892  0.00  0.00    +0.391 C 
ATOM     22  O   UNL     1      25.760  26.537  25.286  0.00  0.00    -0.243 OA
ATOM     23  O   UNL     1      26.157  28.992  25.935  0.00  0.00    -0.243 OA
ENDBRANCH  12  21
ENDBRANCH   8  10
ENDBRANCH   6   8
ENDBRANCH   5   6
ENDBRANCH   2   5
BRANCH   1  24
ATOM     24  O   UNL     1      20.898  33.059  30.711  0.00  0.00    -0.450 OA
BRANCH  24  25
ATOM     25  C   UNL     1      20.128  32.626  29.615  0.00  0.00    +0.240 C 
BRANCH  25  26
ATOM     26  C   UNL     1      20.642  32.971  28.204  0.00  0.00    +0.100 C 
BRANCH  26  28
ATOM     27  N   UNL     1      19.954  30.643  27.713  0.00  0.00    -0.134 NA
ATOM     28  C   UNL     1      20.644  31.769  27.350  0.00  0.00    +0.086 A 
ATOM     29  C   UNL     1      21.265  31.543  26.142  0.00  0.00    +0.134 A 
ATOM     30  N   UNL     1      20.929  30.258  25.828  0.00  0.00    -0.237 N 
ATOM     31  N   UNL     1      20.133  29.725  26.775  0.00  0.00    -0.065 NA
BRANCH  30  32
ATOM     32  C   UNL     1      21.277  29.471  24.659  0.00  0.00    +0.219 C 
BRANCH  32  33
ATOM     33  C   UNL     1      22.309  30.202  23.816  0.00  0.00    +0.237 C 
ATOM     34  O   UNL     1      23.519  30.176  24.028  0.00  0.00    -0.274 OA
ATOM     35  N   UNL     1      21.828  30.871  22.723  0.00  0.00    -0.328 N 
ATOM     36  H   UNL     1      20.857  30.858  22.437  0.00  0.00    +0.145 HD
ATOM     37  H   UNL     1      22.495  31.359  22.138  0.00  0.00    +0.145 HD
ENDBRANCH  32  33
BRANCH  32  38
ATOM     38  C   UNL     1      20.032  29.145  23.836  0.00  0.00    +0.195 C 
BRANCH  38  39
ATOM     39  O   UNL     1      19.166  30.287  23.811  0.00  0.00    -0.380 OA
ATOM     40  C   UNL     1      17.808  29.915  23.612  0.00  0.00    +0.194 C 
ENDBRANCH  38  39
ENDBRANCH  32  38
ENDBRANCH  30  32
ENDBRANCH  26  28
ENDBRANCH  25  26
ENDBRANCH  24  25
ENDBRANCH   1  24
TORSDOF 14
