REMARK  Name = lig_assembled_49.pdb
REMARK  11 active torsions:
REMARK  status: ('A' for Active; 'I' for Inactive)
REMARK    1  A    between atoms: _2  and  _8
REMARK    2  A    between atoms: _5  and  _6
REMARK    3  A    between atoms: _5  and  _12
REMARK    4  A    between atoms: _12  and  _14
REMARK    5  A    between atoms: _13  and  _18
REMARK    6  A    between atoms: _14  and  _17
REMARK    7  A    between atoms: _22  and  _32
REMARK    8  A    between atoms: _24  and  _25
REMARK    9  A    between atoms: _26  and  _28
REMARK   10  A    between atoms: _28  and  _30
REMARK   11  A    between atoms: _30  and  _32
REMARK                            x       y       z     vdW  Elec       q    Type
REMARK                         _______ _______ _______ _____ _____    ______ ____
ROOT
ATOM      1  C   UNL     1      30.196  34.362  17.992  0.00  0.00    +0.152 C 
ENDROOT
BRANCH   1   3
ATOM      2  C   UNL     1      29.234  36.221  19.743  0.00  0.00    +0.400 C 
ATOM      3  N   UNL     1      30.056  35.378  19.032  0.00  0.00    -0.278 N 
ATOM      4  H   UNL     1      31.020  35.557  19.456  0.00  0.00    +0.152 HD
ATOM      5  O   UNL     1      29.699  36.788  20.729  0.00  0.00    -0.226 OA
BRANCH   2   6
ATOM      6  O   UNL     1      28.037  36.360  19.276  0.00  0.00    -0.450 OA
BRANCH   6   7
ATOM      7  C   UNL     1      27.334  37.170  18.363  0.00  0.00    +0.240 C 
BRANCH   7   8
ATOM      8  C   UNL     1      28.035  37.518  17.036  0.00  0.00    +0.100 C 
BRANCH   8  10
ATOM      9  N   UNL     1      28.323  39.911  17.590  0.00  0.00    -0.134 NA
ATOM     10  C   UNL     1      28.874  38.720  17.197  0.00  0.00    +0.086 A 
ATOM     11  C   UNL     1      30.227  38.889  17.006  0.00  0.00    +0.134 A 
ATOM     12  N   UNL     1      30.436  40.208  17.291  0.00  0.00    -0.248 N 
ATOM     13  N   UNL     1      29.290  40.816  17.643  0.00  0.00    -0.065 NA
BRANCH  12  14
ATOM     14  C   UNL     1      31.679  40.937  17.224  0.00  0.00    +0.109 C 
ATOM     15  C   UNL     1      31.673  42.080  16.207  0.00  0.00    +0.027 C 
ATOM     16  C   UNL     1      32.860  42.924  16.639  0.00  0.00    +0.002 C 
ATOM     17  C   UNL     1      32.800  42.903  18.160  0.00  0.00    +0.002 C 
ATOM     18  C   UNL     1      32.100  41.597  18.545  0.00  0.00    +0.027 C 
ENDBRANCH  12  14
ENDBRANCH   8  10
ENDBRANCH   7   8
ENDBRANCH   6   7
ENDBRANCH   2   6
ENDBRANCH   1   3
BRANCH   1  19
ATOM     19  C   UNL     1      28.991  33.420  17.796  0.00  0.00    +0.193 C 
ATOM     20  O   UNL     1      28.139  34.035  16.804  0.00  0.00    -0.219 OA
BRANCH  19  21
ATOM     21  C   UNL     1      29.272  32.006  17.239  0.00  0.00    +0.212 C 
ATOM     22  O   UNL     1      30.670  31.695  17.343  0.00  0.00    -0.218 OA
BRANCH  21  23
ATOM     23  C   UNL     1      28.449  30.875  17.965  0.00  0.00    +0.171 C 
ATOM     24  O   UNL     1      27.061  30.916  17.646  0.00  0.00    -0.343 OA
ATOM     25  C   UNL     1      26.075  30.197  18.325  0.00  0.00    +0.220 C 
ATOM     26  C   UNL     1      26.171  30.395  19.848  0.00  0.00    +0.076 C 
ATOM     27  C   UNL     1      27.614  30.068  20.267  0.00  0.00    +0.177 C 
ATOM     28  O   UNL     1      27.748  30.197  21.675  0.00  0.00    -0.221 OA
ATOM     29  C   UNL     1      28.616  30.999  19.515  0.00  0.00    +0.155 C 
BRANCH  29  30
ATOM     30  N   UNL     1      29.987  30.696  19.915  0.00  0.00    -0.202 NA
ATOM     31  C   UNL     1      30.768  31.288  20.855  0.00  0.00    +0.242 C 
ATOM     32  C   UNL     1      32.037  30.592  21.273  0.00  0.00    +0.096 C 
ATOM     33  O   UNL     1      30.425  32.365  21.339  0.00  0.00    -0.273 OA
ENDBRANCH  29  30
BRANCH  25  34
ATOM     34  C   UNL     1      26.034  28.622  17.929  0.00  0.00    +0.391 C 
ATOM     35  O   UNL     1      25.220  28.055  18.841  0.00  0.00    -0.243 OA
ATOM     36  O   UNL     1      26.562  28.535  16.702  0.00  0.00    -0.243 OA
ENDBRANCH  25  34
ENDBRANCH  21  23
ENDBRANCH  19  21
ENDBRANCH   1  19
TORSDOF 11
