REMARK  Name = lig_assembled_40.pdb
REMARK  12 active torsions:
REMARK  status: ('A' for Active; 'I' for Inactive)
REMARK    1  A    between atoms: _2  and  _8
REMARK    2  A    between atoms: _5  and  _6
REMARK    3  A    between atoms: _5  and  _14
REMARK    4  A    between atoms: _11  and  _12
REMARK    5  A    between atoms: _14  and  _16
REMARK    6  A    between atoms: _15  and  _20
REMARK    7  A    between atoms: _16  and  _19
REMARK    8  A    between atoms: _24  and  _34
REMARK    9  A    between atoms: _26  and  _27
REMARK   10  A    between atoms: _28  and  _30
REMARK   11  A    between atoms: _30  and  _32
REMARK   12  A    between atoms: _32  and  _34
REMARK                            x       y       z     vdW  Elec       q    Type
REMARK                         _______ _______ _______ _____ _____    ______ ____
ROOT
ATOM      1  C   UNL     1      29.823  29.372  28.574  0.00  0.00    +0.400 C 
ATOM      2  N   UNL     1      30.659  29.716  27.538  0.00  0.00    -0.278 N 
ATOM      3  H   UNL     1      31.528  30.090  28.035  0.00  0.00    +0.152 HD
ATOM      4  O   UNL     1      30.280  29.385  29.715  0.00  0.00    -0.226 OA
ENDROOT
BRANCH   1   5
ATOM      5  O   UNL     1      28.606  29.093  28.243  0.00  0.00    -0.450 OA
BRANCH   5   6
ATOM      6  C   UNL     1      27.445  28.534  28.812  0.00  0.00    +0.240 C 
BRANCH   6   7
ATOM      7  C   UNL     1      27.489  27.043  29.198  0.00  0.00    +0.100 C 
BRANCH   7   9
ATOM      8  N   UNL     1      26.366  24.963  28.464  0.00  0.00    -0.134 NA
ATOM      9  C   UNL     1      26.790  26.230  28.186  0.00  0.00    +0.086 A 
ATOM     10  C   UNL     1      26.440  26.546  26.895  0.00  0.00    +0.139 A 
ATOM     11  N   UNL     1      25.768  25.441  26.426  0.00  0.00    -0.220 N 
ATOM     12  N   UNL     1      25.755  24.486  27.389  0.00  0.00    -0.061 NA
BRANCH  11  13
ATOM     13  C   UNL     1      25.125  25.262  25.173  0.00  0.00    +0.067 A 
ATOM     14  C   UNL     1      24.790  23.981  24.715  0.00  0.00    +0.028 A 
ATOM     15  C   UNL     1      24.222  23.815  23.448  0.00  0.00    +0.005 A 
ATOM     16  C   UNL     1      23.980  24.920  22.625  0.00  0.00    -0.050 A 
ATOM     17  C   UNL     1      24.281  26.202  23.100  0.00  0.00    +0.005 A 
ATOM     18  C   UNL     1      23.414  24.742  21.247  0.00  0.00    +0.044 C 
ATOM     19  C   UNL     1      24.851  26.375  24.366  0.00  0.00    +0.028 A 
ENDBRANCH  11  13
ENDBRANCH   7   9
ENDBRANCH   6   7
ENDBRANCH   5   6
ENDBRANCH   1   5
BRANCH   2  20
ATOM     20  C   UNL     1      30.891  29.785  26.098  0.00  0.00    +0.152 C 
BRANCH  20  21
ATOM     21  C   UNL     1      31.194  31.185  25.525  0.00  0.00    +0.193 C 
ATOM     22  O   UNL     1      32.608  31.416  25.716  0.00  0.00    -0.219 OA
BRANCH  21  23
ATOM     23  C   UNL     1      30.970  31.402  24.012  0.00  0.00    +0.212 C 
ATOM     24  O   UNL     1      31.576  32.634  23.586  0.00  0.00    -0.218 OA
BRANCH  23  25
ATOM     25  C   UNL     1      31.535  30.230  23.122  0.00  0.00    +0.171 C 
ATOM     26  O   UNL     1      30.950  28.971  23.440  0.00  0.00    -0.343 OA
ATOM     27  C   UNL     1      31.432  27.741  22.985  0.00  0.00    +0.220 C 
ATOM     28  C   UNL     1      32.941  27.589  23.242  0.00  0.00    +0.076 C 
ATOM     29  C   UNL     1      33.639  28.820  22.640  0.00  0.00    +0.177 C 
ATOM     30  O   UNL     1      35.044  28.710  22.816  0.00  0.00    -0.221 OA
ATOM     31  C   UNL     1      33.086  30.124  23.294  0.00  0.00    +0.155 C 
BRANCH  31  32
ATOM     32  N   UNL     1      33.752  31.296  22.730  0.00  0.00    -0.202 NA
ATOM     33  C   UNL     1      34.864  31.949  23.152  0.00  0.00    +0.242 C 
ATOM     34  C   UNL     1      35.505  32.946  22.222  0.00  0.00    +0.096 C 
ATOM     35  O   UNL     1      35.319  31.714  24.270  0.00  0.00    -0.273 OA
ENDBRANCH  31  32
BRANCH  27  36
ATOM     36  C   UNL     1      31.056  27.432  21.435  0.00  0.00    +0.391 C 
ATOM     37  O   UNL     1      32.108  26.742  20.953  0.00  0.00    -0.243 OA
ATOM     38  O   UNL     1      29.751  27.704  21.309  0.00  0.00    -0.243 OA
ENDBRANCH  27  36
ENDBRANCH  23  25
ENDBRANCH  21  23
ENDBRANCH  20  21
ENDBRANCH   2  20
TORSDOF 11
