REMARK  Name = lig_assembled_64.pdb
REMARK  14 active torsions:
REMARK  status: ('A' for Active; 'I' for Inactive)
REMARK    1  A    between atoms: _2  and  _9
REMARK    2  A    between atoms: _6  and  _7
REMARK    3  A    between atoms: _6  and  _22
REMARK    4  A    between atoms: _11  and  _12
REMARK    5  A    between atoms: _12  and  _20
REMARK    6  A    between atoms: _13  and  _14
REMARK    7  A    between atoms: _22  and  _24
REMARK    8  A    between atoms: _23  and  _28
REMARK    9  A    between atoms: _24  and  _27
REMARK   10  A    between atoms: _32  and  _42
REMARK   11  A    between atoms: _34  and  _35
REMARK   12  A    between atoms: _36  and  _38
REMARK   13  A    between atoms: _38  and  _40
REMARK   14  A    between atoms: _40  and  _42
REMARK                            x       y       z     vdW  Elec       q    Type
REMARK                         _______ _______ _______ _____ _____    ______ ____
ROOT
ATOM      1  O   UNL     1      27.720  30.613  23.085  0.00  0.00    -0.450 OA
ENDROOT
BRANCH   1   2
ATOM      2  C   UNL     1      28.763  31.375  23.137  0.00  0.00    +0.400 C 
ATOM      3  N   UNL     1      29.638  31.117  24.166  0.00  0.00    -0.278 N 
ATOM      4  H   UNL     1      30.495  31.704  23.914  0.00  0.00    +0.152 HD
ATOM      5  O   UNL     1      29.046  32.270  22.345  0.00  0.00    -0.226 OA
BRANCH   3   6
ATOM      6  C   UNL     1      29.910  30.430  25.425  0.00  0.00    +0.152 C 
BRANCH   6   7
ATOM      7  C   UNL     1      31.124  30.939  26.229  0.00  0.00    +0.193 C 
ATOM      8  O   UNL     1      30.882  30.592  27.611  0.00  0.00    -0.219 OA
BRANCH   7   9
ATOM      9  C   UNL     1      32.502  30.319  25.912  0.00  0.00    +0.212 C 
ATOM     10  O   UNL     1      32.410  28.886  25.867  0.00  0.00    -0.218 OA
BRANCH   9  11
ATOM     11  C   UNL     1      33.118  30.827  24.553  0.00  0.00    +0.171 C 
ATOM     12  O   UNL     1      32.538  32.051  24.113  0.00  0.00    -0.343 OA
ATOM     13  C   UNL     1      32.717  32.594  22.838  0.00  0.00    +0.220 C 
ATOM     14  C   UNL     1      32.432  31.562  21.733  0.00  0.00    +0.076 C 
ATOM     15  C   UNL     1      33.284  30.318  22.031  0.00  0.00    +0.177 C 
ATOM     16  O   UNL     1      33.088  29.345  21.015  0.00  0.00    -0.221 OA
ATOM     17  C   UNL     1      32.927  29.747  23.439  0.00  0.00    +0.155 C 
BRANCH  17  18
ATOM     18  N   UNL     1      33.729  28.560  23.723  0.00  0.00    -0.202 NA
ATOM     19  C   UNL     1      33.482  27.256  23.437  0.00  0.00    +0.242 C 
ATOM     20  C   UNL     1      34.610  26.267  23.578  0.00  0.00    +0.096 C 
ATOM     21  O   UNL     1      32.358  26.917  23.073  0.00  0.00    -0.273 OA
ENDBRANCH  17  18
BRANCH  13  22
ATOM     22  C   UNL     1      34.164  33.303  22.634  0.00  0.00    +0.391 C 
ATOM     23  O   UNL     1      34.267  33.507  21.307  0.00  0.00    -0.243 OA
ATOM     24  O   UNL     1      34.564  33.685  23.854  0.00  0.00    -0.243 OA
ENDBRANCH  13  22
ENDBRANCH   9  11
ENDBRANCH   7   9
ENDBRANCH   6   7
ENDBRANCH   3   6
ENDBRANCH   1   2
BRANCH   1  25
ATOM     25  C   UNL     1      26.524  30.388  23.795  0.00  0.00    +0.240 C 
BRANCH  25  26
ATOM     26  C   UNL     1      25.804  31.617  24.381  0.00  0.00    +0.100 C 
BRANCH  26  28
ATOM     27  N   UNL     1      25.166  33.815  23.423  0.00  0.00    -0.134 NA
ATOM     28  C   UNL     1      25.256  32.459  23.300  0.00  0.00    +0.086 A 
ATOM     29  C   UNL     1      24.771  32.088  22.068  0.00  0.00    +0.139 A 
ATOM     30  N   UNL     1      24.384  33.264  21.468  0.00  0.00    -0.220 N 
ATOM     31  N   UNL     1      24.637  34.299  22.305  0.00  0.00    -0.061 NA
BRANCH  30  32
ATOM     32  C   UNL     1      23.811  33.452  20.188  0.00  0.00    +0.071 A 
ATOM     33  C   UNL     1      22.880  34.464  19.978  0.00  0.00    +0.063 A 
ATOM     34  CA  UNL     1      22.358  34.595  18.706  0.00  0.00    +0.150 A 
ATOM     35  N   UNL     1      22.684  33.803  17.644  0.00  0.00    -0.240 NA
ATOM     36  C   UNL     1      23.587  32.808  17.862  0.00  0.00    +0.074 A 
ATOM     37  C   UNL     1      24.173  32.619  19.118  0.00  0.00    +0.056 A 
BRANCH  36  38
ATOM     38  C   UNL     1      23.874  31.939  16.695  0.00  0.00    +0.000 A 
ATOM     39  C   UNL     1      25.103  31.266  16.548  0.00  0.00    +0.010 A 
ATOM     40  C   UNL     1      25.350  30.419  15.461  0.00  0.00    +0.001 A 
ATOM     41  C   UNL     1      24.371  30.222  14.492  0.00  0.00    +0.000 A 
ATOM     42  C   UNL     1      23.151  30.878  14.606  0.00  0.00    +0.001 A 
ATOM     43  C   UNL     1      22.908  31.726  15.693  0.00  0.00    +0.010 A 
ENDBRANCH  36  38
BRANCH  34  44
ATOM     44  C   UNL     1      21.355  35.665  18.434  0.00  0.00    +0.355 C 
ATOM     45  OXT UNL     1      20.682  36.213  19.289  0.00  0.00    -0.243 OA
BRANCH  44  46
ATOM     46  O   UNL     1      21.295  35.940  17.111  0.00  0.00    -0.476 OA
ATOM     47  H   UNL     1      21.927  35.355  16.634  0.00  0.00    +0.295 HD
ENDBRANCH  44  46
ENDBRANCH  34  44
ENDBRANCH  30  32
ENDBRANCH  26  28
ENDBRANCH  25  26
ENDBRANCH   1  25
TORSDOF 14
