REMARK  Name = lig_assembled_56.pdb
REMARK  11 active torsions:
REMARK  status: ('A' for Active; 'I' for Inactive)
REMARK    1  A    between atoms: _2  and  _9
REMARK    2  A    between atoms: _6  and  _7
REMARK    3  A    between atoms: _6  and  _13
REMARK    4  A    between atoms: _13  and  _15
REMARK    5  A    between atoms: _14  and  _19
REMARK    6  A    between atoms: _15  and  _18
REMARK    7  A    between atoms: _23  and  _33
REMARK    8  A    between atoms: _25  and  _26
REMARK    9  A    between atoms: _27  and  _29
REMARK   10  A    between atoms: _29  and  _31
REMARK   11  A    between atoms: _31  and  _33
REMARK                            x       y       z     vdW  Elec       q    Type
REMARK                         _______ _______ _______ _____ _____    ______ ____
ROOT
ATOM      1  C   UNL     1      31.802  26.343  26.910  0.00  0.00    +0.152 C 
ENDROOT
BRANCH   1   3
ATOM      2  C   UNL     1      29.454  25.753  28.167  0.00  0.00    +0.400 C 
ATOM      3  N   UNL     1      30.432  25.945  27.220  0.00  0.00    -0.278 N 
ATOM      4  H   UNL     1      29.943  25.691  26.304  0.00  0.00    +0.152 HD
ATOM      5  O   UNL     1      28.306  25.545  27.781  0.00  0.00    -0.226 OA
BRANCH   2   6
ATOM      6  O   UNL     1      29.852  25.782  29.396  0.00  0.00    -0.450 OA
BRANCH   6   7
ATOM      7  C   UNL     1      30.572  26.622  30.267  0.00  0.00    +0.240 C 
BRANCH   7   8
ATOM      8  C   UNL     1      30.398  28.143  30.094  0.00  0.00    +0.100 C 
BRANCH   8  10
ATOM      9  N   UNL     1      28.233  29.156  29.457  0.00  0.00    -0.134 NA
ATOM     10  C   UNL     1      29.008  28.537  30.393  0.00  0.00    +0.086 A 
ATOM     11  C   UNL     1      28.277  28.377  31.549  0.00  0.00    +0.139 A 
ATOM     12  N   UNL     1      27.040  28.906  31.262  0.00  0.00    -0.220 N 
ATOM     13  N   UNL     1      27.040  29.381  29.992  0.00  0.00    -0.061 NA
BRANCH  12  14
ATOM     14  C   UNL     1      25.891  28.976  32.087  0.00  0.00    +0.070 A 
ATOM     15  C   UNL     1      24.637  28.588  31.610  0.00  0.00    +0.047 A 
ATOM     16  C   UNL     1      23.553  28.698  32.467  0.00  0.00    +0.113 A 
ATOM     17  N   UNL     1      23.638  29.155  33.733  0.00  0.00    -0.263 NA
ATOM     18  C   UNL     1      24.862  29.520  34.170  0.00  0.00    +0.113 A 
ATOM     19  C   UNL     1      26.008  29.451  33.398  0.00  0.00    +0.047 A 
ENDBRANCH  12  14
ENDBRANCH   8  10
ENDBRANCH   7   8
ENDBRANCH   6   7
ENDBRANCH   2   6
ENDBRANCH   1   3
BRANCH   1  20
ATOM     20  C   UNL     1      32.347  25.894  25.538  0.00  0.00    +0.193 C 
ATOM     21  O   UNL     1      31.336  26.226  24.561  0.00  0.00    -0.219 OA
BRANCH  20  22
ATOM     22  C   UNL     1      33.628  26.582  25.017  0.00  0.00    +0.212 C 
ATOM     23  O   UNL     1      33.611  26.652  23.582  0.00  0.00    -0.218 OA
BRANCH  22  24
ATOM     24  C   UNL     1      33.832  28.037  25.590  0.00  0.00    +0.171 C 
ATOM     25  O   UNL     1      33.739  28.084  27.010  0.00  0.00    -0.343 OA
ATOM     26  C   UNL     1      33.639  29.262  27.754  0.00  0.00    +0.220 C 
ATOM     27  C   UNL     1      32.525  30.180  27.221  0.00  0.00    +0.076 C 
ATOM     28  C   UNL     1      32.774  30.384  25.717  0.00  0.00    +0.177 C 
ATOM     29  O   UNL     1      31.792  31.260  25.181  0.00  0.00    -0.221 OA
ATOM     30  C   UNL     1      32.769  29.008  24.980  0.00  0.00    +0.155 C 
BRANCH  30  31
ATOM     31  N   UNL     1      32.998  29.198  23.550  0.00  0.00    -0.202 NA
ATOM     32  C   UNL     1      32.104  29.295  22.534  0.00  0.00    +0.242 C 
ATOM     33  C   UNL     1      32.593  29.784  21.195  0.00  0.00    +0.096 C 
ATOM     34  O   UNL     1      30.930  28.986  22.726  0.00  0.00    -0.273 OA
ENDBRANCH  30  31
BRANCH  26  35
ATOM     35  C   UNL     1      35.048  30.056  27.902  0.00  0.00    +0.391 C 
ATOM     36  O   UNL     1      34.708  31.291  28.322  0.00  0.00    -0.243 OA
ATOM     37  O   UNL     1      36.006  29.123  27.849  0.00  0.00    -0.243 OA
ENDBRANCH  26  35
ENDBRANCH  22  24
ENDBRANCH  20  22
ENDBRANCH   1  20
TORSDOF 11
