REMARK  Name = lig_assembled_82.pdb
REMARK  14 active torsions:
REMARK  status: ('A' for Active; 'I' for Inactive)
REMARK    1  A    between atoms: _2  and  _8
REMARK    2  A    between atoms: _4  and  _15
REMARK    3  A    between atoms: _5  and  _6
REMARK    4  A    between atoms: _5  and  _17
REMARK    5  A    between atoms: _8  and  _9
REMARK    6  A    between atoms: _15  and  _16
REMARK    7  A    between atoms: _17  and  _19
REMARK    8  A    between atoms: _18  and  _23
REMARK    9  A    between atoms: _19  and  _22
REMARK   10  A    between atoms: _27  and  _37
REMARK   11  A    between atoms: _29  and  _30
REMARK   12  A    between atoms: _31  and  _33
REMARK   13  A    between atoms: _33  and  _35
REMARK   14  A    between atoms: _35  and  _37
REMARK                            x       y       z     vdW  Elec       q    Type
REMARK                         _______ _______ _______ _____ _____    ______ ____
ROOT
ATOM      1  C   UNL     1      28.558  35.749  18.758  0.00  0.00    +0.400 C 
ATOM      2  N   UNL     1      29.339  34.736  18.254  0.00  0.00    -0.278 N 
ATOM      3  H   UNL     1      30.333  35.112  18.365  0.00  0.00    +0.152 HD
ATOM      4  O   UNL     1      29.115  36.678  19.337  0.00  0.00    -0.226 OA
ENDROOT
BRANCH   2   5
ATOM      5  C   UNL     1      29.419  33.402  17.664  0.00  0.00    +0.152 C 
BRANCH   5   6
ATOM      6  C   UNL     1      28.452  32.346  18.239  0.00  0.00    +0.193 C 
ATOM      7  O   UNL     1      27.307  32.309  17.358  0.00  0.00    -0.219 OA
BRANCH   6   8
ATOM      8  C   UNL     1      28.944  30.883  18.294  0.00  0.00    +0.212 C 
ATOM      9  O   UNL     1      30.374  30.829  18.169  0.00  0.00    -0.218 OA
BRANCH   8  10
ATOM     10  C   UNL     1      28.525  30.133  19.616  0.00  0.00    +0.171 C 
ATOM     11  O   UNL     1      27.151  29.758  19.621  0.00  0.00    -0.343 OA
ATOM     12  C   UNL     1      26.462  29.306  20.749  0.00  0.00    +0.220 C 
ATOM     13  C   UNL     1      26.653  30.248  21.950  0.00  0.00    +0.076 C 
ATOM     14  C   UNL     1      28.166  30.441  22.150  0.00  0.00    +0.177 C 
ATOM     15  O   UNL     1      28.400  31.274  23.277  0.00  0.00    -0.221 OA
ATOM     16  C   UNL     1      28.806  31.039  20.860  0.00  0.00    +0.155 C 
BRANCH  16  17
ATOM     17  N   UNL     1      30.242  31.230  21.048  0.00  0.00    -0.202 NA
ATOM     18  C   UNL     1      30.950  32.376  21.222  0.00  0.00    +0.242 C 
ATOM     19  C   UNL     1      32.378  32.270  21.688  0.00  0.00    +0.096 C 
ATOM     20  O   UNL     1      30.415  33.460  21.000  0.00  0.00    -0.273 OA
ENDBRANCH  16  17
BRANCH  12  21
ATOM     21  C   UNL     1      26.798  27.765  21.139  0.00  0.00    +0.391 C 
ATOM     22  O   UNL     1      26.217  27.576  22.339  0.00  0.00    -0.243 OA
ATOM     23  O   UNL     1      27.250  27.191  20.017  0.00  0.00    -0.243 OA
ENDBRANCH  12  21
ENDBRANCH   8  10
ENDBRANCH   6   8
ENDBRANCH   5   6
ENDBRANCH   2   5
BRANCH   1  24
ATOM     24  O   UNL     1      27.288  35.639  18.540  0.00  0.00    -0.450 OA
BRANCH  24  25
ATOM     25  C   UNL     1      26.347  35.934  17.534  0.00  0.00    +0.240 C 
BRANCH  25  26
ATOM     26  C   UNL     1      26.864  36.045  16.087  0.00  0.00    +0.100 C 
BRANCH  26  28
ATOM     27  N   UNL     1      26.906  34.144  14.505  0.00  0.00    -0.134 NA
ATOM     28  C   UNL     1      26.191  35.079  15.215  0.00  0.00    +0.086 A 
ATOM     29  C   UNL     1      24.848  34.911  14.930  0.00  0.00    +0.134 A 
ATOM     30  N   UNL     1      24.830  33.957  13.951  0.00  0.00    -0.247 N 
ATOM     31  N   UNL     1      26.060  33.440  13.767  0.00  0.00    -0.065 NA
BRANCH  30  32
ATOM     32  C   UNL     1      23.715  33.552  13.092  0.00  0.00    +0.176 C 
BRANCH  32  33
ATOM     33  C   UNL     1      23.200  34.685  12.239  0.00  0.00    -0.049 C 
ATOM     34  C   UNL     1      24.162  35.345  11.303  0.00  0.00    +0.023 C 
ATOM     35  C   UNL     1      23.621  35.844   9.887  0.00  0.00    -0.025 C 
ATOM     36  C   UNL     1      22.537  35.275   8.963  0.00  0.00    +0.012 C 
ATOM     37  C   UNL     1      22.995  37.010  10.784  0.00  0.00    -0.000 C 
ATOM     38  C   UNL     1      21.736  36.594  11.607  0.00  0.00    +0.031 C 
ATOM     39  C   UNL     1      24.901  35.957   9.021  0.00  0.00    +0.012 C 
ATOM     40  C   UNL     1      24.267  36.881  11.663  0.00  0.00    +0.012 C 
ATOM     41  C   UNL     1      22.004  35.295  12.350  0.00  0.00    -0.025 C 
ENDBRANCH  32  33
ENDBRANCH  30  32
ENDBRANCH  26  28
ENDBRANCH  25  26
ENDBRANCH  24  25
ENDBRANCH   1  24
TORSDOF 12
