REMARK  Name = lig_assembled_42.pdb
REMARK  11 active torsions:
REMARK  status: ('A' for Active; 'I' for Inactive)
REMARK    1  A    between atoms: _2  and  _8
REMARK    2  A    between atoms: _5  and  _6
REMARK    3  A    between atoms: _5  and  _16
REMARK    4  A    between atoms: _16  and  _18
REMARK    5  A    between atoms: _17  and  _22
REMARK    6  A    between atoms: _18  and  _21
REMARK    7  A    between atoms: _26  and  _36
REMARK    8  A    between atoms: _28  and  _29
REMARK    9  A    between atoms: _30  and  _32
REMARK   10  A    between atoms: _32  and  _34
REMARK   11  A    between atoms: _34  and  _36
REMARK                            x       y       z     vdW  Elec       q    Type
REMARK                         _______ _______ _______ _____ _____    ______ ____
ROOT
ATOM      1  C   UNL     1      30.129  30.796  24.574  0.00  0.00    +0.400 C 
ATOM      2  N   UNL     1      29.646  30.405  23.347  0.00  0.00    -0.278 N 
ATOM      3  H   UNL     1      28.763  30.995  23.230  0.00  0.00    +0.152 HD
ATOM      4  O   UNL     1      29.608  31.766  25.119  0.00  0.00    -0.226 OA
ENDROOT
BRANCH   1   5
ATOM      5  O   UNL     1      31.082  30.069  25.057  0.00  0.00    -0.450 OA
BRANCH   5   6
ATOM      6  C   UNL     1      32.346  29.575  24.678  0.00  0.00    +0.240 C 
BRANCH   6   7
ATOM      7  C   UNL     1      33.262  29.036  25.793  0.00  0.00    +0.100 C 
BRANCH   7   9
ATOM      8  N   UNL     1      34.752  28.399  23.914  0.00  0.00    -0.134 NA
ATOM      9  C   UNL     1      34.575  28.652  25.244  0.00  0.00    +0.086 A 
ATOM     10  C   UNL     1      35.774  28.484  25.894  0.00  0.00    +0.139 A 
ATOM     11  N   UNL     1      36.667  28.126  24.913  0.00  0.00    -0.220 N 
ATOM     12  N   UNL     1      36.026  28.081  23.719  0.00  0.00    -0.061 NA
BRANCH  11  13
ATOM     13  C   UNL     1      38.049  27.831  25.048  0.00  0.00    +0.071 A 
ATOM     14  C   UNL     1      39.009  28.720  24.542  0.00  0.00    +0.077 A 
ATOM     15  C   UNL     1      40.338  28.389  24.698  0.00  0.00    +0.168 A 
ATOM     16  O   UNL     1      41.387  29.139  24.271  0.00  0.00    -0.453 OA
ATOM     17  C   UNL     1      42.494  28.324  24.704  0.00  0.00    +0.466 C 
ATOM     18  O   UNL     1      42.087  27.109  25.368  0.00  0.00    -0.453 OA
ATOM     19  C   UNL     1      40.733  27.232  25.324  0.00  0.00    +0.166 A 
ATOM     20  C   UNL     1      39.818  26.335  25.831  0.00  0.00    +0.051 A 
ATOM     21  C   UNL     1      38.457  26.639  25.692  0.00  0.00    +0.031 A 
ENDBRANCH  11  13
ENDBRANCH   7   9
ENDBRANCH   6   7
ENDBRANCH   5   6
ENDBRANCH   1   5
BRANCH   2  22
ATOM     22  C   UNL     1      29.803  29.577  22.155  0.00  0.00    +0.152 C 
BRANCH  22  23
ATOM     23  C   UNL     1      30.021  30.331  20.827  0.00  0.00    +0.193 C 
ATOM     24  O   UNL     1      31.444  30.326  20.575  0.00  0.00    -0.219 OA
BRANCH  23  25
ATOM     25  C   UNL     1      29.402  29.723  19.549  0.00  0.00    +0.212 C 
ATOM     26  O   UNL     1      28.278  28.892  19.882  0.00  0.00    -0.218 OA
BRANCH  25  27
ATOM     27  C   UNL     1      28.935  30.807  18.505  0.00  0.00    +0.171 C 
ATOM     28  O   UNL     1      29.994  31.248  17.662  0.00  0.00    -0.343 OA
ATOM     29  C   UNL     1      29.922  32.363  16.823  0.00  0.00    +0.220 C 
ATOM     30  C   UNL     1      29.424  33.610  17.573  0.00  0.00    +0.076 C 
ATOM     31  C   UNL     1      28.104  33.236  18.267  0.00  0.00    +0.177 C 
ATOM     32  O   UNL     1      27.578  34.368  18.944  0.00  0.00    -0.221 OA
ATOM     33  C   UNL     1      28.331  32.044  19.248  0.00  0.00    +0.155 C 
BRANCH  33  34
ATOM     34  N   UNL     1      27.081  31.690  19.914  0.00  0.00    -0.202 NA
ATOM     35  C   UNL     1      26.685  31.916  21.193  0.00  0.00    +0.242 C 
ATOM     36  C   UNL     1      25.233  31.710  21.539  0.00  0.00    +0.096 C 
ATOM     37  O   UNL     1      27.509  32.280  22.029  0.00  0.00    -0.273 OA
ENDBRANCH  33  34
BRANCH  29  38
ATOM     38  C   UNL     1      29.065  32.098  15.468  0.00  0.00    +0.391 C 
ATOM     39  O   UNL     1      28.882  33.319  14.929  0.00  0.00    -0.243 OA
ATOM     40  O   UNL     1      29.125  30.780  15.244  0.00  0.00    -0.243 OA
ENDBRANCH  29  38
ENDBRANCH  25  27
ENDBRANCH  23  25
ENDBRANCH  22  23
ENDBRANCH   2  22
TORSDOF 11
