REMARK  Name = lig_assembled_38.pdb
REMARK  12 active torsions:
REMARK  status: ('A' for Active; 'I' for Inactive)
REMARK    1  A    between atoms: _2  and  _8
REMARK    2  A    between atoms: _5  and  _6
REMARK    3  A    between atoms: _5  and  _14
REMARK    4  A    between atoms: _8  and  _9
REMARK    5  A    between atoms: _14  and  _16
REMARK    6  A    between atoms: _15  and  _20
REMARK    7  A    between atoms: _16  and  _19
REMARK    8  A    between atoms: _24  and  _34
REMARK    9  A    between atoms: _26  and  _27
REMARK   10  A    between atoms: _28  and  _30
REMARK   11  A    between atoms: _30  and  _32
REMARK   12  A    between atoms: _32  and  _34
REMARK                            x       y       z     vdW  Elec       q    Type
REMARK                         _______ _______ _______ _____ _____    ______ ____
ROOT
ATOM      1  C   UNL     1      29.728  36.632  19.168  0.00  0.00    +0.400 C 
ATOM      2  N   UNL     1      31.083  36.404  19.226  0.00  0.00    -0.278 N 
ATOM      3  H   UNL     1      31.161  35.345  19.108  0.00  0.00    +0.152 HD
ATOM      4  O   UNL     1      28.998  35.701  18.837  0.00  0.00    -0.226 OA
ENDROOT
BRANCH   2   5
ATOM      5  C   UNL     1      32.431  36.950  19.358  0.00  0.00    +0.152 C 
BRANCH   5   6
ATOM      6  C   UNL     1      33.586  35.929  19.296  0.00  0.00    +0.193 C 
ATOM      7  O   UNL     1      33.843  35.678  17.897  0.00  0.00    -0.219 OA
BRANCH   6   8
ATOM      8  C   UNL     1      34.954  36.362  19.868  0.00  0.00    +0.212 C 
ATOM      9  O   UNL     1      34.849  37.646  20.505  0.00  0.00    -0.218 OA
BRANCH   8  10
ATOM     10  C   UNL     1      35.552  35.334  20.902  0.00  0.00    +0.171 C 
ATOM     11  O   UNL     1      36.345  34.328  20.279  0.00  0.00    -0.343 OA
ATOM     12  C   UNL     1      36.788  33.167  20.917  0.00  0.00    +0.220 C 
ATOM     13  C   UNL     1      35.638  32.430  21.624  0.00  0.00    +0.076 C 
ATOM     14  C   UNL     1      34.933  33.443  22.541  0.00  0.00    +0.177 C 
ATOM     15  O   UNL     1      33.883  32.801  23.251  0.00  0.00    -0.221 OA
ATOM     16  C   UNL     1      34.399  34.645  21.703  0.00  0.00    +0.155 C 
BRANCH  16  17
ATOM     17  N   UNL     1      33.723  35.607  22.570  0.00  0.00    -0.202 NA
ATOM     18  C   UNL     1      32.400  35.757  22.834  0.00  0.00    +0.242 C 
ATOM     19  C   UNL     1      31.996  36.634  23.991  0.00  0.00    +0.096 C 
ATOM     20  O   UNL     1      31.571  35.179  22.133  0.00  0.00    -0.273 OA
ENDBRANCH  16  17
BRANCH  12  21
ATOM     21  C   UNL     1      38.042  33.418  21.919  0.00  0.00    +0.391 C 
ATOM     22  O   UNL     1      38.059  32.343  22.731  0.00  0.00    -0.243 OA
ATOM     23  O   UNL     1      38.751  34.418  21.381  0.00  0.00    -0.243 OA
ENDBRANCH  12  21
ENDBRANCH   8  10
ENDBRANCH   6   8
ENDBRANCH   5   6
ENDBRANCH   2   5
BRANCH   1  24
ATOM     24  O   UNL     1      29.345  37.819  19.506  0.00  0.00    -0.450 OA
BRANCH  24  25
ATOM     25  C   UNL     1      28.977  38.535  20.662  0.00  0.00    +0.240 C 
BRANCH  25  26
ATOM     26  C   UNL     1      29.140  37.825  22.019  0.00  0.00    +0.100 C 
BRANCH  26  28
ATOM     27  N   UNL     1      29.168  40.098  23.004  0.00  0.00    -0.134 NA
ATOM     28  C   UNL     1      28.874  38.766  23.127  0.00  0.00    +0.086 A 
ATOM     29  C   UNL     1      28.305  38.540  24.359  0.00  0.00    +0.134 A 
ATOM     30  N   UNL     1      28.227  39.784  24.919  0.00  0.00    -0.247 N 
ATOM     31  N   UNL     1      28.760  40.714  24.105  0.00  0.00    -0.065 NA
BRANCH  30  32
ATOM     32  C   UNL     1      27.464  40.182  26.088  0.00  0.00    +0.180 C 
BRANCH  32  33
ATOM     33  C   UNL     1      27.878  39.466  27.349  0.00  0.00    -0.025 A 
ATOM     34  C   UNL     1      29.116  39.726  27.954  0.00  0.00    +0.005 A 
ATOM     35  C   UNL     1      29.455  39.127  29.170  0.00  0.00    +0.001 A 
ATOM     36  C   UNL     1      28.562  38.259  29.796  0.00  0.00    +0.015 A 
ATOM     37  C   UNL     1      27.335  37.986  29.198  0.00  0.00    +0.018 A 
ATOM     38 BR   UNL     1      26.115  36.817  30.048  0.00  0.00    -0.050 Br
ATOM     39  C   UNL     1      26.988  38.582  27.984  0.00  0.00    +0.020 A 
ENDBRANCH  32  33
ENDBRANCH  30  32
ENDBRANCH  26  28
ENDBRANCH  25  26
ENDBRANCH  24  25
ENDBRANCH   1  24
TORSDOF 12
