REMARK  Name = lig_assembled_5.pdb
REMARK  13 active torsions:
REMARK  status: ('A' for Active; 'I' for Inactive)
REMARK    1  A    between atoms: _2  and  _8
REMARK    2  A    between atoms: _5  and  _6
REMARK    3  A    between atoms: _5  and  _15
REMARK    4  A    between atoms: _11  and  _14
REMARK    5  A    between atoms: _12  and  _14
REMARK    6  A    between atoms: _15  and  _17
REMARK    7  A    between atoms: _16  and  _21
REMARK    8  A    between atoms: _17  and  _20
REMARK    9  A    between atoms: _25  and  _35
REMARK   10  A    between atoms: _27  and  _28
REMARK   11  A    between atoms: _29  and  _31
REMARK   12  A    between atoms: _31  and  _33
REMARK   13  A    between atoms: _33  and  _35
REMARK                            x       y       z     vdW  Elec       q    Type
REMARK                         _______ _______ _______ _____ _____    ______ ____
ROOT
ATOM      1  C   UNL     1      29.848  31.101  23.213  0.00  0.00    +0.400 C 
ATOM      2  N   UNL     1      30.747  31.842  23.943  0.00  0.00    -0.278 N 
ATOM      3  H   UNL     1      30.475  32.851  23.719  0.00  0.00    +0.152 HD
ATOM      4  O   UNL     1      28.913  31.689  22.676  0.00  0.00    -0.226 OA
ENDROOT
BRANCH   2   5
ATOM      5  C   UNL     1      31.870  31.868  24.877  0.00  0.00    +0.152 C 
BRANCH   5   6
ATOM      6  C   UNL     1      32.537  33.241  25.099  0.00  0.00    +0.193 C 
ATOM      7  O   UNL     1      31.944  33.803  26.291  0.00  0.00    -0.219 OA
BRANCH   6   8
ATOM      8  C   UNL     1      34.056  33.261  25.378  0.00  0.00    +0.212 C 
ATOM      9  O   UNL     1      34.524  31.942  25.704  0.00  0.00    -0.218 OA
BRANCH   8  10
ATOM     10  C   UNL     1      34.906  33.812  24.170  0.00  0.00    +0.171 C 
ATOM     11  O   UNL     1      34.198  34.778  23.399  0.00  0.00    -0.343 OA
ATOM     12  C   UNL     1      34.612  35.244  22.149  0.00  0.00    +0.220 C 
ATOM     13  C   UNL     1      34.942  34.088  21.189  0.00  0.00    +0.076 C 
ATOM     14  C   UNL     1      35.948  33.169  21.902  0.00  0.00    +0.177 C 
ATOM     15  O   UNL     1      36.319  32.101  21.041  0.00  0.00    -0.221 OA
ATOM     16  C   UNL     1      35.337  32.635  23.235  0.00  0.00    +0.155 C 
BRANCH  16  17
ATOM     17  N   UNL     1      36.287  31.756  23.912  0.00  0.00    -0.202 NA
ATOM     18  C   UNL     1      36.500  30.425  23.755  0.00  0.00    +0.242 C 
ATOM     19  C   UNL     1      37.740  29.822  24.364  0.00  0.00    +0.096 C 
ATOM     20  O   UNL     1      35.689  29.749  23.126  0.00  0.00    -0.273 OA
ENDBRANCH  16  17
BRANCH  12  21
ATOM     21  C   UNL     1      35.827  36.320  22.229  0.00  0.00    +0.391 C 
ATOM     22  O   UNL     1      36.298  36.406  20.969  0.00  0.00    -0.243 OA
ATOM     23  O   UNL     1      35.707  36.926  23.416  0.00  0.00    -0.243 OA
ENDBRANCH  12  21
ENDBRANCH   8  10
ENDBRANCH   6   8
ENDBRANCH   5   6
ENDBRANCH   2   5
BRANCH   1  24
ATOM     24  O   UNL     1      30.099  29.835  23.135  0.00  0.00    -0.450 OA
BRANCH  24  25
ATOM     25  C   UNL     1      31.158  28.975  22.785  0.00  0.00    +0.240 C 
BRANCH  25  26
ATOM     26  C   UNL     1      30.820  27.492  22.543  0.00  0.00    +0.100 C 
BRANCH  26  28
ATOM     27  N   UNL     1      29.601  27.447  20.390  0.00  0.00    -0.134 NA
ATOM     28  C   UNL     1      29.581  27.372  21.752  0.00  0.00    +0.086 A 
ATOM     29  C   UNL     1      28.286  27.174  22.172  0.00  0.00    +0.139 A 
ATOM     30  N   UNL     1      27.543  27.104  21.014  0.00  0.00    -0.220 N 
ATOM     31  N   UNL     1      28.360  27.292  19.948  0.00  0.00    -0.061 NA
BRANCH  30  32
ATOM     32  C   UNL     1      26.154  26.851  20.864  0.00  0.00    +0.067 A 
ATOM     33  C   UNL     1      25.528  25.833  21.592  0.00  0.00    +0.031 A 
ATOM     34  C   UNL     1      24.174  25.559  21.384  0.00  0.00    +0.048 A 
ATOM     35  C   UNL     1      23.425  26.303  20.471  0.00  0.00    +0.120 A 
ATOM     36  C   UNL     1      24.041  27.330  19.758  0.00  0.00    +0.048 A 
ATOM     37  C   UNL     1      25.401  27.605  19.951  0.00  0.00    +0.031 A 
BRANCH  35  38
ATOM     38  O   UNL     1      22.130  25.892  20.321  0.00  0.00    -0.495 OA
ATOM     39  C   UNL     1      21.413  26.452  19.228  0.00  0.00    +0.277 C 
ENDBRANCH  35  38
ENDBRANCH  30  32
ENDBRANCH  26  28
ENDBRANCH  25  26
ENDBRANCH  24  25
ENDBRANCH   1  24
TORSDOF 12
