REMARK  Name = lig_assembled_79.pdb
REMARK  15 active torsions:
REMARK  status: ('A' for Active; 'I' for Inactive)
REMARK    1  A    between atoms: _2  and  _9
REMARK    2  A    between atoms: _6  and  _7
REMARK    3  A    between atoms: _6  and  _21
REMARK    4  A    between atoms: _9  and  _10
REMARK    5  A    between atoms: _9  and  _11
REMARK    6  A    between atoms: _9  and  _12
REMARK    7  A    between atoms: _12  and  _13
REMARK    8  A    between atoms: _21  and  _23
REMARK    9  A    between atoms: _22  and  _27
REMARK   10  A    between atoms: _23  and  _26
REMARK   11  A    between atoms: _31  and  _41
REMARK   12  A    between atoms: _33  and  _34
REMARK   13  A    between atoms: _35  and  _37
REMARK   14  A    between atoms: _37  and  _39
REMARK   15  A    between atoms: _39  and  _41
REMARK                            x       y       z     vdW  Elec       q    Type
REMARK                         _______ _______ _______ _____ _____    ______ ____
ROOT
ATOM      1  O   UNL     1      26.952  31.063  26.127  0.00  0.00    -0.450 OA
ENDROOT
BRANCH   1   2
ATOM      2  C   UNL     1      27.855  31.738  26.760  0.00  0.00    +0.400 C 
ATOM      3  N   UNL     1      27.383  32.665  27.660  0.00  0.00    -0.278 N 
ATOM      4  H   UNL     1      28.259  32.955  28.198  0.00  0.00    +0.152 HD
ATOM      5  O   UNL     1      29.071  31.604  26.651  0.00  0.00    -0.226 OA
BRANCH   3   6
ATOM      6  C   UNL     1      26.251  33.422  28.187  0.00  0.00    +0.152 C 
BRANCH   6   7
ATOM      7  C   UNL     1      26.410  34.957  28.206  0.00  0.00    +0.193 C 
ATOM      8  O   UNL     1      25.515  35.479  27.200  0.00  0.00    -0.219 OA
BRANCH   7   9
ATOM      9  C   UNL     1      26.013  35.701  29.500  0.00  0.00    +0.212 C 
ATOM     10  O   UNL     1      26.073  34.813  30.628  0.00  0.00    -0.218 OA
BRANCH   9  11
ATOM     11  C   UNL     1      26.915  36.958  29.799  0.00  0.00    +0.171 C 
ATOM     12  O   UNL     1      26.419  38.146  29.190  0.00  0.00    -0.343 OA
ATOM     13  C   UNL     1      27.139  39.338  29.087  0.00  0.00    +0.220 C 
ATOM     14  C   UNL     1      28.542  39.109  28.500  0.00  0.00    +0.076 C 
ATOM     15  C   UNL     1      29.221  38.014  29.339  0.00  0.00    +0.177 C 
ATOM     16  O   UNL     1      30.541  37.790  28.862  0.00  0.00    -0.221 OA
ATOM     17  C   UNL     1      28.374  36.704  29.299  0.00  0.00    +0.155 C 
BRANCH  17  18
ATOM     18  N   UNL     1      29.020  35.658  30.089  0.00  0.00    -0.202 NA
ATOM     19  C   UNL     1      29.802  34.624  29.686  0.00  0.00    +0.242 C 
ATOM     20  C   UNL     1      30.580  33.867  30.731  0.00  0.00    +0.096 C 
ATOM     21  O   UNL     1      29.859  34.334  28.493  0.00  0.00    -0.273 OA
ENDBRANCH  17  18
BRANCH  13  22
ATOM     22  C   UNL     1      27.203  40.177  30.477  0.00  0.00    +0.391 C 
ATOM     23  O   UNL     1      28.154  41.110  30.277  0.00  0.00    -0.243 OA
ATOM     24  O   UNL     1      26.108  39.834  31.167  0.00  0.00    -0.243 OA
ENDBRANCH  13  22
ENDBRANCH   9  11
ENDBRANCH   7   9
ENDBRANCH   6   7
ENDBRANCH   3   6
ENDBRANCH   1   2
BRANCH   1  25
ATOM     25  C   UNL     1      25.861  31.285  25.264  0.00  0.00    +0.240 C 
BRANCH  25  26
ATOM     26  C   UNL     1      26.068  30.990  23.766  0.00  0.00    +0.100 C 
BRANCH  26  28
ATOM     27  N   UNL     1      24.295  29.281  23.914  0.00  0.00    -0.134 NA
ATOM     28  C   UNL     1      25.510  29.668  23.428  0.00  0.00    +0.086 A 
ATOM     29  C   UNL     1      26.030  28.657  22.653  0.00  0.00    +0.134 A 
ATOM     30  N   UNL     1      25.048  27.706  22.624  0.00  0.00    -0.238 N 
ATOM     31  N   UNL     1      24.040  28.065  23.458  0.00  0.00    -0.065 NA
BRANCH  30  32
ATOM     32  C   UNL     1      25.024  26.343  22.017  0.00  0.00    +0.122 C 
ATOM     33  C   UNL     1      25.986  26.384  20.806  0.00  0.00    +0.044 C 
ATOM     34  C   UNL     1      23.546  26.093  21.658  0.00  0.00    +0.044 C 
BRANCH  32  35
ATOM     35  C   UNL     1      25.528  25.238  22.968  0.00  0.00    +0.192 C 
ATOM     36  O   UNL     1      26.650  25.318  23.476  0.00  0.00    -0.289 OA
BRANCH  35  37
ATOM     37  C   UNL     1      24.717  24.031  23.300  0.00  0.00    +0.045 A 
ATOM     38  C   UNL     1      24.202  23.875  24.583  0.00  0.00    +0.095 A 
ATOM     39  N   UNL     1      23.523  22.697  24.665  0.00  0.00    -0.360 N 
ATOM     40  H   UNL     1      23.064  22.344  25.494  0.00  0.00    +0.165 HD
ATOM     41  C   UNL     1      23.563  22.047  23.459  0.00  0.00    +0.047 A 
ATOM     42  C   UNL     1      23.006  20.808  23.109  0.00  0.00    +0.026 A 
ATOM     43  C   UNL     1      23.188  20.348  21.806  0.00  0.00    +0.002 A 
ATOM     44  C   UNL     1      23.898  21.103  20.887  0.00  0.00    +0.001 A 
ATOM     45  C   UNL     1      24.445  22.338  21.255  0.00  0.00    +0.011 A 
ATOM     46  C   UNL     1      24.293  22.849  22.570  0.00  0.00    +0.010 A 
ENDBRANCH  35  37
ENDBRANCH  32  35
ENDBRANCH  30  32
ENDBRANCH  26  28
ENDBRANCH  25  26
ENDBRANCH   1  25
TORSDOF 13
