REMARK  Name = lig_assembled_47.pdb
REMARK  17 active torsions:
REMARK  status: ('A' for Active; 'I' for Inactive)
REMARK    1  A    between atoms: _2  and  _8
REMARK    2  A    between atoms: _5  and  _6
REMARK    3  A    between atoms: _5  and  _25
REMARK    4  A    between atoms: _8  and  _9
REMARK    5  A    between atoms: _9  and  _10
REMARK    6  A    between atoms: _9  and  _11
REMARK    7  A    between atoms: _10  and  _23
REMARK    8  A    between atoms: _11  and  _12
REMARK    9  A    between atoms: _11  and  _18
REMARK   10  A    between atoms: _25  and  _27
REMARK   11  A    between atoms: _26  and  _31
REMARK   12  A    between atoms: _27  and  _30
REMARK   13  A    between atoms: _35  and  _45
REMARK   14  A    between atoms: _37  and  _38
REMARK   15  A    between atoms: _39  and  _41
REMARK   16  A    between atoms: _41  and  _43
REMARK   17  A    between atoms: _43  and  _45
REMARK                            x       y       z     vdW  Elec       q    Type
REMARK                         _______ _______ _______ _____ _____    ______ ____
ROOT
ATOM      1  C   UNL     1      27.339  37.339  16.260  0.00  0.00    +0.100 C 
ENDROOT
BRANCH   1   3
ATOM      2  N   UNL     1      27.970  39.592  17.092  0.00  0.00    -0.134 NA
ATOM      3  C   UNL     1      28.320  38.424  16.464  0.00  0.00    +0.086 A 
ATOM      4  C   UNL     1      29.641  38.502  16.083  0.00  0.00    +0.133 A 
ATOM      5  N   UNL     1      30.023  39.756  16.463  0.00  0.00    -0.251 N 
ATOM      6  N   UNL     1      29.023  40.400  17.086  0.00  0.00    -0.065 NA
BRANCH   5   7
ATOM      7  C   UNL     1      31.256  40.455  16.134  0.00  0.00    +0.160 C 
BRANCH   7   8
ATOM      8  C   UNL     1      32.098  40.836  17.355  0.00  0.00    +0.131 C 
BRANCH   8   9
ATOM      9  C   UNL     1      32.942  39.624  17.725  0.00  0.00    +0.311 C 
ATOM     10  O   UNL     1      32.878  39.079  18.815  0.00  0.00    -0.251 OA
BRANCH   9  11
ATOM     11  O   UNL     1      33.704  39.092  16.747  0.00  0.00    -0.480 OA
ATOM     12  H   UNL     1      33.832  39.597  15.926  0.00  0.00    +0.295 HD
ENDBRANCH   9  11
ENDBRANCH   8   9
BRANCH   8  13
ATOM     13  C   UNL     1      32.969  42.119  17.172  0.00  0.00    +0.064 C 
BRANCH  13  14
ATOM     14  C   UNL     1      32.291  43.285  16.450  0.00  0.00    -0.039 A 
ATOM     15  C   UNL     1      32.893  43.842  15.304  0.00  0.00    +0.004 A 
ATOM     16  C   UNL     1      32.300  44.908  14.621  0.00  0.00    +0.000 A 
ATOM     17  C   UNL     1      31.102  45.450  15.076  0.00  0.00    +0.000 A 
ATOM     18  C   UNL     1      30.501  44.926  16.217  0.00  0.00    +0.000 A 
ATOM     19  C   UNL     1      31.085  43.848  16.891  0.00  0.00    +0.004 A 
ENDBRANCH  13  14
BRANCH  13  20
ATOM     20  C   UNL     1      33.596  42.529  18.511  0.00  0.00    -0.039 A 
ATOM     21  C   UNL     1      34.986  42.703  18.621  0.00  0.00    +0.004 A 
ATOM     22  C   UNL     1      35.579  42.907  19.871  0.00  0.00    +0.000 A 
ATOM     23  C   UNL     1      34.794  42.965  21.021  0.00  0.00    +0.000 A 
ATOM     24  C   UNL     1      33.414  42.834  20.923  0.00  0.00    +0.000 A 
ATOM     25  C   UNL     1      32.821  42.619  19.681  0.00  0.00    +0.004 A 
ENDBRANCH  13  20
ENDBRANCH   8  13
ENDBRANCH   7   8
ENDBRANCH   5   7
ENDBRANCH   1   3
BRANCH   1  26
ATOM     26  C   UNL     1      26.661  36.949  17.587  0.00  0.00    +0.240 C 
BRANCH  26  27
ATOM     27  O   UNL     1      27.358  36.070  18.439  0.00  0.00    -0.450 OA
BRANCH  27  28
ATOM     28  C   UNL     1      28.575  35.763  18.747  0.00  0.00    +0.400 C 
ATOM     29  N   UNL     1      29.142  34.757  18.000  0.00  0.00    -0.278 N 
ATOM     30  H   UNL     1      30.175  34.799  18.273  0.00  0.00    +0.152 HD
ATOM     31  O   UNL     1      29.263  36.301  19.610  0.00  0.00    -0.226 OA
BRANCH  29  32
ATOM     32  C   UNL     1      28.968  33.673  17.037  0.00  0.00    +0.152 C 
BRANCH  32  33
ATOM     33  C   UNL     1      27.702  32.809  17.207  0.00  0.00    +0.193 C 
ATOM     34  O   UNL     1      26.691  33.379  16.346  0.00  0.00    -0.219 OA
BRANCH  33  35
ATOM     35  C   UNL     1      27.784  31.328  16.777  0.00  0.00    +0.212 C 
ATOM     36  O   UNL     1      29.151  30.942  16.562  0.00  0.00    -0.218 OA
BRANCH  35  37
ATOM     37  C   UNL     1      27.139  30.338  17.820  0.00  0.00    +0.171 C 
ATOM     38  O   UNL     1      25.718  30.303  17.736  0.00  0.00    -0.343 OA
ATOM     39  C   UNL     1      24.887  29.707  18.688  0.00  0.00    +0.220 C 
ATOM     40  C   UNL     1      25.220  30.182  20.113  0.00  0.00    +0.076 C 
ATOM     41  C   UNL     1      26.725  29.957  20.336  0.00  0.00    +0.177 C 
ATOM     42  O   UNL     1      27.080  30.343  21.656  0.00  0.00    -0.221 OA
ATOM     43  C   UNL     1      27.550  30.746  19.273  0.00  0.00    +0.155 C 
BRANCH  43  44
ATOM     44  N   UNL     1      28.980  30.540  19.486  0.00  0.00    -0.202 NA
ATOM     45  C   UNL     1      29.894  31.347  20.082  0.00  0.00    +0.242 C 
ATOM     46  C   UNL     1      31.240  30.767  20.432  0.00  0.00    +0.096 C 
ATOM     47  O   UNL     1      29.606  32.518  20.321  0.00  0.00    -0.273 OA
ENDBRANCH  43  44
BRANCH  39  48
ATOM     48  C   UNL     1      24.850  28.086  18.593  0.00  0.00    +0.391 C 
ATOM     49  O   UNL     1      24.255  27.684  19.732  0.00  0.00    -0.243 OA
ATOM     50  O   UNL     1      25.139  27.784  17.321  0.00  0.00    -0.243 OA
ENDBRANCH  39  48
ENDBRANCH  35  37
ENDBRANCH  33  35
ENDBRANCH  32  33
ENDBRANCH  29  32
ENDBRANCH  27  28
ENDBRANCH  26  27
ENDBRANCH   1  26
TORSDOF 17
