REMARK  Name = lig_assembled_6.pdb
REMARK  12 active torsions:
REMARK  status: ('A' for Active; 'I' for Inactive)
REMARK    1  A    between atoms: _2  and  _9
REMARK    2  A    between atoms: _3  and  _12
REMARK    3  A    between atoms: _6  and  _7
REMARK    4  A    between atoms: _6  and  _16
REMARK    5  A    between atoms: _16  and  _18
REMARK    6  A    between atoms: _17  and  _22
REMARK    7  A    between atoms: _18  and  _21
REMARK    8  A    between atoms: _26  and  _36
REMARK    9  A    between atoms: _28  and  _29
REMARK   10  A    between atoms: _30  and  _32
REMARK   11  A    between atoms: _32  and  _34
REMARK   12  A    between atoms: _34  and  _36
REMARK                            x       y       z     vdW  Elec       q    Type
REMARK                         _______ _______ _______ _____ _____    ______ ____
ROOT
ATOM      1  C   UNL     1      29.836  33.975  26.068  0.00  0.00    +0.400 C 
ATOM      2  N   UNL     1      29.464  34.125  24.753  0.00  0.00    -0.278 N 
ATOM      3  H   UNL     1      30.349  34.505  24.288  0.00  0.00    +0.152 HD
ATOM      4  O   UNL     1      31.023  34.109  26.353  0.00  0.00    -0.226 OA
ENDROOT
BRANCH   2   5
ATOM      5  C   UNL     1      28.433  33.988  23.728  0.00  0.00    +0.152 C 
BRANCH   5   6
ATOM      6  C   UNL     1      28.907  33.482  22.350  0.00  0.00    +0.193 C 
ATOM      7  O   UNL     1      28.295  32.189  22.149  0.00  0.00    -0.219 OA
BRANCH   6   8
ATOM      8  C   UNL     1      28.493  34.301  21.107  0.00  0.00    +0.212 C 
ATOM      9  O   UNL     1      27.653  35.402  21.488  0.00  0.00    -0.218 OA
BRANCH   8  10
ATOM     10  C   UNL     1      29.721  34.862  20.292  0.00  0.00    +0.171 C 
ATOM     11  O   UNL     1      30.430  33.841  19.598  0.00  0.00    -0.343 OA
ATOM     12  C   UNL     1      31.683  34.016  19.005  0.00  0.00    +0.220 C 
ATOM     13  C   UNL     1      32.691  34.652  19.977  0.00  0.00    +0.076 C 
ATOM     14  C   UNL     1      32.052  35.937  20.531  0.00  0.00    +0.177 C 
ATOM     15  O   UNL     1      32.961  36.587  21.408  0.00  0.00    -0.221 OA
ATOM     16  C   UNL     1      30.710  35.601  21.252  0.00  0.00    +0.155 C 
BRANCH  16  17
ATOM     17  N   UNL     1      30.103  36.818  21.786  0.00  0.00    -0.202 NA
ATOM     18  C   UNL     1      30.205  37.369  23.023  0.00  0.00    +0.242 C 
ATOM     19  C   UNL     1      29.718  38.781  23.220  0.00  0.00    +0.096 C 
ATOM     20  O   UNL     1      30.689  36.712  23.942  0.00  0.00    -0.273 OA
ENDBRANCH  16  17
BRANCH  12  21
ATOM     21  C   UNL     1      31.625  34.821  17.594  0.00  0.00    +0.391 C 
ATOM     22  O   UNL     1      32.880  35.268  17.398  0.00  0.00    -0.243 OA
ATOM     23  O   UNL     1      30.460  34.486  17.025  0.00  0.00    -0.243 OA
ENDBRANCH  12  21
ENDBRANCH   8  10
ENDBRANCH   6   8
ENDBRANCH   5   6
ENDBRANCH   2   5
BRANCH   1  24
ATOM     24  O   UNL     1      28.875  33.732  26.897  0.00  0.00    -0.450 OA
BRANCH  24  25
ATOM     25  C   UNL     1      28.157  34.381  27.921  0.00  0.00    +0.240 C 
BRANCH  25  26
ATOM     26  C   UNL     1      26.703  33.935  28.162  0.00  0.00    +0.100 C 
BRANCH  26  28
ATOM     27  N   UNL     1      24.954  33.733  26.422  0.00  0.00    -0.134 NA
ATOM     28  C   UNL     1      25.812  34.515  27.140  0.00  0.00    +0.086 A 
ATOM     29  C   UNL     1      25.664  35.824  26.745  0.00  0.00    +0.139 A 
ATOM     30  N   UNL     1      24.669  35.798  25.794  0.00  0.00    -0.220 N 
ATOM     31  N   UNL     1      24.270  34.518  25.601  0.00  0.00    -0.061 NA
BRANCH  30  32
ATOM     32  C   UNL     1      24.067  36.887  25.108  0.00  0.00    +0.067 A 
ATOM     33  C   UNL     1      22.672  37.038  25.090  0.00  0.00    +0.034 A 
ATOM     34  C   UNL     1      22.088  38.078  24.360  0.00  0.00    +0.086 A 
ATOM     35  C   UNL     1      22.899  38.972  23.649  0.00  0.00    +0.273 A 
ATOM     36  C   UNL     1      24.293  38.846  23.684  0.00  0.00    +0.086 A 
ATOM     37  C   UNL     1      24.874  37.805  24.415  0.00  0.00    +0.034 A 
BRANCH  35  38
ATOM     38  N   UNL     1      22.279  40.036  22.850  0.00  0.00    +0.080 N 
ATOM     39  O   UNL     1      21.040  40.077  22.810  0.00  0.00    +0.041 OA
ATOM     40  O   UNL     1      23.027  40.825  22.258  0.00  0.00    -0.576 OA
ENDBRANCH  35  38
ENDBRANCH  30  32
ENDBRANCH  26  28
ENDBRANCH  25  26
ENDBRANCH  24  25
ENDBRANCH   1  24
TORSDOF 12
