REMARK  Name = lig_assembled_65.pdb
REMARK  11 active torsions:
REMARK  status: ('A' for Active; 'I' for Inactive)
REMARK    1  A    between atoms: _8  and  _14
REMARK    2  A    between atoms: _9  and  _10
REMARK    3  A    between atoms: _9  and  _15
REMARK    4  A    between atoms: _15  and  _17
REMARK    5  A    between atoms: _16  and  _21
REMARK    6  A    between atoms: _17  and  _20
REMARK    7  A    between atoms: _25  and  _35
REMARK    8  A    between atoms: _27  and  _28
REMARK    9  A    between atoms: _29  and  _31
REMARK   10  A    between atoms: _31  and  _33
REMARK   11  A    between atoms: _33  and  _35
REMARK                            x       y       z     vdW  Elec       q    Type
REMARK                         _______ _______ _______ _____ _____    ______ ____
ROOT
ATOM      1  C   UNL     1      22.251  13.911  17.892  0.00  0.00    +0.400 C 
ATOM      2  N   UNL     1      21.573  12.728  18.067  0.00  0.00    -0.278 N 
ATOM      3  H   UNL     1      22.131  12.034  17.476  0.00  0.00    +0.152 HD
ATOM      4  O   UNL     1      23.337  13.877  17.319  0.00  0.00    -0.226 OA
ENDROOT
BRANCH   1   5
ATOM      5  O   UNL     1      21.652  14.970  18.329  0.00  0.00    -0.450 OA
BRANCH   5   6
ATOM      6  C   UNL     1      21.786  16.371  18.278  0.00  0.00    +0.240 C 
BRANCH   6   7
ATOM      7  C   UNL     1      20.663  17.168  17.586  0.00  0.00    +0.100 C 
BRANCH   7   9
ATOM      8  N   UNL     1      18.764  16.104  16.406  0.00  0.00    -0.134 NA
ATOM      9  C   UNL     1      20.099  16.393  16.465  0.00  0.00    +0.087 A 
ATOM     10  C   UNL     1      20.723  15.855  15.365  0.00  0.00    +0.146 A 
ATOM     11  N   UNL     1      19.719  15.232  14.656  0.00  0.00    -0.155 N 
ATOM     12  C   UNL     1      19.850  14.503  13.437  0.00  0.00    +0.416 C 
ATOM     13  N   UNL     1      18.753  13.965  12.891  0.00  0.00    +0.041 NA
ATOM     14  C   UNL     1      18.958  13.288  11.763  0.00  0.00    +0.339 C 
ATOM     15  C   UNL     1      17.771  12.651  11.111  0.00  0.00    +0.149 C 
ATOM     16  N   UNL     1      20.148  13.128  11.184  0.00  0.00    +0.007 NA
ATOM     17  C   UNL     1      21.170  13.688  11.812  0.00  0.00    +0.386 C 
ATOM     18  N   UNL     1      22.420  13.536  11.251  0.00  0.00    -0.296 N 
ATOM     19  H   UNL     1      22.347  13.329  10.264  0.00  0.00    +0.148 HD
ATOM     20  H   UNL     1      23.040  14.285  11.527  0.00  0.00    +0.148 HD
ATOM     21  N   UNL     1      21.083  14.401  12.921  0.00  0.00    -0.290 NA
ATOM     22  N   UNL     1      18.537  15.401  15.302  0.00  0.00    -0.056 NA
ENDBRANCH   7   9
ENDBRANCH   6   7
ENDBRANCH   5   6
ENDBRANCH   1   5
BRANCH   2  23
ATOM     23  C   UNL     1      20.467  12.009  18.694  0.00  0.00    +0.152 C 
BRANCH  23  24
ATOM     24  C   UNL     1      19.282  12.870  19.176  0.00  0.00    +0.193 C 
ATOM     25  O   UNL     1      18.275  12.807  18.141  0.00  0.00    -0.219 OA
BRANCH  24  26
ATOM     26  C   UNL     1      18.546  12.422  20.458  0.00  0.00    +0.212 C 
ATOM     27  O   UNL     1      19.456  11.763  21.354  0.00  0.00    -0.218 OA
BRANCH  26  28
ATOM     28  C   UNL     1      17.853  13.610  21.227  0.00  0.00    +0.171 C 
ATOM     29  O   UNL     1      18.688  14.172  22.234  0.00  0.00    -0.343 OA
ATOM     30  C   UNL     1      18.248  15.061  23.218  0.00  0.00    +0.220 C 
ATOM     31  C   UNL     1      16.997  14.536  23.943  0.00  0.00    +0.076 C 
ATOM     32  C   UNL     1      15.952  14.188  22.870  0.00  0.00    +0.177 C 
ATOM     33  O   UNL     1      14.757  13.734  23.490  0.00  0.00    -0.221 OA
ATOM     34  C   UNL     1      16.524  13.118  21.889  0.00  0.00    +0.155 C 
BRANCH  34  35
ATOM     35  N   UNL     1      15.531  12.780  20.872  0.00  0.00    -0.202 NA
ATOM     36  C   UNL     1      15.008  13.547  19.882  0.00  0.00    +0.242 C 
ATOM     37  C   UNL     1      14.223  12.867  18.790  0.00  0.00    +0.096 C 
ATOM     38  O   UNL     1      15.185  14.763  19.897  0.00  0.00    -0.273 OA
ENDBRANCH  34  35
BRANCH  30  39
ATOM     39  C   UNL     1      18.030  16.575  22.670  0.00  0.00    +0.391 C 
ATOM     40  O   UNL     1      16.717  16.652  22.376  0.00  0.00    -0.243 OA
ATOM     41  O   UNL     1      19.139  17.250  22.996  0.00  0.00    -0.243 OA
ENDBRANCH  30  39
ENDBRANCH  26  28
ENDBRANCH  24  26
ENDBRANCH  23  24
ENDBRANCH   2  23
TORSDOF 10
