REMARK  Name = lig_assembled_85.pdb
REMARK  14 active torsions:
REMARK  status: ('A' for Active; 'I' for Inactive)
REMARK    1  A    between atoms: _2  and  _9
REMARK    2  A    between atoms: _3  and  _5
REMARK    3  A    between atoms: _3  and  _16
REMARK    4  A    between atoms: _6  and  _7
REMARK    5  A    between atoms: _6  and  _18
REMARK    6  A    between atoms: _14  and  _15
REMARK    7  A    between atoms: _18  and  _20
REMARK    8  A    between atoms: _19  and  _24
REMARK    9  A    between atoms: _20  and  _23
REMARK   10  A    between atoms: _28  and  _38
REMARK   11  A    between atoms: _30  and  _31
REMARK   12  A    between atoms: _32  and  _34
REMARK   13  A    between atoms: _34  and  _36
REMARK   14  A    between atoms: _36  and  _38
REMARK                            x       y       z     vdW  Elec       q    Type
REMARK                         _______ _______ _______ _____ _____    ______ ____
ROOT
ATOM      1  C   UNL     1      28.965  37.040  19.051  0.00  0.00    +0.400 C 
ATOM      2  N   UNL     1      30.141  37.695  18.773  0.00  0.00    -0.278 N 
ATOM      3  H   UNL     1      30.847  36.900  18.663  0.00  0.00    +0.152 HD
ATOM      4  O   UNL     1      28.941  35.817  18.934  0.00  0.00    -0.226 OA
ENDROOT
BRANCH   2   5
ATOM      5  C   UNL     1      30.839  38.959  18.551  0.00  0.00    +0.152 C 
BRANCH   5   6
ATOM      6  C   UNL     1      32.113  38.889  17.684  0.00  0.00    +0.193 C 
ATOM      7  O   UNL     1      31.783  39.493  16.413  0.00  0.00    -0.219 OA
BRANCH   6   8
ATOM      8  C   UNL     1      33.354  39.669  18.171  0.00  0.00    +0.212 C 
ATOM      9  O   UNL     1      33.059  40.370  19.391  0.00  0.00    -0.218 OA
BRANCH   8  10
ATOM     10  C   UNL     1      34.614  38.753  18.409  0.00  0.00    +0.171 C 
ATOM     11  O   UNL     1      35.252  38.374  17.194  0.00  0.00    -0.343 OA
ATOM     12  C   UNL     1      36.231  37.382  17.093  0.00  0.00    +0.220 C 
ATOM     13  C   UNL     1      35.788  36.073  17.771  0.00  0.00    +0.076 C 
ATOM     14  C   UNL     1      35.360  36.418  19.207  0.00  0.00    +0.177 C 
ATOM     15  O   UNL     1      34.978  35.234  19.893  0.00  0.00    -0.221 OA
ATOM     16  C   UNL     1      34.200  37.461  19.187  0.00  0.00    +0.155 C 
BRANCH  16  17
ATOM     17  N   UNL     1      33.786  37.786  20.549  0.00  0.00    -0.202 NA
ATOM     18  C   UNL     1      32.807  37.238  21.313  0.00  0.00    +0.242 C 
ATOM     19  C   UNL     1      32.784  37.557  22.785  0.00  0.00    +0.096 C 
ATOM     20  O   UNL     1      31.971  36.501  20.793  0.00  0.00    -0.273 OA
ENDBRANCH  16  17
BRANCH  12  21
ATOM     21  C   UNL     1      37.693  37.860  17.616  0.00  0.00    +0.391 C 
ATOM     22  O   UNL     1      38.386  36.719  17.799  0.00  0.00    -0.243 OA
ATOM     23  O   UNL     1      37.757  39.176  17.383  0.00  0.00    -0.243 OA
ENDBRANCH  12  21
ENDBRANCH   8  10
ENDBRANCH   6   8
ENDBRANCH   5   6
ENDBRANCH   2   5
BRANCH   1  24
ATOM     24  O   UNL     1      27.988  37.787  19.446  0.00  0.00    -0.450 OA
BRANCH  24  25
ATOM     25  C   UNL     1      27.463  38.317  20.642  0.00  0.00    +0.240 C 
BRANCH  25  26
ATOM     26  C   UNL     1      28.348  38.241  21.901  0.00  0.00    +0.100 C 
BRANCH  26  28
ATOM     27  N   UNL     1      28.327  40.304  23.256  0.00  0.00    -0.134 NA
ATOM     28  C   UNL     1      27.786  39.084  22.970  0.00  0.00    +0.086 A 
ATOM     29  C   UNL     1      26.688  38.872  23.774  0.00  0.00    +0.139 A 
ATOM     30  N   UNL     1      26.594  40.009  24.540  0.00  0.00    -0.219 N 
ATOM     31  N   UNL     1      27.579  40.871  24.191  0.00  0.00    -0.061 NA
BRANCH  30  32
ATOM     32  C   UNL     1      25.614  40.376  25.486  0.00  0.00    +0.080 A 
ATOM     33  C   UNL     1      25.653  40.016  26.843  0.00  0.00    +0.062 A 
ATOM     34  C   UNL     1      24.488  40.237  27.614  0.00  0.00    +0.016 A 
ATOM     35  C   UNL     1      23.338  40.816  27.069  0.00  0.00    +0.021 A 
ATOM     36  C   UNL     1      23.346  41.232  25.746  0.00  0.00    +0.043 A 
ATOM     37 CL   UNL     1      21.929  41.913  25.049  0.00  0.00    -0.083 Cl
ATOM     38  C   UNL     1      24.481  41.041  24.963  0.00  0.00    +0.048 A 
BRANCH  33  39
ATOM     39  C   UNL     1      26.751  39.343  27.596  0.00  0.00    +0.248 C 
ATOM     40  O   UNL     1      26.587  38.135  27.789  0.00  0.00    -0.270 OA
ATOM     41  N   UNL     1      27.864  40.011  28.118  0.00  0.00    -0.304 N 
ATOM     42  C   UNL     1      28.273  41.388  27.877  0.00  0.00    +0.132 C 
ATOM     43  C   UNL     1      28.835  39.192  28.837  0.00  0.00    +0.132 C 
ENDBRANCH  33  39
ENDBRANCH  30  32
ENDBRANCH  26  28
ENDBRANCH  25  26
ENDBRANCH  24  25
ENDBRANCH   1  24
TORSDOF 12
