REMARK  Name = lig_assembled_16.pdb
REMARK  14 active torsions:
REMARK  status: ('A' for Active; 'I' for Inactive)
REMARK    1  A    between atoms: _2  and  _8
REMARK    2  A    between atoms: _5  and  _6
REMARK    3  A    between atoms: _5  and  _17
REMARK    4  A    between atoms: _8  and  _9
REMARK    5  A    between atoms: _12  and  _13
REMARK    6  A    between atoms: _13  and  _15
REMARK    7  A    between atoms: _17  and  _19
REMARK    8  A    between atoms: _18  and  _23
REMARK    9  A    between atoms: _19  and  _22
REMARK   10  A    between atoms: _27  and  _37
REMARK   11  A    between atoms: _29  and  _30
REMARK   12  A    between atoms: _31  and  _33
REMARK   13  A    between atoms: _33  and  _35
REMARK   14  A    between atoms: _35  and  _37
REMARK                            x       y       z     vdW  Elec       q    Type
REMARK                         _______ _______ _______ _____ _____    ______ ____
ROOT
ATOM      1  C   UNL     1      29.459  40.372  22.098  0.00  0.00    +0.400 C 
ATOM      2  N   UNL     1      30.061  39.652  23.103  0.00  0.00    -0.278 N 
ATOM      3  H   UNL     1      29.871  40.238  23.976  0.00  0.00    +0.152 HD
ATOM      4  O   UNL     1      28.748  41.323  22.413  0.00  0.00    -0.226 OA
ENDROOT
BRANCH   2   5
ATOM      5  C   UNL     1      30.813  38.466  23.505  0.00  0.00    +0.152 C 
BRANCH   5   6
ATOM      6  C   UNL     1      32.230  38.716  24.059  0.00  0.00    +0.193 C 
ATOM      7  O   UNL     1      32.560  37.576  24.884  0.00  0.00    -0.219 OA
BRANCH   6   8
ATOM      8  C   UNL     1      33.390  38.805  23.043  0.00  0.00    +0.212 C 
ATOM      9  O   UNL     1      34.518  38.040  23.500  0.00  0.00    -0.218 OA
BRANCH   8  10
ATOM     10  C   UNL     1      32.996  38.308  21.600  0.00  0.00    +0.171 C 
ATOM     11  O   UNL     1      33.260  36.922  21.407  0.00  0.00    -0.343 OA
ATOM     12  C   UNL     1      33.236  36.281  20.166  0.00  0.00    +0.220 C 
ATOM     13  C   UNL     1      34.083  37.029  19.121  0.00  0.00    +0.076 C 
ATOM     14  C   UNL     1      33.610  38.492  19.103  0.00  0.00    +0.177 C 
ATOM     15  O   UNL     1      34.335  39.221  18.123  0.00  0.00    -0.221 OA
ATOM     16  C   UNL     1      33.774  39.127  20.519  0.00  0.00    +0.155 C 
BRANCH  16  17
ATOM     17  N   UNL     1      33.331  40.519  20.504  0.00  0.00    -0.202 NA
ATOM     18  C   UNL     1      34.053  41.661  20.640  0.00  0.00    +0.242 C 
ATOM     19  C   UNL     1      33.394  42.970  20.292  0.00  0.00    +0.096 C 
ATOM     20  O   UNL     1      35.215  41.601  21.038  0.00  0.00    -0.273 OA
ENDBRANCH  16  17
BRANCH  12  21
ATOM     21  C   UNL     1      31.735  35.987  19.618  0.00  0.00    +0.391 C 
ATOM     22  O   UNL     1      30.917  36.444  20.585  0.00  0.00    -0.243 OA
ATOM     23  O   UNL     1      31.867  35.691  18.319  0.00  0.00    -0.243 OA
ENDBRANCH  12  21
ENDBRANCH   8  10
ENDBRANCH   6   8
ENDBRANCH   5   6
ENDBRANCH   2   5
BRANCH   1  24
ATOM     24  O   UNL     1      29.731  39.989  20.894  0.00  0.00    -0.450 OA
BRANCH  24  25
ATOM     25  C   UNL     1      29.652  40.476  19.575  0.00  0.00    +0.240 C 
BRANCH  25  26
ATOM     26  C   UNL     1      30.083  39.527  18.440  0.00  0.00    +0.100 C 
BRANCH  26  28
ATOM     27  N   UNL     1      27.695  38.876  18.545  0.00  0.00    -0.134 NA
ATOM     28  C   UNL     1      28.927  38.750  17.958  0.00  0.00    +0.086 A 
ATOM     29  C   UNL     1      28.839  37.854  16.916  0.00  0.00    +0.134 A 
ATOM     30  N   UNL     1      27.513  37.548  16.863  0.00  0.00    -0.247 N 
ATOM     31  N   UNL     1      26.836  38.121  17.875  0.00  0.00    -0.065 NA
BRANCH  30  32
ATOM     32  C   UNL     1      26.822  36.745  15.874  0.00  0.00    +0.180 C 
BRANCH  32  33
ATOM     33  C   UNL     1      27.227  35.292  15.965  0.00  0.00    -0.026 A 
ATOM     34  C   UNL     1      27.255  34.633  17.202  0.00  0.00    +0.006 A 
ATOM     35  C   UNL     1      27.593  33.279  17.275  0.00  0.00    +0.015 A 
ATOM     36  C   UNL     1      27.920  32.568  16.117  0.00  0.00    +0.059 A 
ATOM     37  C   UNL     1      27.915  33.222  14.876  0.00  0.00    +0.015 A 
ATOM     38  C   UNL     1      27.582  34.579  14.807  0.00  0.00    +0.006 A 
BRANCH  36  39
ATOM     39  C   UNL     1      28.199  31.113  16.243  0.00  0.00    +0.337 C 
ATOM     40  O   UNL     1      27.913  30.474  17.242  0.00  0.00    -0.245 OA
BRANCH  39  41
ATOM     41  O   UNL     1      28.822  30.576  15.177  0.00  0.00    -0.477 OA
ATOM     42  H   UNL     1      29.157  31.219  14.524  0.00  0.00    +0.295 HD
ENDBRANCH  39  41
ENDBRANCH  36  39
ENDBRANCH  32  33
ENDBRANCH  30  32
ENDBRANCH  26  28
ENDBRANCH  25  26
ENDBRANCH  24  25
ENDBRANCH   1  24
TORSDOF 14
