REMARK  Name = lig_assembled_35.pdb
REMARK  14 active torsions:
REMARK  status: ('A' for Active; 'I' for Inactive)
REMARK    1  A    between atoms: _2  and  _8
REMARK    2  A    between atoms: _4  and  _8
REMARK    3  A    between atoms: _4  and  _10
REMARK    4  A    between atoms: _5  and  _6
REMARK    5  A    between atoms: _5  and  _12
REMARK    6  A    between atoms: _8  and  _9
REMARK    7  A    between atoms: _12  and  _14
REMARK    8  A    between atoms: _13  and  _18
REMARK    9  A    between atoms: _14  and  _17
REMARK   10  A    between atoms: _22  and  _32
REMARK   11  A    between atoms: _24  and  _25
REMARK   12  A    between atoms: _26  and  _28
REMARK   13  A    between atoms: _28  and  _30
REMARK   14  A    between atoms: _30  and  _32
REMARK                            x       y       z     vdW  Elec       q    Type
REMARK                         _______ _______ _______ _____ _____    ______ ____
ROOT
ATOM      1  C   UNL     1      24.997  27.516  27.675  0.00  0.00    +0.152 C 
ENDROOT
BRANCH   1   3
ATOM      2  C   UNL     1      24.935  25.726  25.617  0.00  0.00    +0.400 C 
ATOM      3  N   UNL     1      24.614  26.478  26.722  0.00  0.00    -0.278 N 
ATOM      4  H   UNL     1      23.647  26.114  26.996  0.00  0.00    +0.152 HD
ATOM      5  O   UNL     1      24.212  24.775  25.333  0.00  0.00    -0.226 OA
BRANCH   2   6
ATOM      6  O   UNL     1      25.971  26.122  24.953  0.00  0.00    -0.450 OA
BRANCH   6   7
ATOM      7  C   UNL     1      26.676  25.795  23.778  0.00  0.00    +0.240 C 
BRANCH   7   8
ATOM      8  C   UNL     1      26.125  26.334  22.444  0.00  0.00    +0.100 C 
BRANCH   8  10
ATOM      9  N   UNL     1      27.148  27.111  20.329  0.00  0.00    -0.134 NA
ATOM     10  C   UNL     1      27.187  27.032  21.697  0.00  0.00    +0.086 A 
ATOM     11  C   UNL     1      28.317  27.676  22.151  0.00  0.00    +0.134 A 
ATOM     12  N   UNL     1      28.914  28.137  21.015  0.00  0.00    -0.238 N 
ATOM     13  N   UNL     1      28.220  27.775  19.922  0.00  0.00    -0.065 NA
BRANCH  12  14
ATOM     14  C   UNL     1      30.143  28.890  20.854  0.00  0.00    +0.214 C 
ATOM     15  C   UNL     1      30.305  29.916  21.973  0.00  0.00    +0.045 C 
BRANCH  14  16
ATOM     16  C   UNL     1      31.345  27.975  20.740  0.00  0.00    +0.329 C 
ATOM     17  O   UNL     1      31.281  26.754  20.690  0.00  0.00    -0.249 OA
BRANCH  16  18
ATOM     18  O   UNL     1      32.538  28.618  20.724  0.00  0.00    -0.479 OA
ATOM     19  H   UNL     1      32.496  29.595  20.763  0.00  0.00    +0.295 HD
ENDBRANCH  16  18
ENDBRANCH  14  16
ENDBRANCH  12  14
ENDBRANCH   8  10
ENDBRANCH   7   8
ENDBRANCH   6   7
ENDBRANCH   2   6
ENDBRANCH   1   3
BRANCH   1  20
ATOM     20  C   UNL     1      24.428  28.926  27.410  0.00  0.00    +0.193 C 
ATOM     21  O   UNL     1      25.440  29.867  27.830  0.00  0.00    -0.219 OA
BRANCH  20  22
ATOM     22  C   UNL     1      24.127  29.311  25.945  0.00  0.00    +0.212 C 
ATOM     23  O   UNL     1      23.078  28.485  25.414  0.00  0.00    -0.218 OA
BRANCH  22  24
ATOM     24  C   UNL     1      23.715  30.823  25.770  0.00  0.00    +0.171 C 
ATOM     25  O   UNL     1      22.546  31.161  26.509  0.00  0.00    -0.343 OA
ATOM     26  C   UNL     1      21.828  32.349  26.347  0.00  0.00    +0.220 C 
ATOM     27  C   UNL     1      21.493  32.616  24.869  0.00  0.00    +0.076 C 
ATOM     28  C   UNL     1      22.809  32.543  24.077  0.00  0.00    +0.177 C 
ATOM     29  O   UNL     1      22.562  32.823  22.706  0.00  0.00    -0.221 OA
ATOM     30  C   UNL     1      23.468  31.140  24.258  0.00  0.00    +0.155 C 
BRANCH  30  31
ATOM     31  N   UNL     1      24.715  31.064  23.501  0.00  0.00    -0.202 NA
ATOM     32  C   UNL     1      25.019  30.327  22.402  0.00  0.00    +0.242 C 
ATOM     33  C   UNL     1      26.280  30.657  21.646  0.00  0.00    +0.096 C 
ATOM     34  O   UNL     1      24.267  29.420  22.052  0.00  0.00    -0.273 OA
ENDBRANCH  30  31
BRANCH  26  35
ATOM     35  C   UNL     1      22.538  33.634  27.041  0.00  0.00    +0.391 C 
ATOM     36  O   UNL     1      21.888  34.703  26.540  0.00  0.00    -0.243 OA
ATOM     37  O   UNL     1      23.274  33.151  28.049  0.00  0.00    -0.243 OA
ENDBRANCH  26  35
ENDBRANCH  22  24
ENDBRANCH  20  22
ENDBRANCH   1  20
TORSDOF 13
