REMARK  Name = lig_assembled_1.pdb
REMARK  13 active torsions:
REMARK  status: ('A' for Active; 'I' for Inactive)
REMARK    1  A    between atoms: _2  and  _8
REMARK    2  A    between atoms: _4  and  _8
REMARK    3  A    between atoms: _4  and  _9
REMARK    4  A    between atoms: _5  and  _6
REMARK    5  A    between atoms: _5  and  _10
REMARK    6  A    between atoms: _10  and  _12
REMARK    7  A    between atoms: _11  and  _16
REMARK    8  A    between atoms: _12  and  _15
REMARK    9  A    between atoms: _20  and  _30
REMARK   10  A    between atoms: _22  and  _23
REMARK   11  A    between atoms: _24  and  _26
REMARK   12  A    between atoms: _26  and  _28
REMARK   13  A    between atoms: _28  and  _30
REMARK                            x       y       z     vdW  Elec       q    Type
REMARK                         _______ _______ _______ _____ _____    ______ ____
ROOT
ATOM      1  C   UNL     1      24.570  28.014  27.409  0.00  0.00    +0.193 C 
ATOM      2  O   UNL     1      23.423  28.341  28.225  0.00  0.00    -0.219 OA
ENDROOT
BRANCH   1   3
ATOM      3  C   UNL     1      24.983  29.357  26.770  0.00  0.00    +0.212 C 
ATOM      4  O   UNL     1      26.410  29.521  26.825  0.00  0.00    -0.218 OA
BRANCH   3   5
ATOM      5  C   UNL     1      24.517  29.505  25.271  0.00  0.00    +0.171 C 
ATOM      6  O   UNL     1      24.658  28.297  24.532  0.00  0.00    -0.343 OA
ATOM      7  C   UNL     1      24.553  28.206  23.142  0.00  0.00    +0.220 C 
ATOM      8  C   UNL     1      25.437  29.247  22.434  0.00  0.00    +0.076 C 
ATOM      9  C   UNL     1      25.090  30.625  23.021  0.00  0.00    +0.177 C 
ATOM     10  O   UNL     1      25.854  31.632  22.371  0.00  0.00    -0.221 OA
ATOM     11  C   UNL     1      25.338  30.631  24.562  0.00  0.00    +0.155 C 
BRANCH  11  12
ATOM     12  N   UNL     1      25.016  31.941  25.122  0.00  0.00    -0.202 NA
ATOM     13  C   UNL     1      25.842  32.952  25.494  0.00  0.00    +0.242 C 
ATOM     14  C   UNL     1      25.238  34.306  25.765  0.00  0.00    +0.096 C 
ATOM     15  O   UNL     1      27.049  32.744  25.598  0.00  0.00    -0.273 OA
ENDBRANCH  11  12
BRANCH   7  16
ATOM     16  C   UNL     1      23.021  28.260  22.604  0.00  0.00    +0.391 C 
ATOM     17  O   UNL     1      23.114  28.694  21.332  0.00  0.00    -0.243 OA
ATOM     18  O   UNL     1      22.291  27.583  23.498  0.00  0.00    -0.243 OA
ENDBRANCH   7  16
ENDBRANCH   3   5
ENDBRANCH   1   3
BRANCH   1  19
ATOM     19  C   UNL     1      25.589  27.320  28.335  0.00  0.00    +0.152 C 
BRANCH  19  21
ATOM     20  C   UNL     1      27.200  25.255  27.568  0.00  0.00    +0.400 C 
ATOM     21  N   UNL     1      26.110  26.036  27.872  0.00  0.00    -0.278 N 
ATOM     22  H   UNL     1      25.282  25.386  27.688  0.00  0.00    +0.152 HD
ATOM     23  O   UNL     1      27.017  24.058  27.363  0.00  0.00    -0.226 OA
BRANCH  20  24
ATOM     24  O   UNL     1      28.332  25.877  27.497  0.00  0.00    -0.450 OA
BRANCH  24  25
ATOM     25  C   UNL     1      29.703  25.586  27.363  0.00  0.00    +0.240 C 
BRANCH  25  26
ATOM     26  C   UNL     1      30.620  26.709  26.840  0.00  0.00    +0.100 C 
BRANCH  26  28
ATOM     27  N   UNL     1      29.908  25.821  24.640  0.00  0.00    -0.134 NA
ATOM     28  C   UNL     1      30.544  26.791  25.370  0.00  0.00    +0.086 A 
ATOM     29  C   UNL     1      31.039  27.747  24.512  0.00  0.00    +0.133 A 
ATOM     30  N   UNL     1      30.677  27.299  23.277  0.00  0.00    -0.249 N 
ATOM     31  N   UNL     1      30.002  26.140  23.356  0.00  0.00    -0.065 NA
BRANCH  30  32
ATOM     32  C   UNL     1      30.929  27.918  21.995  0.00  0.00    +0.173 C 
BRANCH  32  33
ATOM     33  C   UNL     1      29.842  27.614  20.972  0.00  0.00    +0.179 C 
BRANCH  33  34
ATOM     34  O   UNL     1      28.545  27.881  21.503  0.00  0.00    -0.393 OA
ATOM     35  H   UNL     1      28.304  27.115  22.060  0.00  0.00    +0.209 HD
ENDBRANCH  33  34
ENDBRANCH  32  33
ENDBRANCH  30  32
ENDBRANCH  26  28
ENDBRANCH  25  26
ENDBRANCH  24  25
ENDBRANCH  20  24
ENDBRANCH  19  21
ENDBRANCH   1  19
TORSDOF 13
