REMARK  Name = lig_assembled_30.pdb
REMARK  22 active torsions:
REMARK  status: ('A' for Active; 'I' for Inactive)
REMARK    1  A    between atoms: _2  and  _8
REMARK    2  A    between atoms: _4  and  _17
REMARK    3  A    between atoms: _4  and  _18
REMARK    4  A    between atoms: _5  and  _6
REMARK    5  A    between atoms: _5  and  _20
REMARK    6  A    between atoms: _8  and  _9
REMARK    7  A    between atoms: _9  and  _10
REMARK    8  A    between atoms: _10  and  _11
REMARK    9  A    between atoms: _11  and  _12
REMARK   10  A    between atoms: _12  and  _13
REMARK   11  A    between atoms: _13  and  _14
REMARK   12  A    between atoms: _14  and  _15
REMARK   13  A    between atoms: _15  and  _16
REMARK   14  A    between atoms: _16  and  _17
REMARK   15  A    between atoms: _20  and  _22
REMARK   16  A    between atoms: _21  and  _26
REMARK   17  A    between atoms: _22  and  _25
REMARK   18  A    between atoms: _30  and  _40
REMARK   19  A    between atoms: _32  and  _33
REMARK   20  A    between atoms: _34  and  _36
REMARK   21  A    between atoms: _36  and  _38
REMARK   22  A    between atoms: _38  and  _40
REMARK                            x       y       z     vdW  Elec       q    Type
REMARK                         _______ _______ _______ _____ _____    ______ ____
ROOT
ATOM      1  C   UNL     1      27.542  41.630  24.647  0.00  0.00    +0.400 C 
ATOM      2  N   UNL     1      26.967  42.657  25.359  0.00  0.00    -0.278 N 
ATOM      3  H   UNL     1      27.800  43.117  25.846  0.00  0.00    +0.152 HD
ATOM      4  O   UNL     1      28.767  41.589  24.578  0.00  0.00    -0.226 OA
ENDROOT
BRANCH   1   5
ATOM      5  O   UNL     1      26.719  40.774  24.136  0.00  0.00    -0.450 OA
BRANCH   5   6
ATOM      6  C   UNL     1      25.911  40.620  22.993  0.00  0.00    +0.240 C 
BRANCH   6   7
ATOM      7  C   UNL     1      25.703  39.191  22.457  0.00  0.00    +0.100 C 
BRANCH   7   9
ATOM      8  N   UNL     1      25.823  38.386  20.119  0.00  0.00    -0.134 NA
ATOM      9  C   UNL     1      26.419  39.014  21.181  0.00  0.00    +0.086 A 
ATOM     10  C   UNL     1      27.695  39.393  20.822  0.00  0.00    +0.133 A 
ATOM     11  N   UNL     1      27.810  38.967  19.534  0.00  0.00    -0.251 N 
ATOM     12  N   UNL     1      26.688  38.360  19.114  0.00  0.00    -0.065 NA
BRANCH  11  13
ATOM     13  C   UNL     1      28.963  39.062  18.667  0.00  0.00    +0.145 C 
BRANCH  13  14
ATOM     14  C   UNL     1      30.000  37.998  19.008  0.00  0.00    +0.023 C 
BRANCH  14  15
ATOM     15  C   UNL     1      31.109  37.924  17.960  0.00  0.00    +0.002 C 
BRANCH  15  16
ATOM     16  C   UNL     1      32.348  37.251  18.550  0.00  0.00    +0.000 C 
BRANCH  16  17
ATOM     17  C   UNL     1      33.552  37.366  17.621  0.00  0.00    +0.000 C 
BRANCH  17  18
ATOM     18  C   UNL     1      34.784  36.707  18.245  0.00  0.00    +0.000 C 
BRANCH  18  19
ATOM     19  C   UNL     1      35.950  36.689  17.261  0.00  0.00    +0.000 C 
BRANCH  19  20
ATOM     20  C   UNL     1      37.082  35.782  17.744  0.00  0.00    +0.001 C 
BRANCH  20  21
ATOM     21  C   UNL     1      38.109  35.571  16.632  0.00  0.00    +0.011 C 
BRANCH  21  22
ATOM     22  C   UNL     1      39.134  34.501  16.999  0.00  0.00    +0.120 C 
BRANCH  22  23
ATOM     23  C   UNL     1      40.159  34.319  15.902  0.00  0.00    +0.305 C 
ATOM     24  O   UNL     1      40.232  34.985  14.882  0.00  0.00    -0.251 OA
BRANCH  23  25
ATOM     25  O   UNL     1      41.021  33.310  16.166  0.00  0.00    -0.481 OA
ATOM     26  H   UNL     1      40.849  32.859  17.014  0.00  0.00    +0.295 HD
ENDBRANCH  23  25
ENDBRANCH  22  23
ENDBRANCH  21  22
ENDBRANCH  20  21
ENDBRANCH  19  20
ENDBRANCH  18  19
ENDBRANCH  17  18
ENDBRANCH  16  17
ENDBRANCH  15  16
ENDBRANCH  14  15
ENDBRANCH  13  14
ENDBRANCH  11  13
ENDBRANCH   7   9
ENDBRANCH   6   7
ENDBRANCH   5   6
ENDBRANCH   1   5
BRANCH   2  27
ATOM     27  C   UNL     1      25.760  43.392  25.728  0.00  0.00    +0.152 C 
BRANCH  27  28
ATOM     28  C   UNL     1      25.314  44.500  24.752  0.00  0.00    +0.193 C 
ATOM     29  O   UNL     1      26.245  44.480  23.647  0.00  0.00    -0.219 OA
BRANCH  28  30
ATOM     30  C   UNL     1      23.927  44.354  24.089  0.00  0.00    +0.212 C 
ATOM     31  O   UNL     1      22.903  44.227  25.089  0.00  0.00    -0.218 OA
BRANCH  30  32
ATOM     32  C   UNL     1      23.558  45.558  23.140  0.00  0.00    +0.171 C 
ATOM     33  O   UNL     1      23.517  46.804  23.827  0.00  0.00    -0.343 OA
ATOM     34  C   UNL     1      22.986  47.981  23.294  0.00  0.00    +0.220 C 
ATOM     35  C   UNL     1      21.576  47.762  22.719  0.00  0.00    +0.076 C 
ATOM     36  C   UNL     1      21.656  46.584  21.734  0.00  0.00    +0.177 C 
ATOM     37  O   UNL     1      20.384  46.364  21.142  0.00  0.00    -0.221 OA
ATOM     38  C   UNL     1      22.169  45.305  22.467  0.00  0.00    +0.155 C 
BRANCH  38  39
ATOM     39  N   UNL     1      22.240  44.181  21.536  0.00  0.00    -0.202 NA
ATOM     40  C   UNL     1      21.576  42.998  21.552  0.00  0.00    +0.242 C 
ATOM     41  C   UNL     1      21.614  42.139  20.315  0.00  0.00    +0.096 C 
ATOM     42  O   UNL     1      20.965  42.658  22.564  0.00  0.00    -0.273 OA
ENDBRANCH  38  39
BRANCH  34  43
ATOM     43  C   UNL     1      23.965  48.702  22.217  0.00  0.00    +0.391 C 
ATOM     44  O   UNL     1      25.152  48.079  22.354  0.00  0.00    -0.243 OA
ATOM     45  O   UNL     1      23.168  49.412  21.409  0.00  0.00    -0.243 OA
ENDBRANCH  34  43
ENDBRANCH  30  32
ENDBRANCH  28  30
ENDBRANCH  27  28
ENDBRANCH   2  27
TORSDOF 22
