REMARK  Name = lig_assembled_77.pdb
REMARK  14 active torsions:
REMARK  status: ('A' for Active; 'I' for Inactive)
REMARK    1  A    between atoms: _2  and  _9
REMARK    2  A    between atoms: _3  and  _16
REMARK    3  A    between atoms: _6  and  _7
REMARK    4  A    between atoms: _6  and  _22
REMARK    5  A    between atoms: _12  and  _50
REMARK    6  A    between atoms: _13  and  _50
REMARK    7  A    between atoms: _22  and  _24
REMARK    8  A    between atoms: _23  and  _28
REMARK    9  A    between atoms: _24  and  _27
REMARK   10  A    between atoms: _32  and  _42
REMARK   11  A    between atoms: _34  and  _35
REMARK   12  A    between atoms: _36  and  _38
REMARK   13  A    between atoms: _38  and  _40
REMARK   14  A    between atoms: _40  and  _42
REMARK                            x       y       z     vdW  Elec       q    Type
REMARK                         _______ _______ _______ _____ _____    ______ ____
ROOT
ATOM      1  C   UNL     1      30.599  33.488  30.859  0.00  0.00    +0.240 C 
ENDROOT
BRANCH   1   2
ATOM      2  C   UNL     1      30.715  34.888  30.225  0.00  0.00    +0.100 C 
BRANCH   2   4
ATOM      3  N   UNL     1      29.456  37.012  30.332  0.00  0.00    -0.134 NA
ATOM      4  C   UNL     1      29.470  35.652  30.433  0.00  0.00    +0.086 A 
ATOM      5  C   UNL     1      28.203  35.209  30.735  0.00  0.00    +0.139 A 
ATOM      6  N   UNL     1      27.434  36.349  30.799  0.00  0.00    -0.220 N 
ATOM      7  N   UNL     1      28.218  37.430  30.564  0.00  0.00    -0.061 NA
BRANCH   6   8
ATOM      8  C   UNL     1      26.034  36.469  31.003  0.00  0.00    +0.067 A 
ATOM      9  C   UNL     1      25.229  37.164  30.087  0.00  0.00    +0.030 A 
ATOM     10  C   UNL     1      23.875  37.375  30.363  0.00  0.00    +0.029 A 
ATOM     11  C   UNL     1      23.327  36.891  31.553  0.00  0.00    +0.094 A 
ATOM     12  C   UNL     1      24.097  36.121  32.428  0.00  0.00    +0.029 A 
ATOM     13  C   UNL     1      25.453  35.920  32.159  0.00  0.00    +0.030 A 
BRANCH  11  14
ATOM     14  S   UNL     1      21.619  37.224  31.937  0.00  0.00    +0.025 S 
ATOM     15  O   UNL     1      20.890  37.080  30.688  0.00  0.00    -0.164 OA
ATOM     16  O   UNL     1      21.271  36.421  33.093  0.00  0.00    -0.164 OA
BRANCH  14  17
ATOM     17  C   UNL     1      21.462  38.925  32.440  0.00  0.00    +0.094 A 
ATOM     18  C   UNL     1      21.425  39.953  31.497  0.00  0.00    +0.029 A 
ATOM     19  C   UNL     1      21.363  41.282  31.929  0.00  0.00    +0.024 A 
ATOM     20  C   UNL     1      21.292  41.596  33.293  0.00  0.00    +0.025 A 
ATOM     21  C   UNL     1      21.361  40.556  34.223  0.00  0.00    +0.024 A 
ATOM     22  C   UNL     1      21.425  39.223  33.805  0.00  0.00    +0.029 A 
BRANCH  20  23
ATOM     23  N   UNL     1      21.404  42.924  33.716  0.00  0.00    -0.358 N 
ATOM     24  H   UNL     1      21.083  43.613  33.044  0.00  0.00    +0.142 HD
ATOM     25  H   UNL     1      21.048  43.097  34.651  0.00  0.00    +0.142 HD
ENDBRANCH  20  23
ENDBRANCH  14  17
ENDBRANCH  11  14
ENDBRANCH   6   8
ENDBRANCH   2   4
ENDBRANCH   1   2
BRANCH   1  26
ATOM     26  O   UNL     1      31.087  32.396  30.116  0.00  0.00    -0.450 OA
BRANCH  26  27
ATOM     27  C   UNL     1      31.465  31.174  30.303  0.00  0.00    +0.400 C 
ATOM     28  N   UNL     1      31.673  30.434  29.163  0.00  0.00    -0.278 N 
ATOM     29  H   UNL     1      32.156  29.552  29.525  0.00  0.00    +0.152 HD
ATOM     30  O   UNL     1      31.677  30.638  31.388  0.00  0.00    -0.226 OA
BRANCH  28  31
ATOM     31  C   UNL     1      31.522  30.309  27.716  0.00  0.00    +0.152 C 
BRANCH  31  32
ATOM     32  C   UNL     1      30.858  29.012  27.211  0.00  0.00    +0.193 C 
ATOM     33  O   UNL     1      29.570  29.386  26.673  0.00  0.00    -0.219 OA
BRANCH  32  34
ATOM     34  C   UNL     1      31.552  28.255  26.057  0.00  0.00    +0.212 C 
ATOM     35  O   UNL     1      30.580  27.575  25.246  0.00  0.00    -0.218 OA
BRANCH  34  36
ATOM     36  C   UNL     1      32.417  29.190  25.128  0.00  0.00    +0.171 C 
ATOM     37  O   UNL     1      31.632  29.879  24.161  0.00  0.00    -0.343 OA
ATOM     38  C   UNL     1      32.157  30.574  23.069  0.00  0.00    +0.220 C 
ATOM     39  C   UNL     1      33.160  29.718  22.276  0.00  0.00    +0.076 C 
ATOM     40  C   UNL     1      34.206  29.190  23.272  0.00  0.00    +0.177 C 
ATOM     41  O   UNL     1      35.182  28.422  22.583  0.00  0.00    -0.221 OA
ATOM     42  C   UNL     1      33.510  28.351  24.389  0.00  0.00    +0.155 C 
BRANCH  42  43
ATOM     43  N   UNL     1      34.501  27.842  25.333  0.00  0.00    -0.202 NA
ATOM     44  C   UNL     1      34.912  26.567  25.556  0.00  0.00    +0.242 C 
ATOM     45  C   UNL     1      36.157  26.351  26.377  0.00  0.00    +0.096 C 
ATOM     46  O   UNL     1      34.268  25.630  25.088  0.00  0.00    -0.273 OA
ENDBRANCH  42  43
BRANCH  38  47
ATOM     47  C   UNL     1      32.788  32.019  23.464  0.00  0.00    +0.391 C 
ATOM     48  O   UNL     1      33.360  32.470  22.331  0.00  0.00    -0.243 OA
ATOM     49  O   UNL     1      32.253  32.344  24.648  0.00  0.00    -0.243 OA
ENDBRANCH  38  47
ENDBRANCH  34  36
ENDBRANCH  32  34
ENDBRANCH  31  32
ENDBRANCH  28  31
ENDBRANCH  26  27
ENDBRANCH   1  26
TORSDOF 14
