REMARK  Name = lig_assembled_60.pdb
REMARK  13 active torsions:
REMARK  status: ('A' for Active; 'I' for Inactive)
REMARK    1  A    between atoms: _2  and  _9
REMARK    2  A    between atoms: _3  and  _44
REMARK    3  A    between atoms: _6  and  _7
REMARK    4  A    between atoms: _6  and  _16
REMARK    5  A    between atoms: _12  and  _44
REMARK    6  A    between atoms: _16  and  _18
REMARK    7  A    between atoms: _17  and  _22
REMARK    8  A    between atoms: _18  and  _21
REMARK    9  A    between atoms: _26  and  _36
REMARK   10  A    between atoms: _28  and  _29
REMARK   11  A    between atoms: _30  and  _32
REMARK   12  A    between atoms: _32  and  _34
REMARK   13  A    between atoms: _34  and  _36
REMARK                            x       y       z     vdW  Elec       q    Type
REMARK                         _______ _______ _______ _____ _____    ______ ____
ROOT
ATOM      1  C   UNL     1      30.890  28.100  31.543  0.00  0.00    +0.400 C 
ATOM      2  N   UNL     1      31.815  27.168  31.136  0.00  0.00    -0.278 N 
ATOM      3  H   UNL     1      32.691  27.432  31.688  0.00  0.00    +0.152 HD
ATOM      4  O   UNL     1      31.180  28.830  32.488  0.00  0.00    -0.226 OA
ENDROOT
BRANCH   2   5
ATOM      5  C   UNL     1      32.126  25.998  30.319  0.00  0.00    +0.152 C 
BRANCH   5   6
ATOM      6  C   UNL     1      33.362  26.117  29.404  0.00  0.00    +0.193 C 
ATOM      7  O   UNL     1      34.158  24.931  29.625  0.00  0.00    -0.219 OA
BRANCH   6   8
ATOM      8  C   UNL     1      33.122  26.142  27.878  0.00  0.00    +0.212 C 
ATOM      9  O   UNL     1      33.678  24.968  27.264  0.00  0.00    -0.218 OA
BRANCH   8  10
ATOM     10  C   UNL     1      31.599  26.242  27.487  0.00  0.00    +0.171 C 
ATOM     11  O   UNL     1      31.224  25.292  26.495  0.00  0.00    -0.343 OA
ATOM     12  C   UNL     1      30.015  25.317  25.796  0.00  0.00    +0.220 C 
ATOM     13  C   UNL     1      29.736  26.703  25.189  0.00  0.00    +0.076 C 
ATOM     14  C   UNL     1      29.850  27.736  26.323  0.00  0.00    +0.177 C 
ATOM     15  O   UNL     1      29.560  29.034  25.823  0.00  0.00    -0.221 OA
ATOM     16  C   UNL     1      31.272  27.678  26.961  0.00  0.00    +0.155 C 
BRANCH  16  17
ATOM     17  N   UNL     1      31.387  28.662  28.034  0.00  0.00    -0.202 NA
ATOM     18  C   UNL     1      32.247  29.705  28.167  0.00  0.00    +0.242 C 
ATOM     19  C   UNL     1      31.958  30.739  29.224  0.00  0.00    +0.096 C 
ATOM     20  O   UNL     1      33.228  29.781  27.431  0.00  0.00    -0.273 OA
ENDBRANCH  16  17
BRANCH  12  21
ATOM     21  C   UNL     1      28.753  24.781  26.667  0.00  0.00    +0.391 C 
ATOM     22  O   UNL     1      27.664  25.223  26.009  0.00  0.00    -0.243 OA
ATOM     23  O   UNL     1      29.248  23.871  27.515  0.00  0.00    -0.243 OA
ENDBRANCH  12  21
ENDBRANCH   8  10
ENDBRANCH   6   8
ENDBRANCH   5   6
ENDBRANCH   2   5
BRANCH   1  24
ATOM     24  O   UNL     1      29.795  28.139  30.856  0.00  0.00    -0.450 OA
BRANCH  24  25
ATOM     25  C   UNL     1      28.639  27.364  30.646  0.00  0.00    +0.240 C 
BRANCH  25  26
ATOM     26  C   UNL     1      27.343  27.815  31.347  0.00  0.00    +0.100 C 
BRANCH  26  28
ATOM     27  N   UNL     1      25.268  28.290  30.083  0.00  0.00    -0.134 NA
ATOM     28  C   UNL     1      26.534  28.651  30.440  0.00  0.00    +0.086 A 
ATOM     29  C   UNL     1      26.848  29.847  29.839  0.00  0.00    +0.139 A 
ATOM     30  N   UNL     1      25.714  30.204  29.145  0.00  0.00    -0.220 N 
ATOM     31  N   UNL     1      24.779  29.233  29.288  0.00  0.00    -0.061 NA
BRANCH  30  32
ATOM     32  C   UNL     1      25.462  31.393  28.412  0.00  0.00    +0.067 A 
ATOM     33  C   UNL     1      24.517  31.406  27.374  0.00  0.00    +0.030 A 
ATOM     34  C   UNL     1      24.327  32.562  26.614  0.00  0.00    +0.030 A 
ATOM     35  C   UNL     1      25.071  33.709  26.898  0.00  0.00    +0.105 A 
ATOM     36  C   UNL     1      26.004  33.714  27.940  0.00  0.00    +0.030 A 
ATOM     37  C   UNL     1      26.193  32.557  28.700  0.00  0.00    +0.030 A 
BRANCH  35  38
ATOM     38  S   UNL     1      24.878  35.141  25.878  0.00  0.00    +0.056 S 
ATOM     39  O   UNL     1      25.533  34.918  24.612  0.00  0.00    -0.153 OA
ATOM     40  O   UNL     1      23.513  35.609  25.975  0.00  0.00    -0.153 OA
BRANCH  38  41
ATOM     41  N   UNL     1      25.813  36.270  26.694  0.00  0.00    -0.204 NA
ATOM     42  H   UNL     1      25.225  37.038  27.017  0.00  0.00    +0.144 HD
ATOM     43  H   UNL     1      26.590  36.566  26.101  0.00  0.00    +0.144 HD
ENDBRANCH  38  41
ENDBRANCH  35  38
ENDBRANCH  30  32
ENDBRANCH  26  28
ENDBRANCH  25  26
ENDBRANCH  24  25
ENDBRANCH   1  24
TORSDOF 13
