REMARK  Name = lig_assembled_81.pdb
REMARK  17 active torsions:
REMARK  status: ('A' for Active; 'I' for Inactive)
REMARK    1  A    between atoms: _2  and  _11
REMARK    2  A    between atoms: _7  and  _23
REMARK    3  A    between atoms: _8  and  _9
REMARK    4  A    between atoms: _8  and  _25
REMARK    5  A    between atoms: _13  and  _14
REMARK    6  A    between atoms: _20  and  _21
REMARK    7  A    between atoms: _21  and  _22
REMARK    8  A    between atoms: _22  and  _24
REMARK    9  A    between atoms: _23  and  _24
REMARK   10  A    between atoms: _25  and  _27
REMARK   11  A    between atoms: _26  and  _31
REMARK   12  A    between atoms: _27  and  _30
REMARK   13  A    between atoms: _35  and  _45
REMARK   14  A    between atoms: _37  and  _38
REMARK   15  A    between atoms: _39  and  _41
REMARK   16  A    between atoms: _41  and  _43
REMARK   17  A    between atoms: _43  and  _45
REMARK                            x       y       z     vdW  Elec       q    Type
REMARK                         _______ _______ _______ _____ _____    ______ ____
ROOT
ATOM      1  C   UNL     1      28.550  35.904  18.795  0.00  0.00    +0.096 C 
ENDROOT
BRANCH   1   3
ATOM      2  N   UNL     1      27.411  38.075  18.842  0.00  0.00    -0.133 NA
ATOM      3  C   UNL     1      28.533  37.360  18.549  0.00  0.00    +0.066 C 
ATOM      4  C   UNL     1      29.477  38.217  18.015  0.00  0.00    +0.120 C 
ATOM      5  N   UNL     1      28.915  39.480  18.139  0.00  0.00    -0.187 N 
ATOM      6  N   UNL     1      27.614  39.325  18.460  0.00  0.00    -0.010 NA
BRANCH   5   7
ATOM      7  C   UNL     1      29.495  40.745  17.787  0.00  0.00    +0.150 A 
ATOM      8  C   UNL     1      29.534  41.301  16.484  0.00  0.00    +0.022 A 
ATOM      9  C   UNL     1      30.245  42.529  16.421  0.00  0.00    +0.081 A 
ATOM     10  N   UNL     1      30.878  43.046  17.510  0.00  0.00    -0.214 NA
ATOM     11  C   UNL     1      30.791  42.418  18.670  0.00  0.00    +0.215 A 
ATOM     12  N   UNL     1      31.511  42.908  19.733  0.00  0.00    -0.327 N 
ATOM     13  H   UNL     1      31.734  43.884  19.606  0.00  0.00    +0.145 HD
ATOM     14  H   UNL     1      31.129  42.606  20.616  0.00  0.00    +0.145 HD
ATOM     15  N   UNL     1      30.053  41.346  18.874  0.00  0.00    -0.198 NA
BRANCH   9  16
ATOM     16  C   UNL     1      30.451  43.425  15.220  0.00  0.00    +0.001 A 
ATOM     17  C   UNL     1      29.482  44.293  14.683  0.00  0.00    +0.010 A 
ATOM     18  C   UNL     1      29.737  45.111  13.570  0.00  0.00    +0.001 A 
ATOM     19  C   UNL     1      30.991  45.140  12.989  0.00  0.00    +0.000 A 
ATOM     20  C   UNL     1      32.001  44.339  13.520  0.00  0.00    +0.001 A 
ATOM     21  C   UNL     1      31.724  43.494  14.604  0.00  0.00    +0.010 A 
ENDBRANCH   9  16
BRANCH   8  22
ATOM     22  C   UNL     1      28.832  40.812  15.215  0.00  0.00    +0.069 C 
BRANCH  22  23
ATOM     23  C   UNL     1      29.578  40.015  14.161  0.00  0.00    +0.164 C 
BRANCH  23  24
ATOM     24  O   UNL     1      29.427  40.454  12.807  0.00  0.00    -0.380 OA
BRANCH  24  25
ATOM     25  C   UNL     1      30.750  40.783  12.340  0.00  0.00    +0.156 C 
ATOM     26  C   UNL     1      30.716  41.832  11.254  0.00  0.00    +0.034 C 
ENDBRANCH  24  25
ENDBRANCH  23  24
ENDBRANCH  22  23
ENDBRANCH   8  22
ENDBRANCH   5   7
ENDBRANCH   1   3
BRANCH   1  27
ATOM     27  C   UNL     1      27.794  35.163  17.676  0.00  0.00    +0.240 C 
BRANCH  27  28
ATOM     28  O   UNL     1      28.025  35.578  16.350  0.00  0.00    -0.450 OA
BRANCH  28  29
ATOM     29  C   UNL     1      28.119  35.069  15.165  0.00  0.00    +0.400 C 
ATOM     30  N   UNL     1      26.931  34.890  14.498  0.00  0.00    -0.278 N 
ATOM     31  H   UNL     1      27.239  34.657  13.502  0.00  0.00    +0.152 HD
ATOM     32  O   UNL     1      29.160  34.766  14.587  0.00  0.00    -0.226 OA
BRANCH  30  33
ATOM     33  C   UNL     1      25.471  34.861  14.542  0.00  0.00    +0.152 C 
BRANCH  33  34
ATOM     34  C   UNL     1      24.759  34.471  13.231  0.00  0.00    +0.193 C 
ATOM     35  O   UNL     1      24.472  33.057  13.319  0.00  0.00    -0.219 OA
BRANCH  34  36
ATOM     36  C   UNL     1      23.390  35.124  12.939  0.00  0.00    +0.212 C 
ATOM     37  O   UNL     1      23.027  36.024  13.998  0.00  0.00    -0.218 OA
BRANCH  36  38
ATOM     38  C   UNL     1      23.353  35.911  11.573  0.00  0.00    +0.171 C 
ATOM     39  O   UNL     1      23.226  35.049  10.447  0.00  0.00    -0.343 OA
ATOM     40  C   UNL     1      23.410  35.451   9.122  0.00  0.00    +0.220 C 
ATOM     41  C   UNL     1      24.736  36.208   8.935  0.00  0.00    +0.076 C 
ATOM     42  C   UNL     1      24.768  37.347   9.967  0.00  0.00    +0.177 C 
ATOM     43  O   UNL     1      25.959  38.106   9.811  0.00  0.00    -0.221 OA
ATOM     44  C   UNL     1      24.651  36.768  11.411  0.00  0.00    +0.155 C 
BRANCH  44  45
ATOM     45  N   UNL     1      24.688  37.846  12.395  0.00  0.00    -0.202 NA
ATOM     46  C   UNL     1      25.739  38.353  13.089  0.00  0.00    +0.242 C 
ATOM     47  C   UNL     1      25.553  39.657  13.819  0.00  0.00    +0.096 C 
ATOM     48  O   UNL     1      26.807  37.744  13.104  0.00  0.00    -0.273 OA
ENDBRANCH  44  45
BRANCH  40  49
ATOM     49  C   UNL     1      22.155  36.287   8.519  0.00  0.00    +0.391 C 
ATOM     50  O   UNL     1      22.648  36.924   7.440  0.00  0.00    -0.243 OA
ATOM     51  O   UNL     1      21.063  35.801   9.122  0.00  0.00    -0.243 OA
ENDBRANCH  40  49
ENDBRANCH  36  38
ENDBRANCH  34  36
ENDBRANCH  33  34
ENDBRANCH  30  33
ENDBRANCH  28  29
ENDBRANCH  27  28
ENDBRANCH   1  27
TORSDOF 16
