REMARK  Name = lig_assembled_8.pdb
REMARK  11 active torsions:
REMARK  status: ('A' for Active; 'I' for Inactive)
REMARK    1  A    between atoms: _2  and  _8
REMARK    2  A    between atoms: _5  and  _6
REMARK    3  A    between atoms: _5  and  _13
REMARK    4  A    between atoms: _13  and  _15
REMARK    5  A    between atoms: _14  and  _19
REMARK    6  A    between atoms: _15  and  _18
REMARK    7  A    between atoms: _23  and  _33
REMARK    8  A    between atoms: _25  and  _26
REMARK    9  A    between atoms: _27  and  _29
REMARK   10  A    between atoms: _29  and  _31
REMARK   11  A    between atoms: _31  and  _33
REMARK                            x       y       z     vdW  Elec       q    Type
REMARK                         _______ _______ _______ _____ _____    ______ ____
ROOT
ATOM      1  C   UNL     1      28.831  33.839  20.705  0.00  0.00    +0.400 C 
ATOM      2  N   UNL     1      29.172  33.346  21.942  0.00  0.00    -0.278 N 
ATOM      3  H   UNL     1      29.098  34.202  22.578  0.00  0.00    +0.152 HD
ATOM      4  O   UNL     1      28.379  34.979  20.640  0.00  0.00    -0.226 OA
ENDROOT
BRANCH   1   5
ATOM      5  O   UNL     1      29.053  33.048  19.707  0.00  0.00    -0.450 OA
BRANCH   5   6
ATOM      6  C   UNL     1      28.337  32.373  18.699  0.00  0.00    +0.240 C 
BRANCH   6   7
ATOM      7  C   UNL     1      27.315  31.309  19.143  0.00  0.00    +0.100 C 
BRANCH   7   9
ATOM      8  N   UNL     1      27.414  30.258  16.912  0.00  0.00    -0.134 NA
ATOM      9  C   UNL     1      26.675  30.693  17.968  0.00  0.00    +0.086 A 
ATOM     10  C   UNL     1      25.346  30.441  17.713  0.00  0.00    +0.139 A 
ATOM     11  N   UNL     1      25.316  29.821  16.476  0.00  0.00    -0.219 N 
ATOM     12  N   UNL     1      26.585  29.741  16.017  0.00  0.00    -0.061 NA
BRANCH  11  13
ATOM     13  C   UNL     1      24.180  29.319  15.769  0.00  0.00    +0.081 A 
ATOM     14  C   UNL     1      23.467  28.240  16.338  0.00  0.00    +0.029 A 
ATOM     15  C   UNL     1      22.360  27.677  15.698  0.00  0.00    +0.002 A 
ATOM     16  C   UNL     1      21.937  28.175  14.477  0.00  0.00    +0.001 A 
ATOM     17  C   UNL     1      22.618  29.243  13.899  0.00  0.00    +0.017 A 
ATOM     18  C   UNL     1      23.736  29.824  14.530  0.00  0.00    +0.043 A 
ATOM     19 BR   UNL     1      24.495  31.271  13.551  0.00  0.00    -0.048 Br
ENDBRANCH  11  13
ENDBRANCH   7   9
ENDBRANCH   6   7
ENDBRANCH   5   6
ENDBRANCH   1   5
BRANCH   2  20
ATOM     20  C   UNL     1      29.566  32.202  22.761  0.00  0.00    +0.152 C 
BRANCH  20  21
ATOM     21  C   UNL     1      29.061  30.823  22.289  0.00  0.00    +0.193 C 
ATOM     22  O   UNL     1      30.146  30.212  21.557  0.00  0.00    -0.219 OA
BRANCH  21  23
ATOM     23  C   UNL     1      28.695  29.786  23.373  0.00  0.00    +0.212 C 
ATOM     24  O   UNL     1      28.487  30.435  24.638  0.00  0.00    -0.218 OA
BRANCH  23  25
ATOM     25  C   UNL     1      27.411  28.942  23.023  0.00  0.00    +0.171 C 
ATOM     26  O   UNL     1      27.694  27.849  22.155  0.00  0.00    -0.343 OA
ATOM     27  C   UNL     1      26.722  27.092  21.497  0.00  0.00    +0.220 C 
ATOM     28  C   UNL     1      25.715  27.984  20.749  0.00  0.00    +0.076 C 
ATOM     29  C   UNL     1      25.167  29.009  21.755  0.00  0.00    +0.177 C 
ATOM     30  O   UNL     1      24.200  29.835  21.123  0.00  0.00    -0.221 OA
ATOM     31  C   UNL     1      26.335  29.856  22.350  0.00  0.00    +0.155 C 
BRANCH  31  32
ATOM     32  N   UNL     1      25.817  30.835  23.302  0.00  0.00    -0.202 NA
ATOM     33  C   UNL     1      25.599  32.166  23.145  0.00  0.00    +0.242 C 
ATOM     34  C   UNL     1      24.783  32.884  24.189  0.00  0.00    +0.096 C 
ATOM     35  O   UNL     1      26.064  32.747  22.167  0.00  0.00    -0.273 OA
ENDBRANCH  31  32
BRANCH  27  36
ATOM     36  C   UNL     1      25.969  26.024  22.463  0.00  0.00    +0.391 C 
ATOM     37  O   UNL     1      24.839  25.697  21.806  0.00  0.00    -0.243 OA
ATOM     38  O   UNL     1      26.874  25.650  23.376  0.00  0.00    -0.243 OA
ENDBRANCH  27  36
ENDBRANCH  23  25
ENDBRANCH  21  23
ENDBRANCH  20  21
ENDBRANCH   2  20
TORSDOF 11
