REMARK  Name = lig_assembled_80.pdb
REMARK  11 active torsions:
REMARK  status: ('A' for Active; 'I' for Inactive)
REMARK    1  A    between atoms: _2  and  _9
REMARK    2  A    between atoms: _6  and  _7
REMARK    3  A    between atoms: _6  and  _19
REMARK    4  A    between atoms: _19  and  _21
REMARK    5  A    between atoms: _20  and  _25
REMARK    6  A    between atoms: _21  and  _24
REMARK    7  A    between atoms: _29  and  _39
REMARK    8  A    between atoms: _31  and  _32
REMARK    9  A    between atoms: _33  and  _35
REMARK   10  A    between atoms: _35  and  _37
REMARK   11  A    between atoms: _37  and  _39
REMARK                            x       y       z     vdW  Elec       q    Type
REMARK                         _______ _______ _______ _____ _____    ______ ____
ROOT
ATOM      1  C   UNL     1      29.478  37.566  21.967  0.00  0.00    +0.400 C 
ATOM      2  N   UNL     1      28.604  38.618  21.829  0.00  0.00    -0.278 N 
ATOM      3  H   UNL     1      27.974  38.531  22.689  0.00  0.00    +0.152 HD
ATOM      4  O   UNL     1      29.471  36.942  23.025  0.00  0.00    -0.226 OA
ENDROOT
BRANCH   1   5
ATOM      5  O   UNL     1      30.215  37.312  20.936  0.00  0.00    -0.450 OA
BRANCH   5   6
ATOM      6  C   UNL     1      31.005  37.997  19.992  0.00  0.00    +0.240 C 
BRANCH   6   7
ATOM      7  C   UNL     1      31.418  37.232  18.721  0.00  0.00    +0.100 C 
BRANCH   7   9
ATOM      8  N   UNL     1      33.348  37.332  17.193  0.00  0.00    -0.134 NA
ATOM      9  C   UNL     1      32.865  37.389  18.471  0.00  0.00    +0.086 A 
ATOM     10  C   UNL     1      33.904  37.608  19.347  0.00  0.00    +0.134 A 
ATOM     11  N   UNL     1      35.011  37.617  18.541  0.00  0.00    -0.240 N 
ATOM     12  N   UNL     1      34.664  37.487  17.242  0.00  0.00    -0.065 NA
BRANCH  11  13
ATOM     13  C   UNL     1      36.410  37.912  18.871  0.00  0.00    +0.195 C 
ATOM     14  C   UNL     1      36.434  38.987  19.949  0.00  0.00    +0.041 C 
ATOM     15  C   UNL     1      37.828  39.547  20.131  0.00  0.00    +0.039 C 
ATOM     16  C   UNL     1      38.606  38.679  21.073  0.00  0.00    -0.026 A 
ATOM     17  C   UNL     1      38.936  37.356  20.778  0.00  0.00    +0.037 A 
ATOM     18  C   UNL     1      39.770  36.645  21.657  0.00  0.00    +0.023 A 
ATOM     19  C   UNL     1      40.173  37.197  22.872  0.00  0.00    +0.002 A 
ATOM     20  C   UNL     1      39.783  38.487  23.202  0.00  0.00    +0.000 A 
ATOM     21  N   UNL     1      38.440  36.609  19.696  0.00  0.00    -0.284 N 
ATOM     22  H   UNL     1      38.813  35.668  19.624  0.00  0.00    +0.155 HD
ATOM     23  C   UNL     1      39.028  39.232  22.298  0.00  0.00    +0.005 A 
ATOM     24  C   UNL     1      37.207  36.636  19.107  0.00  0.00    +0.242 C 
ATOM     25  O   UNL     1      36.822  35.544  18.670  0.00  0.00    -0.273 OA
ENDBRANCH  11  13
ENDBRANCH   7   9
ENDBRANCH   6   7
ENDBRANCH   5   6
ENDBRANCH   1   5
BRANCH   2  26
ATOM     26  C   UNL     1      28.169  39.782  21.061  0.00  0.00    +0.152 C 
BRANCH  26  27
ATOM     27  C   UNL     1      27.692  39.506  19.621  0.00  0.00    +0.193 C 
ATOM     28  O   UNL     1      26.253  39.384  19.676  0.00  0.00    -0.219 OA
BRANCH  27  29
ATOM     29  C   UNL     1      27.945  40.602  18.562  0.00  0.00    +0.212 C 
ATOM     30  O   UNL     1      27.924  41.903  19.170  0.00  0.00    -0.218 OA
BRANCH  29  31
ATOM     31  C   UNL     1      29.311  40.425  17.795  0.00  0.00    +0.171 C 
ATOM     32  O   UNL     1      30.116  41.599  17.835  0.00  0.00    -0.343 OA
ATOM     33  C   UNL     1      31.251  41.803  17.045  0.00  0.00    +0.220 C 
ATOM     34  C   UNL     1      30.968  41.527  15.558  0.00  0.00    +0.076 C 
ATOM     35  C   UNL     1      30.354  40.121  15.457  0.00  0.00    +0.177 C 
ATOM     36  O   UNL     1      30.109  39.799  14.096  0.00  0.00    -0.221 OA
ATOM     37  C   UNL     1      29.044  40.045  16.302  0.00  0.00    +0.155 C 
BRANCH  37  38
ATOM     38  N   UNL     1      28.453  38.712  16.203  0.00  0.00    -0.202 NA
ATOM     39  C   UNL     1      27.225  38.338  15.765  0.00  0.00    +0.242 C 
ATOM     40  C   UNL     1      26.977  36.878  15.490  0.00  0.00    +0.096 C 
ATOM     41  O   UNL     1      26.352  39.189  15.604  0.00  0.00    -0.273 OA
ENDBRANCH  37  38
BRANCH  33  42
ATOM     42  C   UNL     1      32.557  40.989  17.566  0.00  0.00    +0.391 C 
ATOM     43  O   UNL     1      33.306  40.794  16.464  0.00  0.00    -0.243 OA
ATOM     44  O   UNL     1      32.544  41.084  18.901  0.00  0.00    -0.243 OA
ENDBRANCH  33  42
ENDBRANCH  29  31
ENDBRANCH  27  29
ENDBRANCH  26  27
ENDBRANCH   2  26
TORSDOF 11
