REMARK  Name = lig_assembled_67.pdb
REMARK  13 active torsions:
REMARK  status: ('A' for Active; 'I' for Inactive)
REMARK    1  A    between atoms: _2  and  _8
REMARK    2  A    between atoms: _5  and  _6
REMARK    3  A    between atoms: _5  and  _14
REMARK    4  A    between atoms: _8  and  _9
REMARK    5  A    between atoms: _9  and  _10
REMARK    6  A    between atoms: _14  and  _16
REMARK    7  A    between atoms: _15  and  _20
REMARK    8  A    between atoms: _16  and  _19
REMARK    9  A    between atoms: _24  and  _34
REMARK   10  A    between atoms: _26  and  _27
REMARK   11  A    between atoms: _28  and  _30
REMARK   12  A    between atoms: _30  and  _32
REMARK   13  A    between atoms: _32  and  _34
REMARK                            x       y       z     vdW  Elec       q    Type
REMARK                         _______ _______ _______ _____ _____    ______ ____
ROOT
ATOM      1  C   UNL     1      26.729  41.325  23.180  0.00  0.00    +0.400 C 
ATOM      2  N   UNL     1      28.094  41.171  23.248  0.00  0.00    -0.278 N 
ATOM      3  H   UNL     1      28.445  42.164  23.429  0.00  0.00    +0.152 HD
ATOM      4  O   UNL     1      26.252  42.411  23.498  0.00  0.00    -0.226 OA
ENDROOT
BRANCH   2   5
ATOM      5  C   UNL     1      29.249  40.279  23.200  0.00  0.00    +0.152 C 
BRANCH   5   6
ATOM      6  C   UNL     1      29.806  39.815  24.562  0.00  0.00    +0.193 C 
ATOM      7  O   UNL     1      31.210  39.539  24.364  0.00  0.00    -0.219 OA
BRANCH   6   8
ATOM      8  C   UNL     1      29.772  40.824  25.730  0.00  0.00    +0.212 C 
ATOM      9  O   UNL     1      28.443  40.928  26.266  0.00  0.00    -0.218 OA
BRANCH   8  10
ATOM     10  C   UNL     1      30.760  40.457  26.902  0.00  0.00    +0.171 C 
ATOM     11  O   UNL     1      30.087  39.932  28.042  0.00  0.00    -0.343 OA
ATOM     12  C   UNL     1      30.680  39.754  29.294  0.00  0.00    +0.220 C 
ATOM     13  C   UNL     1      31.401  41.027  29.770  0.00  0.00    +0.076 C 
ATOM     14  C   UNL     1      32.366  41.457  28.653  0.00  0.00    +0.177 C 
ATOM     15  O   UNL     1      33.089  42.611  29.059  0.00  0.00    -0.221 OA
ATOM     16  C   UNL     1      31.577  41.719  27.332  0.00  0.00    +0.155 C 
BRANCH  16  17
ATOM     17  N   UNL     1      32.489  42.135  26.270  0.00  0.00    -0.202 NA
ATOM     18  C   UNL     1      32.578  43.321  25.617  0.00  0.00    +0.242 C 
ATOM     19  C   UNL     1      33.797  43.584  24.773  0.00  0.00    +0.096 C 
ATOM     20  O   UNL     1      31.673  44.146  25.730  0.00  0.00    -0.273 OA
ENDBRANCH  16  17
BRANCH  12  21
ATOM     21  C   UNL     1      31.650  38.454  29.372  0.00  0.00    +0.391 C 
ATOM     22  O   UNL     1      32.364  38.620  30.502  0.00  0.00    -0.243 OA
ATOM     23  O   UNL     1      31.173  37.582  28.475  0.00  0.00    -0.243 OA
ENDBRANCH  12  21
ENDBRANCH   8  10
ENDBRANCH   6   8
ENDBRANCH   5   6
ENDBRANCH   2   5
BRANCH   1  24
ATOM     24  O   UNL     1      26.071  40.300  22.748  0.00  0.00    -0.450 OA
BRANCH  24  25
ATOM     25  C   UNL     1      25.245  39.273  23.247  0.00  0.00    +0.240 C 
BRANCH  25  26
ATOM     26  C   UNL     1      24.663  38.272  22.231  0.00  0.00    +0.100 C 
BRANCH  26  28
ATOM     27  N   UNL     1      22.684  39.757  22.275  0.00  0.00    -0.134 NA
ATOM     28  C   UNL     1      23.222  38.520  22.032  0.00  0.00    +0.086 A 
ATOM     29  C   UNL     1      22.225  37.670  21.610  0.00  0.00    +0.133 A 
ATOM     30  N   UNL     1      21.106  38.446  21.623  0.00  0.00    -0.251 N 
ATOM     31  N   UNL     1      21.381  39.698  22.024  0.00  0.00    -0.065 NA
BRANCH  30  32
ATOM     32  C   UNL     1      19.756  38.077  21.257  0.00  0.00    +0.150 C 
BRANCH  32  33
ATOM     33  C   UNL     1      19.678  37.209  20.003  0.00  0.00    +0.084 C 
BRANCH  33  34
ATOM     34  C   UNL     1      18.980  35.880  20.259  0.00  0.00    +0.252 C 
ATOM     35  O   UNL     1      18.695  35.226  19.017  0.00  0.00    -0.349 OA
ATOM     36  C   UNL     1      18.729  33.843  19.364  0.00  0.00    +0.191 C 
ATOM     37  C   UNL     1      19.832  33.769  20.389  0.00  0.00    +0.191 C 
ATOM     38  O   UNL     1      19.806  35.028  21.061  0.00  0.00    -0.349 OA
ENDBRANCH  33  34
ENDBRANCH  32  33
ENDBRANCH  30  32
ENDBRANCH  26  28
ENDBRANCH  25  26
ENDBRANCH  24  25
ENDBRANCH   1  24
TORSDOF 13
