REMARK  Name = lig_assembled_91.pdb
REMARK  11 active torsions:
REMARK  status: ('A' for Active; 'I' for Inactive)
REMARK    1  A    between atoms: _2  and  _9
REMARK    2  A    between atoms: _6  and  _7
REMARK    3  A    between atoms: _6  and  _21
REMARK    4  A    between atoms: _21  and  _23
REMARK    5  A    between atoms: _22  and  _27
REMARK    6  A    between atoms: _23  and  _26
REMARK    7  A    between atoms: _31  and  _41
REMARK    8  A    between atoms: _33  and  _34
REMARK    9  A    between atoms: _35  and  _37
REMARK   10  A    between atoms: _37  and  _39
REMARK   11  A    between atoms: _39  and  _41
REMARK                            x       y       z     vdW  Elec       q    Type
REMARK                         _______ _______ _______ _____ _____    ______ ____
ROOT
ATOM      1  C   UNL     1      27.787  48.789  28.085  0.00  0.00    +0.400 C 
ATOM      2  N   UNL     1      28.876  49.447  28.605  0.00  0.00    -0.278 N 
ATOM      3  H   UNL     1      28.642  49.531  29.645  0.00  0.00    +0.152 HD
ATOM      4  O   UNL     1      26.965  48.320  28.869  0.00  0.00    -0.226 OA
ENDROOT
BRANCH   1   5
ATOM      5  O   UNL     1      27.718  48.753  26.795  0.00  0.00    -0.450 OA
BRANCH   5   6
ATOM      6  C   UNL     1      27.132  47.975  25.777  0.00  0.00    +0.240 C 
BRANCH   6   7
ATOM      7  C   UNL     1      27.483  46.476  25.738  0.00  0.00    +0.100 C 
BRANCH   7   9
ATOM      8  N   UNL     1      29.258  47.131  24.152  0.00  0.00    -0.134 NA
ATOM      9  C   UNL     1      28.392  46.186  24.613  0.00  0.00    +0.086 A 
ATOM     10  C   UNL     1      28.564  45.032  23.884  0.00  0.00    +0.139 A 
ATOM     11  N   UNL     1      29.525  45.330  22.939  0.00  0.00    -0.219 N 
ATOM     12  N   UNL     1      29.939  46.607  23.144  0.00  0.00    -0.060 NA
BRANCH  11  13
ATOM     13  C   UNL     1      30.053  44.518  21.888  0.00  0.00    +0.085 A 
ATOM     14  C   UNL     1      29.414  44.498  20.596  0.00  0.00    +0.026 A 
ATOM     15  C   UNL     1      30.000  43.645  19.641  0.00  0.00    +0.074 A 
ATOM     16  C   UNL     1      29.473  43.540  18.363  0.00  0.00    +0.028 A 
ATOM     17  C   UNL     1      28.357  44.266  17.958  0.00  0.00    +0.002 A 
ATOM     18  C   UNL     1      27.771  45.141  18.850  0.00  0.00    +0.001 A 
ATOM     19  N   UNL     1      31.087  42.911  19.869  0.00  0.00    -0.247 NA
ATOM     20  C   UNL     1      31.691  42.954  21.055  0.00  0.00    +0.074 A 
ATOM     21  C   UNL     1      32.816  42.145  21.184  0.00  0.00    +0.028 A 
ATOM     22  C   UNL     1      33.533  42.054  22.373  0.00  0.00    +0.002 A 
ATOM     23  C   UNL     1      33.108  42.781  23.468  0.00  0.00    +0.001 A 
ATOM     24  C   UNL     1      31.976  43.595  23.355  0.00  0.00    +0.012 A 
ATOM     25  C   UNL     1      28.301  45.273  20.138  0.00  0.00    +0.012 A 
ATOM     26  C   UNL     1      31.235  43.726  22.136  0.00  0.00    +0.026 A 
ENDBRANCH  11  13
ENDBRANCH   7   9
ENDBRANCH   6   7
ENDBRANCH   5   6
ENDBRANCH   1   5
BRANCH   2  27
ATOM     27  C   UNL     1      30.185  50.057  28.382  0.00  0.00    +0.152 C 
BRANCH  27  28
ATOM     28  C   UNL     1      31.334  49.089  28.034  0.00  0.00    +0.193 C 
ATOM     29  O   UNL     1      32.511  49.900  27.823  0.00  0.00    -0.219 OA
BRANCH  28  30
ATOM     30  C   UNL     1      31.760  48.067  29.111  0.00  0.00    +0.212 C 
ATOM     31  O   UNL     1      30.643  47.246  29.493  0.00  0.00    -0.218 OA
BRANCH  30  32
ATOM     32  C   UNL     1      32.940  47.129  28.650  0.00  0.00    +0.171 C 
ATOM     33  O   UNL     1      32.493  45.830  28.275  0.00  0.00    -0.343 OA
ATOM     34  C   UNL     1      33.336  44.737  28.062  0.00  0.00    +0.220 C 
ATOM     35  C   UNL     1      34.311  44.532  29.235  0.00  0.00    +0.076 C 
ATOM     36  C   UNL     1      35.032  45.869  29.476  0.00  0.00    +0.177 C 
ATOM     37  O   UNL     1      35.976  45.724  30.527  0.00  0.00    -0.221 OA
ATOM     38  C   UNL     1      33.994  46.989  29.797  0.00  0.00    +0.155 C 
BRANCH  38  39
ATOM     39  N   UNL     1      34.675  48.259  30.034  0.00  0.00    -0.202 NA
ATOM     40  C   UNL     1      34.739  49.013  31.160  0.00  0.00    +0.242 C 
ATOM     41  C   UNL     1      35.751  50.127  31.220  0.00  0.00    +0.096 C 
ATOM     42  O   UNL     1      33.979  48.772  32.097  0.00  0.00    -0.273 OA
ENDBRANCH  38  39
BRANCH  34  43
ATOM     43  C   UNL     1      34.117  44.790  26.639  0.00  0.00    +0.391 C 
ATOM     44  O   UNL     1      34.999  43.772  26.688  0.00  0.00    -0.243 OA
ATOM     45  O   UNL     1      33.403  45.607  25.855  0.00  0.00    -0.243 OA
ENDBRANCH  34  43
ENDBRANCH  30  32
ENDBRANCH  28  30
ENDBRANCH  27  28
ENDBRANCH   2  27
TORSDOF 11
