REMARK  Name = lig_assembled_92.pdb
REMARK  13 active torsions:
REMARK  status: ('A' for Active; 'I' for Inactive)
REMARK    1  A    between atoms: _2  and  _10
REMARK    2  A    between atoms: _3  and  _49
REMARK    3  A    between atoms: _7  and  _8
REMARK    4  A    between atoms: _7  and  _20
REMARK    5  A    between atoms: _13  and  _49
REMARK    6  A    between atoms: _20  and  _22
REMARK    7  A    between atoms: _21  and  _26
REMARK    8  A    between atoms: _22  and  _25
REMARK    9  A    between atoms: _30  and  _40
REMARK   10  A    between atoms: _32  and  _33
REMARK   11  A    between atoms: _34  and  _36
REMARK   12  A    between atoms: _36  and  _38
REMARK   13  A    between atoms: _38  and  _40
REMARK                            x       y       z     vdW  Elec       q    Type
REMARK                         _______ _______ _______ _____ _____    ______ ____
ROOT
ATOM      1  O   UNL     1      29.321  31.844  23.226  0.00  0.00    -0.450 OA
ENDROOT
BRANCH   1   2
ATOM      2  C   UNL     1      29.010  33.042  22.852  0.00  0.00    +0.400 C 
ATOM      3  N   UNL     1      29.297  33.350  21.543  0.00  0.00    -0.278 N 
ATOM      4  H   UNL     1      28.794  34.281  21.392  0.00  0.00    +0.152 HD
ATOM      5  O   UNL     1      28.464  33.898  23.543  0.00  0.00    -0.226 OA
BRANCH   3   6
ATOM      6  C   UNL     1      29.976  32.992  20.301  0.00  0.00    +0.152 C 
BRANCH   6   7
ATOM      7  C   UNL     1      30.655  34.149  19.539  0.00  0.00    +0.193 C 
ATOM      8  O   UNL     1      32.025  34.199  19.995  0.00  0.00    -0.219 OA
BRANCH   7   9
ATOM      9  C   UNL     1      30.764  34.028  18.003  0.00  0.00    +0.212 C 
ATOM     10  O   UNL     1      30.949  32.656  17.620  0.00  0.00    -0.218 OA
BRANCH   9  11
ATOM     11  C   UNL     1      29.507  34.598  17.242  0.00  0.00    +0.171 C 
ATOM     12  O   UNL     1      29.048  35.831  17.787  0.00  0.00    -0.343 OA
ATOM     13  C   UNL     1      27.826  36.427  17.470  0.00  0.00    +0.220 C 
ATOM     14  C   UNL     1      26.656  35.437  17.605  0.00  0.00    +0.076 C 
ATOM     15  C   UNL     1      27.005  34.192  16.773  0.00  0.00    +0.177 C 
ATOM     16  O   UNL     1      25.936  33.258  16.831  0.00  0.00    -0.221 OA
ATOM     17  C   UNL     1      28.338  33.561  17.282  0.00  0.00    +0.155 C 
BRANCH  17  18
ATOM     18  N   UNL     1      28.669  32.374  16.498  0.00  0.00    -0.202 NA
ATOM     19  C   UNL     1      28.484  31.061  16.791  0.00  0.00    +0.242 C 
ATOM     20  C   UNL     1      28.645  30.052  15.684  0.00  0.00    +0.096 C 
ATOM     21  O   UNL     1      28.192  30.730  17.938  0.00  0.00    -0.273 OA
ENDBRANCH  17  18
BRANCH  13  22
ATOM     22  C   UNL     1      27.821  37.162  16.021  0.00  0.00    +0.391 C 
ATOM     23  O   UNL     1      26.529  37.166  15.638  0.00  0.00    -0.243 OA
ATOM     24  O   UNL     1      29.021  37.742  15.896  0.00  0.00    -0.243 OA
ENDBRANCH  13  22
ENDBRANCH   9  11
ENDBRANCH   7   9
ENDBRANCH   6   7
ENDBRANCH   3   6
ENDBRANCH   1   2
BRANCH   1  25
ATOM     25  C   UNL     1      30.468  31.047  23.411  0.00  0.00    +0.240 C 
BRANCH  25  26
ATOM     26  C   UNL     1      30.638  29.822  22.493  0.00  0.00    +0.100 C 
BRANCH  26  28
ATOM     27  N   UNL     1      28.497  28.705  23.056  0.00  0.00    -0.134 NA
ATOM     28  C   UNL     1      29.321  29.269  22.126  0.00  0.00    +0.086 A 
ATOM     29  C   UNL     1      28.707  29.223  20.896  0.00  0.00    +0.139 A 
ATOM     30  N   UNL     1      27.483  28.641  21.130  0.00  0.00    -0.220 N 
ATOM     31  N   UNL     1      27.384  28.320  22.444  0.00  0.00    -0.061 NA
BRANCH  30  32
ATOM     32  C   UNL     1      26.425  28.414  20.213  0.00  0.00    +0.067 A 
ATOM     33  C   UNL     1      26.703  28.073  18.881  0.00  0.00    +0.030 A 
ATOM     34  C   UNL     1      25.663  27.908  17.968  0.00  0.00    +0.031 A 
ATOM     35  C   UNL     1      24.340  28.071  18.384  0.00  0.00    +0.109 A 
ATOM     36  C   UNL     1      24.047  28.400  19.709  0.00  0.00    +0.031 A 
ATOM     37  C   UNL     1      25.090  28.561  20.628  0.00  0.00    +0.030 A 
BRANCH  35  38
ATOM     38  S   UNL     1      23.055  28.004  17.164  0.00  0.00    +0.074 S 
ATOM     39  O   UNL     1      23.114  26.697  16.539  0.00  0.00    -0.150 OA
ATOM     40  O   UNL     1      21.824  28.465  17.763  0.00  0.00    -0.150 OA
BRANCH  38  41
ATOM     41  N   UNL     1      23.582  29.081  15.976  0.00  0.00    -0.194 N 
ATOM     42  H   UNL     1      23.682  28.536  15.123  0.00  0.00    +0.176 HD
ATOM     43  C   UNL     1      22.717  30.186  15.839  0.00  0.00    +0.177 A 
ATOM     44  S   UNL     1      21.510  30.269  14.631  0.00  0.00    -0.059 S 
ATOM     45  C   UNL     1      21.141  31.865  15.143  0.00  0.00    +0.068 A 
ATOM     46  C   UNL     1      22.016  32.242  16.141  0.00  0.00    +0.120 A 
ATOM     47  N   UNL     1      22.899  31.264  16.560  0.00  0.00    -0.232 NA
ENDBRANCH  38  41
ENDBRANCH  35  38
ENDBRANCH  30  32
ENDBRANCH  26  28
ENDBRANCH  25  26
ENDBRANCH   1  25
TORSDOF 13
