REMARK  Name = lig_assembled_86.pdb
REMARK  12 active torsions:
REMARK  status: ('A' for Active; 'I' for Inactive)
REMARK    1  A    between atoms: _2  and  _9
REMARK    2  A    between atoms: _3  and  _12
REMARK    3  A    between atoms: _6  and  _7
REMARK    4  A    between atoms: _6  and  _16
REMARK    5  A    between atoms: _16  and  _18
REMARK    6  A    between atoms: _17  and  _22
REMARK    7  A    between atoms: _18  and  _21
REMARK    8  A    between atoms: _26  and  _36
REMARK    9  A    between atoms: _28  and  _29
REMARK   10  A    between atoms: _30  and  _32
REMARK   11  A    between atoms: _32  and  _34
REMARK   12  A    between atoms: _34  and  _36
REMARK                            x       y       z     vdW  Elec       q    Type
REMARK                         _______ _______ _______ _____ _____    ______ ____
ROOT
ATOM      1  C   UNL     1      25.854  39.348  21.765  0.00  0.00    +0.400 C 
ATOM      2  N   UNL     1      26.918  38.729  21.152  0.00  0.00    -0.278 N 
ATOM      3  H   UNL     1      27.703  39.451  21.232  0.00  0.00    +0.152 HD
ATOM      4  O   UNL     1      26.064  40.395  22.373  0.00  0.00    -0.226 OA
ENDROOT
BRANCH   1   5
ATOM      5  O   UNL     1      24.707  38.772  21.611  0.00  0.00    -0.450 OA
BRANCH   5   6
ATOM      6  C   UNL     1      23.989  38.067  20.625  0.00  0.00    +0.240 C 
BRANCH   6   7
ATOM      7  C   UNL     1      23.276  36.771  21.054  0.00  0.00    +0.100 C 
BRANCH   7   9
ATOM      8  N   UNL     1      22.401  34.779  19.863  0.00  0.00    -0.134 NA
ATOM      9  C   UNL     1      23.341  35.772  19.971  0.00  0.00    +0.086 A 
ATOM     10  C   UNL     1      24.246  35.644  18.944  0.00  0.00    +0.134 A 
ATOM     11  N   UNL     1      23.784  34.582  18.227  0.00  0.00    -0.248 N 
ATOM     12  N   UNL     1      22.693  34.044  18.798  0.00  0.00    -0.065 NA
BRANCH  11  13
ATOM     13  C   UNL     1      24.335  34.045  16.992  0.00  0.00    +0.112 C 
ATOM     14  C   UNL     1      24.909  32.627  17.187  0.00  0.00    +0.045 C 
ATOM     15  C   UNL     1      24.503  31.619  16.109  0.00  0.00    +0.059 C 
ATOM     16  C   UNL     1      23.061  31.143  16.313  0.00  0.00    +0.020 C 
ATOM     17  C   UNL     1      22.223  32.068  15.434  0.00  0.00    +0.020 C 
ATOM     18  C   UNL     1      23.231  33.061  14.852  0.00  0.00    +0.059 C 
ATOM     19  N   UNL     1      24.423  32.216  14.776  0.00  0.00    -0.299 NA
ATOM     20  C   UNL     1      25.628  32.844  14.268  0.00  0.00    +0.105 C 
ATOM     21  C   UNL     1      23.412  34.275  15.772  0.00  0.00    +0.045 C 
ENDBRANCH  11  13
ENDBRANCH   7   9
ENDBRANCH   6   7
ENDBRANCH   5   6
ENDBRANCH   1   5
BRANCH   2  22
ATOM     22  C   UNL     1      27.448  37.551  20.471  0.00  0.00    +0.152 C 
BRANCH  22  23
ATOM     23  C   UNL     1      28.491  37.818  19.365  0.00  0.00    +0.193 C 
ATOM     24  O   UNL     1      29.161  39.049  19.714  0.00  0.00    -0.219 OA
BRANCH  23  25
ATOM     25  C   UNL     1      29.633  36.791  19.198  0.00  0.00    +0.212 C 
ATOM     26  O   UNL     1      29.464  35.698  20.115  0.00  0.00    -0.218 OA
BRANCH  25  27
ATOM     27  C   UNL     1      29.741  36.211  17.736  0.00  0.00    +0.171 C 
ATOM     28  O   UNL     1      28.530  35.605  17.296  0.00  0.00    -0.343 OA
ATOM     29  C   UNL     1      28.418  34.807  16.155  0.00  0.00    +0.220 C 
ATOM     30  C   UNL     1      29.487  33.700  16.125  0.00  0.00    +0.076 C 
ATOM     31  C   UNL     1      30.856  34.375  16.310  0.00  0.00    +0.177 C 
ATOM     32  O   UNL     1      31.886  33.398  16.250  0.00  0.00    -0.221 OA
ATOM     33  C   UNL     1      30.892  35.155  17.661  0.00  0.00    +0.155 C 
BRANCH  33  34
ATOM     34  N   UNL     1      32.194  35.791  17.844  0.00  0.00    -0.202 NA
ATOM     35  C   UNL     1      33.161  35.542  18.764  0.00  0.00    +0.242 C 
ATOM     36  C   UNL     1      34.526  36.140  18.547  0.00  0.00    +0.096 C 
ATOM     37  O   UNL     1      32.904  34.840  19.740  0.00  0.00    -0.273 OA
ENDBRANCH  33  34
BRANCH  29  38
ATOM     38  C   UNL     1      28.398  35.656  14.771  0.00  0.00    +0.391 C 
ATOM     39  O   UNL     1      28.540  36.941  15.149  0.00  0.00    -0.243 OA
ATOM     40  O   UNL     1      28.552  34.762  13.786  0.00  0.00    -0.243 OA
ENDBRANCH  29  38
ENDBRANCH  25  27
ENDBRANCH  23  25
ENDBRANCH  22  23
ENDBRANCH   2  22
TORSDOF 11
