REMARK  Name = lig_assembled_27.pdb
REMARK  11 active torsions:
REMARK  status: ('A' for Active; 'I' for Inactive)
REMARK    1  A    between atoms: _2  and  _8
REMARK    2  A    between atoms: _5  and  _6
REMARK    3  A    between atoms: _5  and  _13
REMARK    4  A    between atoms: _13  and  _15
REMARK    5  A    between atoms: _14  and  _19
REMARK    6  A    between atoms: _15  and  _18
REMARK    7  A    between atoms: _23  and  _33
REMARK    8  A    between atoms: _25  and  _26
REMARK    9  A    between atoms: _27  and  _29
REMARK   10  A    between atoms: _29  and  _31
REMARK   11  A    between atoms: _31  and  _33
REMARK                            x       y       z     vdW  Elec       q    Type
REMARK                         _______ _______ _______ _____ _____    ______ ____
ROOT
ATOM      1  C   UNL     1      28.524  40.846  24.001  0.00  0.00    +0.400 C 
ATOM      2  N   UNL     1      29.442  41.738  24.503  0.00  0.00    -0.278 N 
ATOM      3  H   UNL     1      30.379  41.257  24.322  0.00  0.00    +0.152 HD
ATOM      4  O   UNL     1      28.941  39.888  23.354  0.00  0.00    -0.226 OA
ENDROOT
BRANCH   1   5
ATOM      5  O   UNL     1      27.289  41.090  24.293  0.00  0.00    -0.450 OA
BRANCH   5   6
ATOM      6  C   UNL     1      26.428  42.192  24.459  0.00  0.00    +0.240 C 
BRANCH   6   7
ATOM      7  C   UNL     1      24.988  41.906  24.924  0.00  0.00    +0.100 C 
BRANCH   7   9
ATOM      8  N   UNL     1      25.550  43.292  26.896  0.00  0.00    -0.134 NA
ATOM      9  C   UNL     1      24.823  42.278  26.341  0.00  0.00    +0.086 A 
ATOM     10  C   UNL     1      23.991  41.746  27.300  0.00  0.00    +0.139 A 
ATOM     11  N   UNL     1      24.242  42.478  28.437  0.00  0.00    -0.220 N 
ATOM     12  N   UNL     1      25.192  43.407  28.168  0.00  0.00    -0.061 NA
BRANCH  11  13
ATOM     13  C   UNL     1      23.650  42.356  29.721  0.00  0.00    +0.068 A 
ATOM     14  C   UNL     1      23.278  41.088  30.196  0.00  0.00    +0.028 A 
ATOM     15  C   UNL     1      22.691  40.955  31.457  0.00  0.00    +0.003 A 
ATOM     16  C   UNL     1      22.471  42.082  32.249  0.00  0.00    +0.020 A 
ATOM     17  C   UNL     1      22.842  43.339  31.777  0.00  0.00    +0.043 A 
ATOM     18 CL   UNL     1      22.572  44.730  32.755  0.00  0.00    -0.083 Cl
ATOM     19  C   UNL     1      23.431  43.486  30.520  0.00  0.00    +0.047 A 
ENDBRANCH  11  13
ENDBRANCH   7   9
ENDBRANCH   6   7
ENDBRANCH   5   6
ENDBRANCH   1   5
BRANCH   2  20
ATOM     20  C   UNL     1      29.705  43.025  25.143  0.00  0.00    +0.152 C 
BRANCH  20  21
ATOM     21  C   UNL     1      29.322  43.134  26.633  0.00  0.00    +0.193 C 
ATOM     22  O   UNL     1      29.292  41.786  27.153  0.00  0.00    -0.219 OA
BRANCH  21  23
ATOM     23  C   UNL     1      30.294  43.886  27.568  0.00  0.00    +0.212 C 
ATOM     24  O   UNL     1      31.441  44.346  26.835  0.00  0.00    -0.218 OA
BRANCH  23  25
ATOM     25  C   UNL     1      29.633  45.119  28.294  0.00  0.00    +0.171 C 
ATOM     26  O   UNL     1      30.428  46.297  28.207  0.00  0.00    -0.343 OA
ATOM     27  C   UNL     1      30.206  47.455  28.956  0.00  0.00    +0.220 C 
ATOM     28  C   UNL     1      30.063  47.145  30.456  0.00  0.00    +0.076 C 
ATOM     29  C   UNL     1      28.981  46.062  30.603  0.00  0.00    +0.177 C 
ATOM     30  O   UNL     1      28.780  45.765  31.978  0.00  0.00    -0.221 OA
ATOM     31  C   UNL     1      29.386  44.785  29.802  0.00  0.00    +0.155 C 
BRANCH  31  32
ATOM     32  N   UNL     1      28.364  43.751  29.945  0.00  0.00    -0.202 NA
ATOM     33  C   UNL     1      28.454  42.513  30.493  0.00  0.00    +0.242 C 
ATOM     34  C   UNL     1      27.179  41.763  30.778  0.00  0.00    +0.096 C 
ATOM     35  O   UNL     1      29.560  42.038  30.743  0.00  0.00    -0.273 OA
ENDBRANCH  31  32
BRANCH  27  36
ATOM     36  C   UNL     1      28.966  48.351  28.410  0.00  0.00    +0.391 C 
ATOM     37  O   UNL     1      28.611  47.779  27.244  0.00  0.00    -0.243 OA
ATOM     38  O   UNL     1      28.578  49.112  29.441  0.00  0.00    -0.243 OA
ENDBRANCH  27  36
ENDBRANCH  23  25
ENDBRANCH  21  23
ENDBRANCH  20  21
ENDBRANCH   2  20
TORSDOF 11
