REMARK  Name = lig_assembled_44.pdb
REMARK  12 active torsions:
REMARK  status: ('A' for Active; 'I' for Inactive)
REMARK    1  A    between atoms: _2  and  _8
REMARK    2  A    between atoms: _5  and  _6
REMARK    3  A    between atoms: _5  and  _14
REMARK    4  A    between atoms: _8  and  _9
REMARK    5  A    between atoms: _14  and  _16
REMARK    6  A    between atoms: _15  and  _20
REMARK    7  A    between atoms: _16  and  _19
REMARK    8  A    between atoms: _24  and  _34
REMARK    9  A    between atoms: _26  and  _27
REMARK   10  A    between atoms: _28  and  _30
REMARK   11  A    between atoms: _30  and  _32
REMARK   12  A    between atoms: _32  and  _34
REMARK                            x       y       z     vdW  Elec       q    Type
REMARK                         _______ _______ _______ _____ _____    ______ ____
ROOT
ATOM      1  C   UNL     1      18.958  35.970  24.650  0.00  0.00    +0.400 C 
ATOM      2  N   UNL     1      20.201  35.566  24.224  0.00  0.00    -0.278 N 
ATOM      3  H   UNL     1      20.794  36.451  24.317  0.00  0.00    +0.152 HD
ATOM      4  O   UNL     1      18.855  37.078  25.170  0.00  0.00    -0.226 OA
ENDROOT
BRANCH   2   5
ATOM      5  C   UNL     1      21.058  34.493  23.727  0.00  0.00    +0.152 C 
BRANCH   5   6
ATOM      6  C   UNL     1      21.607  33.515  24.786  0.00  0.00    +0.193 C 
ATOM      7  O   UNL     1      20.478  32.761  25.279  0.00  0.00    -0.219 OA
BRANCH   6   8
ATOM      8  C   UNL     1      22.613  32.442  24.315  0.00  0.00    +0.212 C 
ATOM      9  O   UNL     1      23.066  31.656  25.430  0.00  0.00    -0.218 OA
BRANCH   8  10
ATOM     10  C   UNL     1      22.024  31.472  23.221  0.00  0.00    +0.171 C 
ATOM     11  O   UNL     1      21.847  30.144  23.704  0.00  0.00    -0.343 OA
ATOM     12  C   UNL     1      21.577  29.040  22.892  0.00  0.00    +0.220 C 
ATOM     13  C   UNL     1      22.564  28.941  21.716  0.00  0.00    +0.076 C 
ATOM     14  C   UNL     1      22.555  30.296  20.989  0.00  0.00    +0.177 C 
ATOM     15  O   UNL     1      23.424  30.246  19.866  0.00  0.00    -0.221 OA
ATOM     16  C   UNL     1      22.966  31.436  21.973  0.00  0.00    +0.155 C 
BRANCH  16  17
ATOM     17  N   UNL     1      22.966  32.724  21.285  0.00  0.00    -0.202 NA
ATOM     18  C   UNL     1      23.983  33.600  21.082  0.00  0.00    +0.242 C 
ATOM     19  C   UNL     1      23.781  34.713  20.088  0.00  0.00    +0.096 C 
ATOM     20  O   UNL     1      25.033  33.466  21.707  0.00  0.00    -0.273 OA
ENDBRANCH  16  17
BRANCH  12  21
ATOM     21  C   UNL     1      20.035  28.972  22.384  0.00  0.00    +0.391 C 
ATOM     22  O   UNL     1      19.390  29.910  23.106  0.00  0.00    -0.243 OA
ATOM     23  O   UNL     1      20.047  28.247  21.259  0.00  0.00    -0.243 OA
ENDBRANCH  12  21
ENDBRANCH   8  10
ENDBRANCH   6   8
ENDBRANCH   5   6
ENDBRANCH   2   5
BRANCH   1  24
ATOM     24  O   UNL     1      17.993  35.138  24.428  0.00  0.00    -0.450 OA
BRANCH  24  25
ATOM     25  C   UNL     1      17.298  34.573  23.341  0.00  0.00    +0.240 C 
BRANCH  25  26
ATOM     26  C   UNL     1      17.587  33.098  23.003  0.00  0.00    +0.100 C 
BRANCH  26  28
ATOM     27  N   UNL     1      17.130  33.842  20.684  0.00  0.00    -0.134 NA
ATOM     28  C   UNL     1      17.274  32.823  21.588  0.00  0.00    +0.086 A 
ATOM     29  C   UNL     1      17.099  31.621  20.943  0.00  0.00    +0.134 A 
ATOM     30  N   UNL     1      16.930  31.972  19.636  0.00  0.00    -0.247 N 
ATOM     31  N   UNL     1      16.908  33.309  19.490  0.00  0.00    -0.065 NA
BRANCH  30  32
ATOM     32  C   UNL     1      16.784  31.102  18.484  0.00  0.00    +0.180 C 
BRANCH  32  33
ATOM     33  C   UNL     1      15.354  31.067  17.997  0.00  0.00    -0.026 A 
ATOM     34  C   UNL     1      14.979  31.750  16.831  0.00  0.00    +0.006 A 
ATOM     35  C   UNL     1      13.653  31.728  16.391  0.00  0.00    +0.015 A 
ATOM     36  C   UNL     1      12.696  31.021  17.116  0.00  0.00    +0.018 A 
ATOM     37 BR   UNL     1      10.906  30.977  16.510  0.00  0.00    -0.050 Br
ATOM     38  C   UNL     1      13.048  30.347  18.282  0.00  0.00    +0.015 A 
ATOM     39  C   UNL     1      14.374  30.374  18.725  0.00  0.00    +0.006 A 
ENDBRANCH  32  33
ENDBRANCH  30  32
ENDBRANCH  26  28
ENDBRANCH  25  26
ENDBRANCH  24  25
ENDBRANCH   1  24
TORSDOF 12
