REMARK  Name = lig_assembled_63.pdb
REMARK  12 active torsions:
REMARK  status: ('A' for Active; 'I' for Inactive)
REMARK    1  A    between atoms: _2  and  _10
REMARK    2  A    between atoms: _6  and  _14
REMARK    3  A    between atoms: _7  and  _8
REMARK    4  A    between atoms: _7  and  _15
REMARK    5  A    between atoms: _15  and  _17
REMARK    6  A    between atoms: _16  and  _21
REMARK    7  A    between atoms: _17  and  _20
REMARK    8  A    between atoms: _25  and  _35
REMARK    9  A    between atoms: _27  and  _28
REMARK   10  A    between atoms: _29  and  _31
REMARK   11  A    between atoms: _31  and  _33
REMARK   12  A    between atoms: _33  and  _35
REMARK                            x       y       z     vdW  Elec       q    Type
REMARK                         _______ _______ _______ _____ _____    ______ ____
ROOT
ATOM      1  C   UNL     1      31.993  31.064  27.412  0.00  0.00    +0.400 C 
ATOM      2  N   UNL     1      32.993  30.227  26.975  0.00  0.00    -0.278 N 
ATOM      3  H   UNL     1      33.881  30.684  27.355  0.00  0.00    +0.152 HD
ATOM      4  O   UNL     1      32.286  31.946  28.215  0.00  0.00    -0.226 OA
ENDROOT
BRANCH   2   5
ATOM      5  C   UNL     1      33.375  29.015  26.256  0.00  0.00    +0.152 C 
BRANCH   5   6
ATOM      6  C   UNL     1      34.155  29.223  24.941  0.00  0.00    +0.193 C 
ATOM      7  O   UNL     1      35.530  28.873  25.214  0.00  0.00    -0.219 OA
BRANCH   6   8
ATOM      8  C   UNL     1      33.767  28.344  23.732  0.00  0.00    +0.212 C 
ATOM      9  O   UNL     1      34.934  27.728  23.163  0.00  0.00    -0.218 OA
BRANCH   8  10
ATOM     10  C   UNL     1      32.725  27.215  24.090  0.00  0.00    +0.171 C 
ATOM     11  O   UNL     1      31.410  27.725  24.283  0.00  0.00    -0.343 OA
ATOM     12  C   UNL     1      30.356  26.996  24.839  0.00  0.00    +0.220 C 
ATOM     13  C   UNL     1      30.759  26.335  26.169  0.00  0.00    +0.076 C 
ATOM     14  C   UNL     1      32.042  25.526  25.913  0.00  0.00    +0.177 C 
ATOM     15  O   UNL     1      32.437  24.860  27.104  0.00  0.00    -0.221 OA
ATOM     16  C   UNL     1      33.172  26.463  25.386  0.00  0.00    +0.155 C 
BRANCH  16  17
ATOM     17  N   UNL     1      34.395  25.700  25.149  0.00  0.00    -0.202 NA
ATOM     18  C   UNL     1      35.484  25.536  25.942  0.00  0.00    +0.242 C 
ATOM     19  C   UNL     1      36.475  24.461  25.583  0.00  0.00    +0.096 C 
ATOM     20  O   UNL     1      35.633  26.259  26.925  0.00  0.00    -0.273 OA
ENDBRANCH  16  17
BRANCH  12  21
ATOM     21  C   UNL     1      29.700  25.922  23.813  0.00  0.00    +0.391 C 
ATOM     22  O   UNL     1      29.136  24.987  24.602  0.00  0.00    -0.243 OA
ATOM     23  O   UNL     1      29.701  26.510  22.611  0.00  0.00    -0.243 OA
ENDBRANCH  12  21
ENDBRANCH   8  10
ENDBRANCH   6   8
ENDBRANCH   5   6
ENDBRANCH   2   5
BRANCH   1  24
ATOM     24  O   UNL     1      30.825  30.855  26.900  0.00  0.00    -0.450 OA
BRANCH  24  25
ATOM     25  C   UNL     1      30.218  30.746  25.633  0.00  0.00    +0.240 C 
BRANCH  25  26
ATOM     26  C   UNL     1      29.827  32.053  24.917  0.00  0.00    +0.100 C 
BRANCH  26  28
ATOM     27  N   UNL     1      28.107  32.668  23.253  0.00  0.00    -0.134 NA
ATOM     28  C   UNL     1      29.014  31.762  23.722  0.00  0.00    +0.087 A 
ATOM     29  C   UNL     1      28.981  30.644  22.923  0.00  0.00    +0.141 A 
ATOM     30  N   UNL     1      27.997  30.902  21.989  0.00  0.00    -0.201 N 
ATOM     31  N   UNL     1      27.501  32.139  22.198  0.00  0.00    -0.059 NA
BRANCH  30  32
ATOM     32  C   UNL     1      27.519  30.000  20.992  0.00  0.00    +0.173 A 
ATOM     33  C   UNL     1      28.143  29.859  19.750  0.00  0.00    +0.096 A 
ATOM     34  C   UNL     1      27.532  29.015  18.808  0.00  0.00    +0.024 A 
ATOM     35  C   UNL     1      26.362  28.331  19.122  0.00  0.00    +0.021 A 
ATOM     36  C   UNL     1      25.834  28.498  20.386  0.00  0.00    +0.113 A 
ATOM     37  N   UNL     1      26.377  29.311  21.317  0.00  0.00    -0.235 NA
BRANCH  33  38
ATOM     38  C   UNL     1      29.369  30.487  19.357  0.00  0.00    +0.103 C 
ATOM     39  N   UNL     1      30.362  30.935  18.953  0.00  0.00    -0.191 NA
ENDBRANCH  33  38
ENDBRANCH  30  32
ENDBRANCH  26  28
ENDBRANCH  25  26
ENDBRANCH  24  25
ENDBRANCH   1  24
TORSDOF 12
