REMARK  Name = lig_assembled_21.pdb
REMARK  15 active torsions:
REMARK  status: ('A' for Active; 'I' for Inactive)
REMARK    1  A    between atoms: _2  and  _8
REMARK    2  A    between atoms: _5  and  _6
REMARK    3  A    between atoms: _5  and  _18
REMARK    4  A    between atoms: _8  and  _9
REMARK    5  A    between atoms: _10  and  _17
REMARK    6  A    between atoms: _11  and  _12
REMARK    7  A    between atoms: _11  and  _17
REMARK    8  A    between atoms: _18  and  _20
REMARK    9  A    between atoms: _19  and  _24
REMARK   10  A    between atoms: _20  and  _23
REMARK   11  A    between atoms: _28  and  _38
REMARK   12  A    between atoms: _30  and  _31
REMARK   13  A    between atoms: _32  and  _34
REMARK   14  A    between atoms: _34  and  _36
REMARK   15  A    between atoms: _36  and  _38
REMARK                            x       y       z     vdW  Elec       q    Type
REMARK                         _______ _______ _______ _____ _____    ______ ____
ROOT
ATOM      1  C   UNL     1      28.066  39.175  22.192  0.00  0.00    +0.400 C 
ATOM      2  N   UNL     1      27.455  38.402  23.151  0.00  0.00    -0.278 N 
ATOM      3  H   UNL     1      26.419  38.464  22.896  0.00  0.00    +0.152 HD
ATOM      4  O   UNL     1      27.388  39.566  21.245  0.00  0.00    -0.226 OA
ENDROOT
BRANCH   2   5
ATOM      5  C   UNL     1      27.585  37.542  24.324  0.00  0.00    +0.152 C 
BRANCH   5   6
ATOM      6  C   UNL     1      27.268  36.048  24.111  0.00  0.00    +0.193 C 
ATOM      7  O   UNL     1      26.488  35.622  25.250  0.00  0.00    -0.219 OA
BRANCH   6   8
ATOM      8  C   UNL     1      26.403  35.668  22.888  0.00  0.00    +0.212 C 
ATOM      9  O   UNL     1      27.108  35.950  21.668  0.00  0.00    -0.218 OA
BRANCH   8  10
ATOM     10  C   UNL     1      25.966  34.154  22.879  0.00  0.00    +0.171 C 
ATOM     11  O   UNL     1      27.076  33.263  22.836  0.00  0.00    -0.343 OA
ATOM     12  C   UNL     1      26.978  31.894  22.578  0.00  0.00    +0.220 C 
ATOM     13  C   UNL     1      26.153  31.610  21.311  0.00  0.00    +0.076 C 
ATOM     14  C   UNL     1      24.807  32.338  21.463  0.00  0.00    +0.177 C 
ATOM     15  O   UNL     1      23.986  32.075  20.333  0.00  0.00    -0.221 OA
ATOM     16  C   UNL     1      25.041  33.869  21.650  0.00  0.00    +0.155 C 
BRANCH  16  17
ATOM     17  N   UNL     1      23.764  34.565  21.789  0.00  0.00    -0.202 NA
ATOM     18  C   UNL     1      23.219  35.539  21.017  0.00  0.00    +0.242 C 
ATOM     19  C   UNL     1      21.763  35.874  21.211  0.00  0.00    +0.096 C 
ATOM     20  O   UNL     1      23.916  36.118  20.186  0.00  0.00    -0.273 OA
ENDBRANCH  16  17
BRANCH  12  21
ATOM     21  C   UNL     1      26.441  31.032  23.846  0.00  0.00    +0.391 C 
ATOM     22  O   UNL     1      26.147  29.818  23.341  0.00  0.00    -0.243 OA
ATOM     23  O   UNL     1      26.771  31.734  24.936  0.00  0.00    -0.243 OA
ENDBRANCH  12  21
ENDBRANCH   8  10
ENDBRANCH   6   8
ENDBRANCH   5   6
ENDBRANCH   2   5
BRANCH   1  24
ATOM     24  O   UNL     1      29.312  39.446  22.402  0.00  0.00    -0.450 OA
BRANCH  24  25
ATOM     25  C   UNL     1      30.566  39.249  21.790  0.00  0.00    +0.240 C 
BRANCH  25  26
ATOM     26  C   UNL     1      30.747  39.777  20.354  0.00  0.00    +0.100 C 
BRANCH  26  28
ATOM     27  N   UNL     1      31.139  37.481  19.528  0.00  0.00    -0.134 NA
ATOM     28  C   UNL     1      30.521  38.692  19.381  0.00  0.00    +0.086 A 
ATOM     29  C   UNL     1      29.710  38.651  18.269  0.00  0.00    +0.134 A 
ATOM     30  N   UNL     1      29.809  37.357  17.834  0.00  0.00    -0.247 N 
ATOM     31  N   UNL     1      30.699  36.673  18.575  0.00  0.00    -0.065 NA
BRANCH  30  32
ATOM     32  C   UNL     1      29.008  36.745  16.778  0.00  0.00    +0.184 C 
BRANCH  32  33
ATOM     33  C   UNL     1      28.264  35.490  17.165  0.00  0.00    +0.016 A 
ATOM     34  C   UNL     1      28.700  34.214  16.765  0.00  0.00    +0.137 A 
ATOM     35  C   UNL     1      28.000  33.065  17.136  0.00  0.00    +0.047 A 
ATOM     36  C   UNL     1      26.858  33.179  17.929  0.00  0.00    +0.004 A 
ATOM     37  C   UNL     1      26.402  34.434  18.324  0.00  0.00    +0.001 A 
ATOM     38  C   UNL     1      27.101  35.582  17.947  0.00  0.00    +0.009 A 
BRANCH  34  39
ATOM     39  O   UNL     1      29.823  34.163  15.905  0.00  0.00    -0.426 OA
BRANCH  39  40
ATOM     40  C   UNL     1      31.018  33.537  16.266  0.00  0.00    +0.309 C 
ATOM     41  O   UNL     1      31.823  33.908  17.110  0.00  0.00    -0.251 OA
ATOM     42  C   UNL     1      31.147  32.254  15.499  0.00  0.00    +0.136 C 
ENDBRANCH  39  40
ENDBRANCH  34  39
ENDBRANCH  32  33
ENDBRANCH  30  32
ENDBRANCH  26  28
ENDBRANCH  25  26
ENDBRANCH  24  25
ENDBRANCH   1  24
TORSDOF 14
