REMARK  Name = lig_assembled_75.pdb
REMARK  14 active torsions:
REMARK  status: ('A' for Active; 'I' for Inactive)
REMARK    1  A    between atoms: _2  and  _8
REMARK    2  A    between atoms: _5  and  _6
REMARK    3  A    between atoms: _5  and  _18
REMARK    4  A    between atoms: _10  and  _11
REMARK    5  A    between atoms: _12  and  _13
REMARK    6  A    between atoms: _13  and  _16
REMARK    7  A    between atoms: _18  and  _20
REMARK    8  A    between atoms: _19  and  _24
REMARK    9  A    between atoms: _20  and  _23
REMARK   10  A    between atoms: _28  and  _38
REMARK   11  A    between atoms: _30  and  _31
REMARK   12  A    between atoms: _32  and  _34
REMARK   13  A    between atoms: _34  and  _36
REMARK   14  A    between atoms: _36  and  _38
REMARK                            x       y       z     vdW  Elec       q    Type
REMARK                         _______ _______ _______ _____ _____    ______ ____
ROOT
ATOM      1  C   UNL     1      28.334  40.656  22.926  0.00  0.00    +0.400 C 
ATOM      2  N   UNL     1      29.435  40.319  23.678  0.00  0.00    -0.278 N 
ATOM      3  H   UNL     1      30.207  40.202  22.947  0.00  0.00    +0.152 HD
ATOM      4  O   UNL     1      28.501  40.911  21.736  0.00  0.00    -0.226 OA
ENDROOT
BRANCH   2   5
ATOM      5  C   UNL     1      30.013  40.070  24.996  0.00  0.00    +0.152 C 
BRANCH   5   6
ATOM      6  C   UNL     1      31.427  39.452  25.013  0.00  0.00    +0.193 C 
ATOM      7  O   UNL     1      31.772  39.168  23.639  0.00  0.00    -0.219 OA
BRANCH   6   8
ATOM      8  C   UNL     1      32.586  40.334  25.527  0.00  0.00    +0.212 C 
ATOM      9  O   UNL     1      32.074  41.498  26.195  0.00  0.00    -0.218 OA
BRANCH   8  10
ATOM     10  C   UNL     1      33.558  39.576  26.509  0.00  0.00    +0.171 C 
ATOM     11  O   UNL     1      32.906  39.140  27.697  0.00  0.00    -0.343 OA
ATOM     12  C   UNL     1      33.568  38.665  28.832  0.00  0.00    +0.220 C 
ATOM     13  C   UNL     1      34.684  39.624  29.283  0.00  0.00    +0.076 C 
ATOM     14  C   UNL     1      35.588  39.886  28.068  0.00  0.00    +0.177 C 
ATOM     15  O   UNL     1      36.663  40.737  28.441  0.00  0.00    -0.221 OA
ATOM     16  C   UNL     1      34.756  40.503  26.901  0.00  0.00    +0.155 C 
BRANCH  16  17
ATOM     17  N   UNL     1      35.613  40.760  25.747  0.00  0.00    -0.202 NA
ATOM     18  C   UNL     1      35.919  41.933  25.137  0.00  0.00    +0.242 C 
ATOM     19  C   UNL     1      37.058  41.952  24.152  0.00  0.00    +0.096 C 
ATOM     20  O   UNL     1      35.268  42.942  25.400  0.00  0.00    -0.273 OA
ENDBRANCH  16  17
BRANCH  12  21
ATOM     21  C   UNL     1      34.116  37.144  28.673  0.00  0.00    +0.391 C 
ATOM     22  O   UNL     1      33.541  36.684  27.544  0.00  0.00    -0.243 OA
ATOM     23  O   UNL     1      35.139  37.028  29.528  0.00  0.00    -0.243 OA
ENDBRANCH  12  21
ENDBRANCH   8  10
ENDBRANCH   6   8
ENDBRANCH   5   6
ENDBRANCH   2   5
BRANCH   1  24
ATOM     24  O   UNL     1      27.203  40.641  23.552  0.00  0.00    -0.450 OA
BRANCH  24  25
ATOM     25  C   UNL     1      26.071  41.459  23.732  0.00  0.00    +0.240 C 
BRANCH  25  26
ATOM     26  C   UNL     1      25.466  41.534  25.147  0.00  0.00    +0.100 C 
BRANCH  26  28
ATOM     27  N   UNL     1      26.680  40.429  26.998  0.00  0.00    -0.134 NA
ATOM     28  C   UNL     1      26.534  41.499  26.163  0.00  0.00    +0.086 A 
ATOM     29  C   UNL     1      27.499  42.434  26.458  0.00  0.00    +0.139 A 
ATOM     30  N   UNL     1      28.222  41.886  27.492  0.00  0.00    -0.220 N 
ATOM     31  N   UNL     1      27.705  40.671  27.803  0.00  0.00    -0.061 NA
BRANCH  30  32
ATOM     32  C   UNL     1      29.319  42.438  28.202  0.00  0.00    +0.068 A 
ATOM     33  C   UNL     1      30.042  41.623  29.092  0.00  0.00    +0.035 A 
ATOM     34  C   UNL     1      31.090  42.152  29.859  0.00  0.00    -0.023 A 
ATOM     35  C   UNL     1      31.447  43.494  29.677  0.00  0.00    +0.008 A 
ATOM     36  C   UNL     1      30.746  44.301  28.778  0.00  0.00    +0.003 A 
ATOM     37  C   UNL     1      29.679  43.781  28.048  0.00  0.00    +0.028 A 
BRANCH  34  38
ATOM     38  C   UNL     1      31.840  41.346  30.834  0.00  0.00    +0.015 C 
ATOM     39  C   UNL     1      31.339  40.262  31.448  0.00  0.00    +0.092 C 
BRANCH  39  40
ATOM     40  C   UNL     1      32.154  39.549  32.453  0.00  0.00    +0.330 C 
ATOM     41  O   UNL     1      33.280  39.869  32.786  0.00  0.00    -0.246 OA
BRANCH  40  42
ATOM     42  O   UNL     1      31.497  38.495  32.977  0.00  0.00    -0.478 OA
ATOM     43  H   UNL     1      30.604  38.334  32.622  0.00  0.00    +0.295 HD
ENDBRANCH  40  42
ENDBRANCH  39  40
ENDBRANCH  34  38
ENDBRANCH  30  32
ENDBRANCH  26  28
ENDBRANCH  25  26
ENDBRANCH  24  25
ENDBRANCH   1  24
TORSDOF 14
