REMARK  Name = lig_assembled_55.pdb
REMARK  15 active torsions:
REMARK  status: ('A' for Active; 'I' for Inactive)
REMARK    1  A    between atoms: _2  and  _9
REMARK    2  A    between atoms: _3  and  _10
REMARK    3  A    between atoms: _3  and  _41
REMARK    4  A    between atoms: _5  and  _41
REMARK    5  A    between atoms: _6  and  _7
REMARK    6  A    between atoms: _6  and  _13
REMARK    7  A    between atoms: _9  and  _10
REMARK    8  A    between atoms: _13  and  _15
REMARK    9  A    between atoms: _14  and  _19
REMARK   10  A    between atoms: _15  and  _18
REMARK   11  A    between atoms: _23  and  _33
REMARK   12  A    between atoms: _25  and  _26
REMARK   13  A    between atoms: _27  and  _29
REMARK   14  A    between atoms: _29  and  _31
REMARK   15  A    between atoms: _31  and  _33
REMARK                            x       y       z     vdW  Elec       q    Type
REMARK                         _______ _______ _______ _____ _____    ______ ____
ROOT
ATOM      1  C   UNL     1      28.997  36.666  18.726  0.00  0.00    +0.400 C 
ATOM      2  N   UNL     1      29.481  37.953  18.727  0.00  0.00    -0.278 N 
ATOM      3  H   UNL     1      30.489  37.839  19.064  0.00  0.00    +0.152 HD
ATOM      4  O   UNL     1      29.793  35.748  18.905  0.00  0.00    -0.226 OA
ENDROOT
BRANCH   2   5
ATOM      5  C   UNL     1      29.246  39.371  18.467  0.00  0.00    +0.152 C 
BRANCH   5   6
ATOM      6  C   UNL     1      30.274  40.075  17.558  0.00  0.00    +0.193 C 
ATOM      7  O   UNL     1      30.116  39.511  16.237  0.00  0.00    -0.219 OA
BRANCH   6   8
ATOM      8  C   UNL     1      30.120  41.597  17.348  0.00  0.00    +0.212 C 
ATOM      9  O   UNL     1      29.273  42.160  18.364  0.00  0.00    -0.218 OA
BRANCH   8  10
ATOM     10  C   UNL     1      31.494  42.371  17.353  0.00  0.00    +0.171 C 
ATOM     11  O   UNL     1      32.156  42.318  16.093  0.00  0.00    -0.343 OA
ATOM     12  C   UNL     1      33.482  42.702  15.883  0.00  0.00    +0.220 C 
ATOM     13  C   UNL     1      34.434  42.043  16.896  0.00  0.00    +0.076 C 
ATOM     14  C   UNL     1      33.889  42.339  18.303  0.00  0.00    +0.177 C 
ATOM     15  O   UNL     1      34.757  41.784  19.282  0.00  0.00    -0.221 OA
ATOM     16  C   UNL     1      32.440  41.778  18.447  0.00  0.00    +0.155 C 
BRANCH  16  17
ATOM     17  N   UNL     1      31.922  42.051  19.785  0.00  0.00    -0.202 NA
ATOM     18  C   UNL     1      31.838  41.235  20.867  0.00  0.00    +0.242 C 
ATOM     19  C   UNL     1      31.535  41.852  22.207  0.00  0.00    +0.096 C 
ATOM     20  O   UNL     1      32.011  40.026  20.730  0.00  0.00    -0.273 OA
ENDBRANCH  16  17
BRANCH  12  21
ATOM     21  C   UNL     1      33.688  44.313  15.831  0.00  0.00    +0.391 C 
ATOM     22  O   UNL     1      35.019  44.496  15.937  0.00  0.00    -0.243 OA
ATOM     23  O   UNL     1      32.525  44.821  15.407  0.00  0.00    -0.243 OA
ENDBRANCH  12  21
ENDBRANCH   8  10
ENDBRANCH   6   8
ENDBRANCH   5   6
ENDBRANCH   2   5
BRANCH   1  24
ATOM     24  O   UNL     1      27.720  36.548  18.565  0.00  0.00    -0.450 OA
BRANCH  24  25
ATOM     25  C   UNL     1      26.601  36.031  19.246  0.00  0.00    +0.240 C 
BRANCH  25  26
ATOM     26  C   UNL     1      26.823  35.489  20.671  0.00  0.00    +0.100 C 
BRANCH  26  28
ATOM     27  N   UNL     1      26.008  33.166  20.441  0.00  0.00    -0.134 NA
ATOM     28  C   UNL     1      27.050  34.033  20.638  0.00  0.00    +0.086 A 
ATOM     29  C   UNL     1      28.215  33.312  20.781  0.00  0.00    +0.133 A 
ATOM     30  N   UNL     1      27.812  32.013  20.683  0.00  0.00    -0.250 N 
ATOM     31  N   UNL     1      26.486  31.930  20.476  0.00  0.00    -0.065 NA
BRANCH  30  32
ATOM     32  C   UNL     1      28.624  30.818  20.746  0.00  0.00    +0.162 C 
BRANCH  32  33
ATOM     33  C   UNL     1      28.534  29.941  19.493  0.00  0.00    +0.129 C 
BRANCH  33  34
ATOM     34  N   UNL     1      27.985  30.653  18.301  0.00  0.00    -0.193 NA
ATOM     35  H   UNL     1      27.162  31.208  18.562  0.00  0.00    +0.148 HD
BRANCH  34  36
ATOM     36  S   UNL     1      29.097  31.521  17.378  0.00  0.00    +0.027 S 
ATOM     37  O   UNL     1      28.651  32.896  17.372  0.00  0.00    -0.158 OA
ATOM     38  O   UNL     1      30.421  31.162  17.836  0.00  0.00    -0.158 OA
ATOM     39  C   UNL     1      28.826  30.838  15.759  0.00  0.00    +0.214 C 
ENDBRANCH  34  36
ENDBRANCH  33  34
ENDBRANCH  32  33
ENDBRANCH  30  32
ENDBRANCH  26  28
ENDBRANCH  25  26
ENDBRANCH  24  25
ENDBRANCH   1  24
TORSDOF 14
