REMARK  Name = lig_assembled_69.pdb
REMARK  13 active torsions:
REMARK  status: ('A' for Active; 'I' for Inactive)
REMARK    1  A    between atoms: _2  and  _8
REMARK    2  A    between atoms: _5  and  _6
REMARK    3  A    between atoms: _5  and  _16
REMARK    4  A    between atoms: _10  and  _15
REMARK    5  A    between atoms: _13  and  _14
REMARK    6  A    between atoms: _16  and  _18
REMARK    7  A    between atoms: _17  and  _22
REMARK    8  A    between atoms: _18  and  _21
REMARK    9  A    between atoms: _26  and  _36
REMARK   10  A    between atoms: _28  and  _29
REMARK   11  A    between atoms: _30  and  _32
REMARK   12  A    between atoms: _32  and  _34
REMARK   13  A    between atoms: _34  and  _36
REMARK                            x       y       z     vdW  Elec       q    Type
REMARK                         _______ _______ _______ _____ _____    ______ ____
ROOT
ATOM      1  C   UNL     1      29.438  38.393  20.247  0.00  0.00    +0.400 C 
ATOM      2  N   UNL     1      30.303  37.574  19.559  0.00  0.00    -0.278 N 
ATOM      3  H   UNL     1      31.209  38.140  19.530  0.00  0.00    +0.152 HD
ATOM      4  O   UNL     1      29.897  39.397  20.785  0.00  0.00    -0.226 OA
ENDROOT
BRANCH   1   5
ATOM      5  O   UNL     1      28.197  38.034  20.232  0.00  0.00    -0.450 OA
BRANCH   5   6
ATOM      6  C   UNL     1      27.409  36.927  19.860  0.00  0.00    +0.240 C 
BRANCH   6   7
ATOM      7  C   UNL     1      27.292  35.767  20.868  0.00  0.00    +0.100 C 
BRANCH   7   9
ATOM      8  N   UNL     1      26.573  34.371  18.960  0.00  0.00    -0.134 NA
ATOM      9  C   UNL     1      27.225  34.476  20.158  0.00  0.00    +0.086 A 
ATOM     10  C   UNL     1      27.732  33.244  20.506  0.00  0.00    +0.134 A 
ATOM     11  N   UNL     1      27.343  32.428  19.485  0.00  0.00    -0.248 N 
ATOM     12  N   UNL     1      26.645  33.110  18.559  0.00  0.00    -0.065 NA
BRANCH  11  13
ATOM     13  C   UNL     1      27.553  30.988  19.353  0.00  0.00    +0.114 C 
ATOM     14  C   UNL     1      28.771  30.676  18.475  0.00  0.00    +0.062 C 
ATOM     15  C   UNL     1      28.526  30.650  16.964  0.00  0.00    +0.139 C 
ATOM     16  C   UNL     1      27.716  29.501  16.435  0.00  0.00    +0.002 C 
ATOM     17  C   UNL     1      26.854  28.710  17.093  0.00  0.00    +0.002 C 
ATOM     18  C   UNL     1      26.362  28.858  18.501  0.00  0.00    +0.139 C 
ATOM     19  C   UNL     1      26.233  30.301  18.976  0.00  0.00    +0.062 C 
BRANCH  18  20
ATOM     20  O   UNL     1      27.204  28.122  19.373  0.00  0.00    -0.388 OA
ATOM     21  H   UNL     1      27.398  27.271  18.941  0.00  0.00    +0.210 HD
ENDBRANCH  18  20
BRANCH  15  22
ATOM     22  O   UNL     1      29.809  30.534  16.335  0.00  0.00    -0.388 OA
ATOM     23  H   UNL     1      30.206  29.701  16.639  0.00  0.00    +0.210 HD
ENDBRANCH  15  22
ENDBRANCH  11  13
ENDBRANCH   7   9
ENDBRANCH   6   7
ENDBRANCH   5   6
ENDBRANCH   1   5
BRANCH   2  24
ATOM     24  C   UNL     1      30.537  36.302  18.881  0.00  0.00    +0.152 C 
BRANCH  24  25
ATOM     25  C   UNL     1      31.329  35.243  19.675  0.00  0.00    +0.193 C 
ATOM     26  O   UNL     1      31.871  34.317  18.708  0.00  0.00    -0.219 OA
BRANCH  25  27
ATOM     27  C   UNL     1      32.557  35.723  20.479  0.00  0.00    +0.212 C 
ATOM     28  O   UNL     1      32.142  36.342  21.708  0.00  0.00    -0.218 OA
BRANCH  27  29
ATOM     29  C   UNL     1      33.574  34.566  20.817  0.00  0.00    +0.171 C 
ATOM     30  O   UNL     1      33.463  34.115  22.163  0.00  0.00    -0.343 OA
ATOM     31  C   UNL     1      34.391  33.283  22.793  0.00  0.00    +0.220 C 
ATOM     32  C   UNL     1      35.829  33.806  22.633  0.00  0.00    +0.076 C 
ATOM     33  C   UNL     1      36.075  34.030  21.132  0.00  0.00    +0.177 C 
ATOM     34  O   UNL     1      37.407  34.477  20.924  0.00  0.00    -0.221 OA
ATOM     35  C   UNL     1      35.040  35.049  20.563  0.00  0.00    +0.155 C 
BRANCH  35  36
ATOM     36  N   UNL     1      35.275  35.269  19.138  0.00  0.00    -0.202 NA
ATOM     37  C   UNL     1      35.667  36.394  18.487  0.00  0.00    +0.242 C 
ATOM     38  C   UNL     1      36.120  36.270  17.056  0.00  0.00    +0.096 C 
ATOM     39  O   UNL     1      35.646  37.474  19.074  0.00  0.00    -0.273 OA
ENDBRANCH  35  36
BRANCH  31  40
ATOM     40  C   UNL     1      34.270  31.725  22.348  0.00  0.00    +0.391 C 
ATOM     41  O   UNL     1      35.354  31.127  22.878  0.00  0.00    -0.243 OA
ATOM     42  O   UNL     1      33.020  31.566  21.897  0.00  0.00    -0.243 OA
ENDBRANCH  31  40
ENDBRANCH  27  29
ENDBRANCH  25  27
ENDBRANCH  24  25
ENDBRANCH   2  24
TORSDOF 13
