REMARK  Name = lig_assembled_2.pdb
REMARK  11 active torsions:
REMARK  status: ('A' for Active; 'I' for Inactive)
REMARK    1  A    between atoms: _2  and  _8
REMARK    2  A    between atoms: _5  and  _6
REMARK    3  A    between atoms: _5  and  _13
REMARK    4  A    between atoms: _13  and  _15
REMARK    5  A    between atoms: _14  and  _19
REMARK    6  A    between atoms: _15  and  _18
REMARK    7  A    between atoms: _23  and  _33
REMARK    8  A    between atoms: _25  and  _26
REMARK    9  A    between atoms: _27  and  _29
REMARK   10  A    between atoms: _29  and  _31
REMARK   11  A    between atoms: _31  and  _33
REMARK                            x       y       z     vdW  Elec       q    Type
REMARK                         _______ _______ _______ _____ _____    ______ ____
ROOT
ATOM      1  C   UNL     1      29.628  32.830  22.761  0.00  0.00    +0.400 C 
ATOM      2  N   UNL     1      28.805  33.931  22.790  0.00  0.00    -0.278 N 
ATOM      3  H   UNL     1      28.626  34.078  23.833  0.00  0.00    +0.152 HD
ATOM      4  O   UNL     1      30.084  32.419  23.825  0.00  0.00    -0.226 OA
ENDROOT
BRANCH   1   5
ATOM      5  O   UNL     1      29.820  32.306  21.595  0.00  0.00    -0.450 OA
BRANCH   5   6
ATOM      6  C   UNL     1      30.887  31.919  20.760  0.00  0.00    +0.240 C 
BRANCH   6   7
ATOM      7  C   UNL     1      31.816  30.799  21.267  0.00  0.00    +0.100 C 
BRANCH   7   9
ATOM      8  N   UNL     1      31.013  28.564  20.572  0.00  0.00    -0.134 NA
ATOM      9  C   UNL     1      31.046  29.563  21.502  0.00  0.00    +0.086 A 
ATOM     10  C   UNL     1      30.291  29.190  22.589  0.00  0.00    +0.139 A 
ATOM     11  N   UNL     1      29.832  27.927  22.288  0.00  0.00    -0.220 N 
ATOM     12  N   UNL     1      30.269  27.578  21.053  0.00  0.00    -0.061 NA
BRANCH  11  13
ATOM     13  C   UNL     1      29.055  27.050  23.088  0.00  0.00    +0.067 A 
ATOM     14  C   UNL     1      29.668  26.102  23.921  0.00  0.00    +0.029 A 
ATOM     15  C   UNL     1      28.882  25.221  24.674  0.00  0.00    +0.022 A 
ATOM     16  C   UNL     1      27.493  25.285  24.598  0.00  0.00    +0.041 A 
ATOM     17 CL   UNL     1      26.537  24.184  25.510  0.00  0.00    -0.084 Cl
ATOM     18  C   UNL     1      26.875  26.233  23.785  0.00  0.00    +0.022 A 
ATOM     19  C   UNL     1      27.653  27.117  23.031  0.00  0.00    +0.029 A 
ENDBRANCH  11  13
ENDBRANCH   7   9
ENDBRANCH   6   7
ENDBRANCH   5   6
ENDBRANCH   1   5
BRANCH   2  20
ATOM     20  C   UNL     1      28.095  34.974  22.054  0.00  0.00    +0.152 C 
BRANCH  20  21
ATOM     21  C   UNL     1      28.318  36.421  22.540  0.00  0.00    +0.193 C 
ATOM     22  O   UNL     1      29.054  37.099  21.499  0.00  0.00    -0.219 OA
BRANCH  21  23
ATOM     23  C   UNL     1      27.068  37.300  22.764  0.00  0.00    +0.212 C 
ATOM     24  O   UNL     1      25.878  36.495  22.748  0.00  0.00    -0.218 OA
BRANCH  23  25
ATOM     25  C   UNL     1      27.110  38.112  24.115  0.00  0.00    +0.171 C 
ATOM     26  O   UNL     1      27.919  39.280  24.027  0.00  0.00    -0.343 OA
ATOM     27  C   UNL     1      28.326  40.041  25.126  0.00  0.00    +0.220 C 
ATOM     28  C   UNL     1      28.952  39.167  26.226  0.00  0.00    +0.076 C 
ATOM     29  C   UNL     1      27.952  38.044  26.550  0.00  0.00    +0.177 C 
ATOM     30  O   UNL     1      28.467  37.227  27.592  0.00  0.00    -0.221 OA
ATOM     31  C   UNL     1      27.651  37.206  25.269  0.00  0.00    +0.155 C 
BRANCH  31  32
ATOM     32  N   UNL     1      26.707  36.134  25.575  0.00  0.00    -0.202 NA
ATOM     33  C   UNL     1      26.937  34.822  25.831  0.00  0.00    +0.242 C 
ATOM     34  C   UNL     1      25.815  33.997  26.406  0.00  0.00    +0.096 C 
ATOM     35  O   UNL     1      28.044  34.341  25.593  0.00  0.00    -0.273 OA
ENDBRANCH  31  32
BRANCH  27  36
ATOM     36  C   UNL     1      27.154  40.998  25.719  0.00  0.00    +0.391 C 
ATOM     37  O   UNL     1      27.531  41.264  26.985  0.00  0.00    -0.243 OA
ATOM     38  O   UNL     1      26.435  41.399  24.664  0.00  0.00    -0.243 OA
ENDBRANCH  27  36
ENDBRANCH  23  25
ENDBRANCH  21  23
ENDBRANCH  20  21
ENDBRANCH   2  20
TORSDOF 11
