REMARK  Name = lig_assembled_45.pdb
REMARK  19 active torsions:
REMARK  status: ('A' for Active; 'I' for Inactive)
REMARK    1  A    between atoms: _2  and  _9
REMARK    2  A    between atoms: _3  and  _11
REMARK    3  A    between atoms: _3  and  _12
REMARK    4  A    between atoms: _3  and  _13
REMARK    5  A    between atoms: _3  and  _15
REMARK    6  A    between atoms: _5  and  _15
REMARK    7  A    between atoms: _6  and  _7
REMARK    8  A    between atoms: _6  and  _16
REMARK    9  A    between atoms: _9  and  _10
REMARK   10  A    between atoms: _10  and  _11
REMARK   11  A    between atoms: _13  and  _14
REMARK   12  A    between atoms: _16  and  _18
REMARK   13  A    between atoms: _17  and  _22
REMARK   14  A    between atoms: _18  and  _21
REMARK   15  A    between atoms: _26  and  _36
REMARK   16  A    between atoms: _28  and  _29
REMARK   17  A    between atoms: _30  and  _32
REMARK   18  A    between atoms: _32  and  _34
REMARK   19  A    between atoms: _34  and  _36
REMARK                            x       y       z     vdW  Elec       q    Type
REMARK                         _______ _______ _______ _____ _____    ______ ____
ROOT
ATOM      1  C   UNL     1      11.321  43.516  24.881  0.00  0.00    +0.400 C 
ATOM      2  N   UNL     1      12.192  42.772  24.119  0.00  0.00    -0.278 N 
ATOM      3  H   UNL     1      13.125  43.277  24.248  0.00  0.00    +0.152 HD
ATOM      4  O   UNL     1      11.789  44.383  25.615  0.00  0.00    -0.226 OA
ENDROOT
BRANCH   2   5
ATOM      5  C   UNL     1      12.411  41.622  23.246  0.00  0.00    +0.152 C 
BRANCH   5   6
ATOM      6  C   UNL     1      12.853  41.939  21.803  0.00  0.00    +0.193 C 
ATOM      7  O   UNL     1      12.340  40.877  20.969  0.00  0.00    -0.219 OA
BRANCH   6   8
ATOM      8  C   UNL     1      12.311  43.233  21.157  0.00  0.00    +0.212 C 
ATOM      9  O   UNL     1      12.889  44.388  21.786  0.00  0.00    -0.218 OA
BRANCH   8  10
ATOM     10  C   UNL     1      12.580  43.316  19.606  0.00  0.00    +0.171 C 
ATOM     11  O   UNL     1      13.936  43.041  19.269  0.00  0.00    -0.343 OA
ATOM     12  C   UNL     1      14.501  43.279  18.014  0.00  0.00    +0.220 C 
ATOM     13  C   UNL     1      14.220  44.711  17.525  0.00  0.00    +0.076 C 
ATOM     14  C   UNL     1      12.701  44.937  17.605  0.00  0.00    +0.177 C 
ATOM     15  O   UNL     1      12.382  46.236  17.125  0.00  0.00    -0.221 OA
ATOM     16  C   UNL     1      12.204  44.737  19.071  0.00  0.00    +0.155 C 
BRANCH  16  17
ATOM     17  N   UNL     1      10.763  44.958  19.153  0.00  0.00    -0.202 NA
ATOM     18  C   UNL     1      10.072  45.961  19.751  0.00  0.00    +0.242 C 
ATOM     19  C   UNL     1       8.606  46.108  19.434  0.00  0.00    +0.096 C 
ATOM     20  O   UNL     1      10.650  46.718  20.528  0.00  0.00    -0.273 OA
ENDBRANCH  16  17
BRANCH  12  21
ATOM     21  C   UNL     1      14.086  42.174  16.897  0.00  0.00    +0.391 C 
ATOM     22  O   UNL     1      14.442  42.721  15.719  0.00  0.00    -0.243 OA
ATOM     23  O   UNL     1      13.836  41.044  17.570  0.00  0.00    -0.243 OA
ENDBRANCH  12  21
ENDBRANCH   8  10
ENDBRANCH   6   8
ENDBRANCH   5   6
ENDBRANCH   2   5
BRANCH   1  24
ATOM     24  O   UNL     1      10.067  43.244  24.724  0.00  0.00    -0.450 OA
BRANCH  24  25
ATOM     25  C   UNL     1       9.096  43.235  23.704  0.00  0.00    +0.240 C 
BRANCH  25  26
ATOM     26  C   UNL     1       8.983  44.491  22.819  0.00  0.00    +0.100 C 
BRANCH  26  28
ATOM     27  N   UNL     1       9.724  46.666  23.752  0.00  0.00    -0.134 NA
ATOM     28  C   UNL     1       8.772  45.687  23.654  0.00  0.00    +0.086 A 
ATOM     29  C   UNL     1       7.689  46.034  24.431  0.00  0.00    +0.133 A 
ATOM     30  N   UNL     1       8.055  47.230  24.966  0.00  0.00    -0.251 N 
ATOM     31  N   UNL     1       9.272  47.608  24.569  0.00  0.00    -0.065 NA
BRANCH  30  32
ATOM     32  C   UNL     1       7.293  48.049  25.886  0.00  0.00    +0.150 C 
BRANCH  32  33
ATOM     33  C   UNL     1       5.788  47.837  25.762  0.00  0.00    +0.074 C 
BRANCH  33  34
ATOM     34  C   UNL     1       5.051  48.695  24.725  0.00  0.00    +0.134 C 
BRANCH  34  35
ATOM     35  N   UNL     1       4.409  50.038  25.207  0.00  0.00    +0.241 N 
ATOM     36  C   UNL     1       3.034  50.196  24.536  0.00  0.00    +0.192 C 
BRANCH  35  37
ATOM     37  C   UNL     1       5.349  51.177  24.687  0.00  0.00    +0.129 C 
ATOM     38  C   UNL     1       4.610  52.431  24.233  0.00  0.00    +0.060 C 
ENDBRANCH  35  37
BRANCH  35  39
ATOM     39  C   UNL     1       4.238  50.163  26.732  0.00  0.00    +0.129 C 
ATOM     40  C   UNL     1       2.834  50.543  27.173  0.00  0.00    +0.060 C 
ENDBRANCH  35  39
ENDBRANCH  34  35
ENDBRANCH  33  34
ENDBRANCH  32  33
ENDBRANCH  30  32
ENDBRANCH  26  28
ENDBRANCH  25  26
ENDBRANCH  24  25
ENDBRANCH   1  24
TORSDOF 16
