REMARK  Name = lig_assembled_74.pdb
REMARK  19 active torsions:
REMARK  status: ('A' for Active; 'I' for Inactive)
REMARK    1  A    between atoms: _2  and  _8
REMARK    2  A    between atoms: _4  and  _13
REMARK    3  A    between atoms: _5  and  _6
REMARK    4  A    between atoms: _5  and  _17
REMARK    5  A    between atoms: _8  and  _9
REMARK    6  A    between atoms: _9  and  _10
REMARK    7  A    between atoms: _9  and  _12
REMARK    8  A    between atoms: _10  and  _11
REMARK    9  A    between atoms: _11  and  _15
REMARK   10  A    between atoms: _12  and  _13
REMARK   11  A    between atoms: _13  and  _14
REMARK   12  A    between atoms: _17  and  _19
REMARK   13  A    between atoms: _18  and  _23
REMARK   14  A    between atoms: _19  and  _22
REMARK   15  A    between atoms: _27  and  _37
REMARK   16  A    between atoms: _29  and  _30
REMARK   17  A    between atoms: _31  and  _33
REMARK   18  A    between atoms: _33  and  _35
REMARK   19  A    between atoms: _35  and  _37
REMARK                            x       y       z     vdW  Elec       q    Type
REMARK                         _______ _______ _______ _____ _____    ______ ____
ROOT
ATOM      1  C   UNL     1      26.916  35.681  27.473  0.00  0.00    +0.400 C 
ATOM      2  N   UNL     1      25.935  36.573  27.105  0.00  0.00    -0.278 N 
ATOM      3  H   UNL     1      26.488  37.428  26.780  0.00  0.00    +0.152 HD
ATOM      4  O   UNL     1      28.081  35.956  27.197  0.00  0.00    -0.226 OA
ENDROOT
BRANCH   1   5
ATOM      5  O   UNL     1      26.509  34.635  28.113  0.00  0.00    -0.450 OA
BRANCH   5   6
ATOM      6  C   UNL     1      25.307  34.066  28.577  0.00  0.00    +0.240 C 
BRANCH   6   7
ATOM      7  C   UNL     1      24.958  34.259  30.065  0.00  0.00    +0.100 C 
BRANCH   7   9
ATOM      8  N   UNL     1      26.539  32.556  30.940  0.00  0.00    -0.134 NA
ATOM      9  C   UNL     1      26.086  33.849  30.923  0.00  0.00    +0.086 A 
ATOM     10  C   UNL     1      26.894  34.618  31.733  0.00  0.00    +0.133 A 
ATOM     11  N   UNL     1      27.917  33.774  32.059  0.00  0.00    -0.251 N 
ATOM     12  N   UNL     1      27.650  32.515  31.663  0.00  0.00    -0.065 NA
BRANCH  11  13
ATOM     13  C   UNL     1      29.267  34.147  32.436  0.00  0.00    +0.149 C 
BRANCH  13  14
ATOM     14  C   UNL     1      29.862  35.351  31.674  0.00  0.00    +0.021 C 
BRANCH  14  15
ATOM     15  C   UNL     1      30.987  34.960  30.693  0.00  0.00    +0.125 C 
BRANCH  15  16
ATOM     16  C   UNL     1      30.692  33.744  29.842  0.00  0.00    +0.305 C 
ATOM     17  O   UNL     1      29.816  33.679  28.995  0.00  0.00    -0.251 OA
BRANCH  16  18
ATOM     18  O   UNL     1      31.549  32.729  30.060  0.00  0.00    -0.481 OA
ATOM     19  H   UNL     1      32.228  32.892  30.739  0.00  0.00    +0.295 HD
ENDBRANCH  16  18
ENDBRANCH  15  16
ENDBRANCH  14  15
BRANCH  14  20
ATOM     20  C   UNL     1      30.300  36.437  32.699  0.00  0.00    +0.009 C 
BRANCH  20  21
ATOM     21  C   UNL     1      31.316  35.984  33.770  0.00  0.00    -0.017 C 
ATOM     22  C   UNL     1      30.972  34.610  34.349  0.00  0.00    +0.007 C 
ATOM     23  C   UNL     1      32.731  35.938  33.183  0.00  0.00    +0.007 C 
ENDBRANCH  20  21
ENDBRANCH  14  20
ENDBRANCH  13  14
ENDBRANCH  11  13
ENDBRANCH   7   9
ENDBRANCH   6   7
ENDBRANCH   5   6
ENDBRANCH   1   5
BRANCH   2  24
ATOM     24  C   UNL     1      24.512  36.863  26.949  0.00  0.00    +0.152 C 
BRANCH  24  25
ATOM     25  C   UNL     1      24.130  37.773  25.765  0.00  0.00    +0.193 C 
ATOM     26  O   UNL     1      24.427  37.033  24.560  0.00  0.00    -0.219 OA
BRANCH  25  27
ATOM     27  C   UNL     1      22.644  38.169  25.617  0.00  0.00    +0.212 C 
ATOM     28  O   UNL     1      22.278  38.238  24.230  0.00  0.00    -0.218 OA
BRANCH  27  29
ATOM     29  C   UNL     1      21.659  37.180  26.350  0.00  0.00    +0.171 C 
ATOM     30  O   UNL     1      21.726  35.856  25.831  0.00  0.00    -0.343 OA
ATOM     31  C   UNL     1      20.804  34.848  26.123  0.00  0.00    +0.220 C 
ATOM     32  C   UNL     1      19.356  35.320  25.907  0.00  0.00    +0.076 C 
ATOM     33  C   UNL     1      19.168  36.619  26.707  0.00  0.00    +0.177 C 
ATOM     34  O   UNL     1      17.831  37.078  26.574  0.00  0.00    -0.221 OA
ATOM     35  C   UNL     1      20.188  37.698  26.227  0.00  0.00    +0.155 C 
BRANCH  35  36
ATOM     36  N   UNL     1      20.009  38.936  26.980  0.00  0.00    -0.202 NA
ATOM     37  C   UNL     1      19.618  40.164  26.552  0.00  0.00    +0.242 C 
ATOM     38  C   UNL     1      19.230  41.191  27.583  0.00  0.00    +0.096 C 
ATOM     39  O   UNL     1      19.589  40.406  25.347  0.00  0.00    -0.273 OA
ENDBRANCH  35  36
BRANCH  31  40
ATOM     40  C   UNL     1      21.005  34.193  27.596  0.00  0.00    +0.391 C 
ATOM     41  O   UNL     1      20.422  32.981  27.520  0.00  0.00    -0.243 OA
ATOM     42  O   UNL     1      21.914  34.953  28.218  0.00  0.00    -0.243 OA
ENDBRANCH  31  40
ENDBRANCH  27  29
ENDBRANCH  25  27
ENDBRANCH  24  25
ENDBRANCH   2  24
TORSDOF 17
