REMARK  Name = lig_assembled_20.pdb
REMARK  11 active torsions:
REMARK  status: ('A' for Active; 'I' for Inactive)
REMARK    1  A    between atoms: _2  and  _10
REMARK    2  A    between atoms: _7  and  _8
REMARK    3  A    between atoms: _7  and  _16
REMARK    4  A    between atoms: _16  and  _18
REMARK    5  A    between atoms: _17  and  _22
REMARK    6  A    between atoms: _18  and  _21
REMARK    7  A    between atoms: _26  and  _36
REMARK    8  A    between atoms: _28  and  _29
REMARK    9  A    between atoms: _30  and  _32
REMARK   10  A    between atoms: _32  and  _34
REMARK   11  A    between atoms: _34  and  _36
REMARK                            x       y       z     vdW  Elec       q    Type
REMARK                         _______ _______ _______ _____ _____    ______ ____
ROOT
ATOM      1  C   UNL     1      29.809  31.803  26.531  0.00  0.00    +0.400 C 
ATOM      2  N   UNL     1      29.277  33.069  26.447  0.00  0.00    -0.278 N 
ATOM      3  H   UNL     1      28.925  33.255  27.439  0.00  0.00    +0.152 HD
ATOM      4  O   UNL     1      29.925  31.297  27.644  0.00  0.00    -0.226 OA
ENDROOT
BRANCH   1   5
ATOM      5  O   UNL     1      30.111  31.248  25.404  0.00  0.00    -0.450 OA
BRANCH   5   6
ATOM      6  C   UNL     1      29.769  30.109  24.649  0.00  0.00    +0.240 C 
BRANCH   6   7
ATOM      7  C   UNL     1      30.911  29.360  23.936  0.00  0.00    +0.100 C 
BRANCH   7   9
ATOM      8  N   UNL     1      31.924  29.474  21.675  0.00  0.00    -0.134 NA
ATOM      9  C   UNL     1      30.822  29.551  22.477  0.00  0.00    +0.086 A 
ATOM     10  C   UNL     1      29.721  29.823  21.699  0.00  0.00    +0.139 A 
ATOM     11  N   UNL     1      30.200  29.903  20.412  0.00  0.00    -0.220 N 
ATOM     12  N   UNL     1      31.539  29.687  20.422  0.00  0.00    -0.061 NA
BRANCH  11  13
ATOM     13  C   UNL     1      29.479  30.160  19.217  0.00  0.00    +0.068 A 
ATOM     14  C   UNL     1      30.022  31.017  18.245  0.00  0.00    +0.030 A 
ATOM     15  C   UNL     1      29.339  31.290  17.052  0.00  0.00    +0.030 A 
ATOM     16  C   UNL     1      28.096  30.675  16.872  0.00  0.00    +0.066 A 
ATOM     17  C   UNL     1      27.532  29.824  17.814  0.00  0.00    +0.021 A 
ATOM     18  C   UNL     1      26.301  29.432  17.248  0.00  0.00    +0.142 A 
ATOM     19  N   UNL     1      26.088  29.977  16.049  0.00  0.00    -0.181 NA
ATOM     20  N   UNL     1      27.190  30.721  15.844  0.00  0.00    -0.277 N 
ATOM     21  H   UNL     1      27.264  31.245  14.981  0.00  0.00    +0.189 HD
ATOM     22  C   UNL     1      28.225  29.557  19.009  0.00  0.00    +0.039 A 
ENDBRANCH  11  13
ENDBRANCH   7   9
ENDBRANCH   6   7
ENDBRANCH   5   6
ENDBRANCH   1   5
BRANCH   2  23
ATOM     23  C   UNL     1      28.998  34.250  25.635  0.00  0.00    +0.152 C 
BRANCH  23  24
ATOM     24  C   UNL     1      27.933  34.080  24.532  0.00  0.00    +0.193 C 
ATOM     25  O   UNL     1      28.538  33.287  23.488  0.00  0.00    -0.219 OA
BRANCH  24  26
ATOM     26  C   UNL     1      26.641  33.316  24.898  0.00  0.00    +0.212 C 
ATOM     27  O   UNL     1      25.558  34.234  25.112  0.00  0.00    -0.218 OA
BRANCH  26  28
ATOM     28  C   UNL     1      26.205  32.268  23.803  0.00  0.00    +0.171 C 
ATOM     29  O   UNL     1      25.392  32.845  22.787  0.00  0.00    -0.343 OA
ATOM     30  C   UNL     1      24.673  32.111  21.841  0.00  0.00    +0.220 C 
ATOM     31  C   UNL     1      23.821  31.012  22.499  0.00  0.00    +0.076 C 
ATOM     32  C   UNL     1      24.753  30.178  23.395  0.00  0.00    +0.177 C 
ATOM     33  O   UNL     1      24.021  29.121  23.998  0.00  0.00    -0.221 OA
ATOM     34  C   UNL     1      25.422  31.090  24.470  0.00  0.00    +0.155 C 
BRANCH  34  35
ATOM     35  N   UNL     1      26.302  30.300  25.327  0.00  0.00    -0.202 NA
ATOM     36  C   UNL     1      26.307  30.167  26.678  0.00  0.00    +0.242 C 
ATOM     37  C   UNL     1      27.132  29.062  27.285  0.00  0.00    +0.096 C 
ATOM     38  O   UNL     1      25.645  30.940  27.367  0.00  0.00    -0.273 OA
ENDBRANCH  34  35
BRANCH  30  39
ATOM     39  C   UNL     1      25.599  31.513  20.646  0.00  0.00    +0.391 C 
ATOM     40  O   UNL     1      24.798  30.658  19.981  0.00  0.00    -0.243 OA
ATOM     41  O   UNL     1      26.680  32.300  20.588  0.00  0.00    -0.243 OA
ENDBRANCH  30  39
ENDBRANCH  26  28
ENDBRANCH  24  26
ENDBRANCH  23  24
ENDBRANCH   2  23
TORSDOF 11
