REMARK  Name = lig_assembled_29.pdb
REMARK  16 active torsions:
REMARK  status: ('A' for Active; 'I' for Inactive)
REMARK    1  A    between atoms: _2  and  _8
REMARK    2  A    between atoms: _5  and  _6
REMARK    3  A    between atoms: _5  and  _18
REMARK    4  A    between atoms: _8  and  _9
REMARK    5  A    between atoms: _11  and  _17
REMARK    6  A    between atoms: _12  and  _17
REMARK    7  A    between atoms: _13  and  _16
REMARK    8  A    between atoms: _14  and  _16
REMARK    9  A    between atoms: _18  and  _20
REMARK   10  A    between atoms: _19  and  _24
REMARK   11  A    between atoms: _20  and  _23
REMARK   12  A    between atoms: _28  and  _38
REMARK   13  A    between atoms: _30  and  _31
REMARK   14  A    between atoms: _32  and  _34
REMARK   15  A    between atoms: _34  and  _36
REMARK   16  A    between atoms: _36  and  _38
REMARK                            x       y       z     vdW  Elec       q    Type
REMARK                         _______ _______ _______ _____ _____    ______ ____
ROOT
ATOM      1  C   UNL     1      28.507  41.951  24.826  0.00  0.00    +0.400 C 
ATOM      2  N   UNL     1      28.558  40.797  24.081  0.00  0.00    -0.278 N 
ATOM      3  H   UNL     1      29.261  40.191  24.611  0.00  0.00    +0.152 HD
ATOM      4  O   UNL     1      29.068  41.960  25.919  0.00  0.00    -0.226 OA
ENDROOT
BRANCH   2   5
ATOM      5  C   UNL     1      28.082  40.040  22.926  0.00  0.00    +0.152 C 
BRANCH   5   6
ATOM      6  C   UNL     1      28.974  38.869  22.467  0.00  0.00    +0.193 C 
ATOM      7  O   UNL     1      29.113  38.989  21.034  0.00  0.00    -0.219 OA
BRANCH   6   8
ATOM      8  C   UNL     1      30.426  38.827  22.992  0.00  0.00    +0.212 C 
ATOM      9  O   UNL     1      30.438  38.704  24.423  0.00  0.00    -0.218 OA
BRANCH   8  10
ATOM     10  C   UNL     1      31.279  37.652  22.377  0.00  0.00    +0.171 C 
ATOM     11  O   UNL     1      30.697  36.374  22.610  0.00  0.00    -0.343 OA
ATOM     12  C   UNL     1      31.352  35.159  22.393  0.00  0.00    +0.220 C 
ATOM     13  C   UNL     1      32.736  35.129  23.065  0.00  0.00    +0.076 C 
ATOM     14  C   UNL     1      33.507  36.373  22.593  0.00  0.00    +0.177 C 
ATOM     15  O   UNL     1      34.811  36.374  23.155  0.00  0.00    -0.221 OA
ATOM     16  C   UNL     1      32.724  37.668  22.975  0.00  0.00    +0.155 C 
BRANCH  16  17
ATOM     17  N   UNL     1      33.456  38.852  22.534  0.00  0.00    -0.202 NA
ATOM     18  C   UNL     1      33.864  39.934  23.245  0.00  0.00    +0.242 C 
ATOM     19  C   UNL     1      34.857  40.873  22.610  0.00  0.00    +0.096 C 
ATOM     20  O   UNL     1      33.422  40.120  24.377  0.00  0.00    -0.273 OA
ENDBRANCH  16  17
BRANCH  12  21
ATOM     21  C   UNL     1      31.441  34.742  20.826  0.00  0.00    +0.391 C 
ATOM     22  O   UNL     1      32.266  33.677  20.795  0.00  0.00    -0.243 OA
ATOM     23  O   UNL     1      30.451  35.401  20.211  0.00  0.00    -0.243 OA
ENDBRANCH  12  21
ENDBRANCH   8  10
ENDBRANCH   6   8
ENDBRANCH   5   6
ENDBRANCH   2   5
BRANCH   1  24
ATOM     24  O   UNL     1      27.888  42.945  24.279  0.00  0.00    -0.450 OA
BRANCH  24  25
ATOM     25  C   UNL     1      27.858  43.641  23.054  0.00  0.00    +0.240 C 
BRANCH  25  26
ATOM     26  C   UNL     1      29.164  44.308  22.583  0.00  0.00    +0.100 C 
BRANCH  26  28
ATOM     27  N   UNL     1      30.661  42.391  22.098  0.00  0.00    -0.134 NA
ATOM     28  C   UNL     1      29.885  43.425  21.646  0.00  0.00    +0.086 A 
ATOM     29  C   UNL     1      29.903  43.436  20.271  0.00  0.00    +0.134 A 
ATOM     30  N   UNL     1      30.631  42.328  19.945  0.00  0.00    -0.247 N 
ATOM     31  N   UNL     1      31.124  41.729  21.044  0.00  0.00    -0.065 NA
BRANCH  30  32
ATOM     32  C   UNL     1      30.855  41.757  18.630  0.00  0.00    +0.180 C 
BRANCH  32  33
ATOM     33  C   UNL     1      31.952  40.718  18.676  0.00  0.00    -0.022 A 
ATOM     34  C   UNL     1      33.301  41.113  18.700  0.00  0.00    +0.054 A 
ATOM     35  C   UNL     1      34.325  40.163  18.822  0.00  0.00    +0.162 A 
ATOM     36  C   UNL     1      33.998  38.795  18.912  0.00  0.00    +0.162 A 
ATOM     37  C   UNL     1      32.656  38.404  18.887  0.00  0.00    +0.050 A 
ATOM     38  C   UNL     1      31.641  39.358  18.768  0.00  0.00    +0.009 A 
BRANCH  36  39
ATOM     39  O   UNL     1      35.056  37.926  19.023  0.00  0.00    -0.491 OA
ATOM     40  C   UNL     1      34.780  36.535  18.940  0.00  0.00    +0.277 C 
ENDBRANCH  36  39
BRANCH  35  41
ATOM     41  O   UNL     1      35.662  40.470  18.874  0.00  0.00    -0.491 OA
ATOM     42  C   UNL     1      36.128  41.546  18.072  0.00  0.00    +0.277 C 
ENDBRANCH  35  41
ENDBRANCH  32  33
ENDBRANCH  30  32
ENDBRANCH  26  28
ENDBRANCH  25  26
ENDBRANCH  24  25
ENDBRANCH   1  24
TORSDOF 14
