REMARK  Name = lig_assembled_93.pdb
REMARK  11 active torsions:
REMARK  status: ('A' for Active; 'I' for Inactive)
REMARK    1  A    between atoms: _2  and  _8
REMARK    2  A    between atoms: _5  and  _6
REMARK    3  A    between atoms: _5  and  _13
REMARK    4  A    between atoms: _13  and  _15
REMARK    5  A    between atoms: _14  and  _19
REMARK    6  A    between atoms: _15  and  _18
REMARK    7  A    between atoms: _23  and  _33
REMARK    8  A    between atoms: _25  and  _26
REMARK    9  A    between atoms: _27  and  _29
REMARK   10  A    between atoms: _29  and  _31
REMARK   11  A    between atoms: _31  and  _33
REMARK                            x       y       z     vdW  Elec       q    Type
REMARK                         _______ _______ _______ _____ _____    ______ ____
ROOT
ATOM      1  C   UNL     1      28.559  35.356  22.902  0.00  0.00    +0.400 C 
ATOM      2  N   UNL     1      28.768  36.012  21.712  0.00  0.00    -0.278 N 
ATOM      3  H   UNL     1      29.760  36.396  21.812  0.00  0.00    +0.152 HD
ATOM      4  O   UNL     1      29.518  35.205  23.656  0.00  0.00    -0.226 OA
ENDROOT
BRANCH   1   5
ATOM      5  O   UNL     1      27.343  34.983  23.130  0.00  0.00    -0.450 OA
BRANCH   5   6
ATOM      6  C   UNL     1      26.481  34.757  24.221  0.00  0.00    +0.240 C 
BRANCH   6   7
ATOM      7  C   UNL     1      26.681  33.461  25.029  0.00  0.00    +0.100 C 
BRANCH   7   9
ATOM      8  N   UNL     1      25.210  34.538  26.692  0.00  0.00    -0.134 NA
ATOM      9  C   UNL     1      25.723  33.403  26.148  0.00  0.00    +0.086 A 
ATOM     10  C   UNL     1      25.193  32.316  26.805  0.00  0.00    +0.139 A 
ATOM     11  N   UNL     1      24.328  32.840  27.753  0.00  0.00    -0.219 N 
ATOM     12  N   UNL     1      24.377  34.187  27.659  0.00  0.00    -0.061 NA
BRANCH  11  13
ATOM     13  C   UNL     1      23.500  32.132  28.679  0.00  0.00    +0.080 A 
ATOM     14  C   UNL     1      22.252  31.656  28.210  0.00  0.00    +0.029 A 
ATOM     15  C   UNL     1      21.364  30.970  29.044  0.00  0.00    +0.002 A 
ATOM     16  C   UNL     1      21.697  30.741  30.369  0.00  0.00    +0.001 A 
ATOM     17  C   UNL     1      22.920  31.194  30.856  0.00  0.00    +0.016 A 
ATOM     18  C   UNL     1      23.829  31.886  30.029  0.00  0.00    +0.039 A 
ATOM     19  I   UNL     1      25.596  32.436  31.057  0.00  0.00    -0.042 I 
ENDBRANCH  11  13
ENDBRANCH   7   9
ENDBRANCH   6   7
ENDBRANCH   5   6
ENDBRANCH   1   5
BRANCH   2  20
ATOM     20  C   UNL     1      28.259  36.398  20.398  0.00  0.00    +0.152 C 
BRANCH  20  21
ATOM     21  C   UNL     1      28.128  35.264  19.361  0.00  0.00    +0.193 C 
ATOM     22  O   UNL     1      27.449  35.826  18.216  0.00  0.00    -0.219 OA
BRANCH  21  23
ATOM     23  C   UNL     1      29.431  34.669  18.783  0.00  0.00    +0.212 C 
ATOM     24  O   UNL     1      30.423  34.538  19.814  0.00  0.00    -0.218 OA
BRANCH  23  25
ATOM     25  C   UNL     1      29.226  33.264  18.099  0.00  0.00    +0.171 C 
ATOM     26  O   UNL     1      28.890  33.370  16.719  0.00  0.00    -0.343 OA
ATOM     27  C   UNL     1      28.420  32.311  15.939  0.00  0.00    +0.220 C 
ATOM     28  C   UNL     1      27.243  31.584  16.612  0.00  0.00    +0.076 C 
ATOM     29  C   UNL     1      27.691  31.194  18.030  0.00  0.00    +0.177 C 
ATOM     30  O   UNL     1      26.651  30.481  18.685  0.00  0.00    -0.221 OA
ATOM     31  C   UNL     1      28.099  32.467  18.835  0.00  0.00    +0.155 C 
BRANCH  31  32
ATOM     32  N   UNL     1      28.519  32.102  20.185  0.00  0.00    -0.202 NA
ATOM     33  C   UNL     1      27.784  31.984  21.320  0.00  0.00    +0.242 C 
ATOM     34  C   UNL     1      28.410  31.307  22.511  0.00  0.00    +0.096 C 
ATOM     35  O   UNL     1      26.637  32.427  21.350  0.00  0.00    -0.273 OA
ENDBRANCH  31  32
BRANCH  27  36
ATOM     36  C   UNL     1      29.586  31.272  15.489  0.00  0.00    +0.391 C 
ATOM     37  O   UNL     1      28.942  30.115  15.238  0.00  0.00    -0.243 OA
ATOM     38  O   UNL     1      30.672  32.016  15.250  0.00  0.00    -0.243 OA
ENDBRANCH  27  36
ENDBRANCH  23  25
ENDBRANCH  21  23
ENDBRANCH  20  21
ENDBRANCH   2  20
TORSDOF 11
