REMARK  Name = lig_assembled_14.pdb
REMARK  13 active torsions:
REMARK  status: ('A' for Active; 'I' for Inactive)
REMARK    1  A    between atoms: _2  and  _9
REMARK    2  A    between atoms: _3  and  _10
REMARK    3  A    between atoms: _6  and  _7
REMARK    4  A    between atoms: _6  and  _14
REMARK    5  A    between atoms: _9  and  _10
REMARK    6  A    between atoms: _14  and  _16
REMARK    7  A    between atoms: _15  and  _20
REMARK    8  A    between atoms: _16  and  _19
REMARK    9  A    between atoms: _24  and  _34
REMARK   10  A    between atoms: _26  and  _27
REMARK   11  A    between atoms: _28  and  _30
REMARK   12  A    between atoms: _30  and  _32
REMARK   13  A    between atoms: _32  and  _34
REMARK                            x       y       z     vdW  Elec       q    Type
REMARK                         _______ _______ _______ _____ _____    ______ ____
ROOT
ATOM      1  C   UNL     1      28.676  36.255  21.479  0.00  0.00    +0.400 C 
ATOM      2  N   UNL     1      29.871  35.614  21.249  0.00  0.00    -0.278 N 
ATOM      3  H   UNL     1      30.563  36.156  21.856  0.00  0.00    +0.152 HD
ATOM      4  O   UNL     1      28.632  37.092  22.377  0.00  0.00    -0.226 OA
ENDROOT
BRANCH   2   5
ATOM      5  C   UNL     1      30.597  34.540  20.576  0.00  0.00    +0.152 C 
BRANCH   5   6
ATOM      6  C   UNL     1      32.135  34.585  20.689  0.00  0.00    +0.193 C 
ATOM      7  O   UNL     1      32.583  33.216  20.796  0.00  0.00    -0.219 OA
BRANCH   6   8
ATOM      8  C   UNL     1      32.924  35.156  19.490  0.00  0.00    +0.212 C 
ATOM      9  O   UNL     1      32.291  34.791  18.253  0.00  0.00    -0.218 OA
BRANCH   8  10
ATOM     10  C   UNL     1      33.077  36.725  19.534  0.00  0.00    +0.171 C 
ATOM     11  O   UNL     1      31.841  37.389  19.774  0.00  0.00    -0.343 OA
ATOM     12  C   UNL     1      31.643  38.764  19.623  0.00  0.00    +0.220 C 
ATOM     13  C   UNL     1      32.142  39.265  18.256  0.00  0.00    +0.076 C 
ATOM     14  C   UNL     1      33.598  38.799  18.095  0.00  0.00    +0.177 C 
ATOM     15  O   UNL     1      34.122  39.271  16.862  0.00  0.00    -0.221 OA
ATOM     16  C   UNL     1      33.678  37.243  18.187  0.00  0.00    +0.155 C 
BRANCH  16  17
ATOM     17  N   UNL     1      35.060  36.796  18.028  0.00  0.00    -0.202 NA
ATOM     18  C   UNL     1      35.629  36.074  17.029  0.00  0.00    +0.242 C 
ATOM     19  C   UNL     1      37.132  36.003  16.965  0.00  0.00    +0.096 C 
ATOM     20  O   UNL     1      34.913  35.503  16.209  0.00  0.00    -0.273 OA
ENDBRANCH  16  17
BRANCH  12  21
ATOM     21  C   UNL     1      32.258  39.644  20.842  0.00  0.00    +0.391 C 
ATOM     22  O   UNL     1      32.387  40.889  20.342  0.00  0.00    -0.243 OA
ATOM     23  O   UNL     1      32.123  38.896  21.943  0.00  0.00    -0.243 OA
ENDBRANCH  12  21
ENDBRANCH   8  10
ENDBRANCH   6   8
ENDBRANCH   5   6
ENDBRANCH   2   5
BRANCH   1  24
ATOM     24  O   UNL     1      27.705  35.929  20.691  0.00  0.00    -0.450 OA
BRANCH  24  25
ATOM     25  C   UNL     1      27.267  36.178  19.376  0.00  0.00    +0.240 C 
BRANCH  25  26
ATOM     26  C   UNL     1      25.748  36.188  19.122  0.00  0.00    +0.100 C 
BRANCH  26  28
ATOM     27  N   UNL     1      24.554  38.209  18.341  0.00  0.00    -0.134 NA
ATOM     28  C   UNL     1      25.406  37.171  18.077  0.00  0.00    +0.086 A 
ATOM     29  C   UNL     1      25.813  37.244  16.763  0.00  0.00    +0.133 A 
ATOM     30  N   UNL     1      25.161  38.337  16.281  0.00  0.00    -0.250 N 
ATOM     31  N   UNL     1      24.413  38.921  17.232  0.00  0.00    -0.065 NA
BRANCH  30  32
ATOM     32  C   UNL     1      25.156  38.852  14.929  0.00  0.00    +0.160 C 
BRANCH  32  33
ATOM     33  C   UNL     1      26.575  39.058  14.389  0.00  0.00    +0.107 C 
BRANCH  33  34
ATOM     34  N   UNL     1      26.682  38.816  12.940  0.00  0.00    -0.301 NA
ATOM     35  C   UNL     1      27.132  39.995  12.192  0.00  0.00    +0.084 C 
ATOM     36  C   UNL     1      27.552  39.399  10.863  0.00  0.00    +0.017 C 
ATOM     37  C   UNL     1      28.196  38.079  11.246  0.00  0.00    +0.017 C 
ATOM     38  C   UNL     1      27.650  37.753  12.634  0.00  0.00    +0.084 C 
ENDBRANCH  33  34
ENDBRANCH  32  33
ENDBRANCH  30  32
ENDBRANCH  26  28
ENDBRANCH  25  26
ENDBRANCH  24  25
ENDBRANCH   1  24
TORSDOF 13
