REMARK  Name = lig_assembled_4.pdb
REMARK  14 active torsions:
REMARK  status: ('A' for Active; 'I' for Inactive)
REMARK    1  A    between atoms: _2  and  _8
REMARK    2  A    between atoms: _5  and  _6
REMARK    3  A    between atoms: _5  and  _16
REMARK    4  A    between atoms: _9  and  _10
REMARK    5  A    between atoms: _10  and  _11
REMARK    6  A    between atoms: _10  and  _12
REMARK    7  A    between atoms: _16  and  _18
REMARK    8  A    between atoms: _17  and  _22
REMARK    9  A    between atoms: _18  and  _21
REMARK   10  A    between atoms: _26  and  _36
REMARK   11  A    between atoms: _28  and  _29
REMARK   12  A    between atoms: _30  and  _32
REMARK   13  A    between atoms: _32  and  _34
REMARK   14  A    between atoms: _34  and  _36
REMARK                            x       y       z     vdW  Elec       q    Type
REMARK                         _______ _______ _______ _____ _____    ______ ____
ROOT
ATOM      1  C   UNL     1      28.304  40.407  22.740  0.00  0.00    +0.400 C 
ATOM      2  N   UNL     1      28.551  39.115  22.340  0.00  0.00    -0.278 N 
ATOM      3  H   UNL     1      28.295  39.124  21.302  0.00  0.00    +0.152 HD
ATOM      4  O   UNL     1      28.056  41.244  21.875  0.00  0.00    -0.226 OA
ENDROOT
BRANCH   2   5
ATOM      5  C   UNL     1      29.010  37.772  22.685  0.00  0.00    +0.152 C 
BRANCH   5   6
ATOM      6  C   UNL     1      28.900  36.710  21.572  0.00  0.00    +0.193 C 
ATOM      7  O   UNL     1      27.957  37.220  20.603  0.00  0.00    -0.219 OA
BRANCH   6   8
ATOM      8  C   UNL     1      30.170  36.401  20.749  0.00  0.00    +0.212 C 
ATOM      9  O   UNL     1      31.121  35.677  21.546  0.00  0.00    -0.218 OA
BRANCH   8  10
ATOM     10  C   UNL     1      29.879  35.575  19.438  0.00  0.00    +0.171 C 
ATOM     11  O   UNL     1      29.448  34.246  19.712  0.00  0.00    -0.343 OA
ATOM     12  C   UNL     1      29.357  33.234  18.754  0.00  0.00    +0.220 C 
ATOM     13  C   UNL     1      30.654  33.104  17.936  0.00  0.00    +0.076 C 
ATOM     14  C   UNL     1      30.990  34.496  17.377  0.00  0.00    +0.177 C 
ATOM     15  O   UNL     1      32.162  34.424  16.578  0.00  0.00    -0.221 OA
ATOM     16  C   UNL     1      31.161  35.517  18.544  0.00  0.00    +0.155 C 
BRANCH  16  17
ATOM     17  N   UNL     1      31.487  36.840  18.017  0.00  0.00    -0.202 NA
ATOM     18  C   UNL     1      32.630  37.563  18.134  0.00  0.00    +0.242 C 
ATOM     19  C   UNL     1      32.808  38.768  17.248  0.00  0.00    +0.096 C 
ATOM     20  O   UNL     1      33.484  37.222  18.951  0.00  0.00    -0.273 OA
ENDBRANCH  16  17
BRANCH  12  21
ATOM     21  C   UNL     1      28.055  33.369  17.791  0.00  0.00    +0.391 C 
ATOM     22  O   UNL     1      27.411  34.468  18.230  0.00  0.00    -0.243 OA
ATOM     23  O   UNL     1      28.269  32.541  16.761  0.00  0.00    -0.243 OA
ENDBRANCH  12  21
ENDBRANCH   8  10
ENDBRANCH   6   8
ENDBRANCH   5   6
ENDBRANCH   2   5
BRANCH   1  24
ATOM     24  O   UNL     1      28.325  40.612  24.016  0.00  0.00    -0.450 OA
BRANCH  24  25
ATOM     25  C   UNL     1      28.756  41.590  24.934  0.00  0.00    +0.240 C 
BRANCH  25  26
ATOM     26  C   UNL     1      30.156  41.417  25.553  0.00  0.00    +0.100 C 
BRANCH  26  28
ATOM     27  N   UNL     1      31.441  43.248  24.512  0.00  0.00    -0.134 NA
ATOM     28  C   UNL     1      31.197  41.916  24.635  0.00  0.00    +0.086 A 
ATOM     29  C   UNL     1      32.019  41.224  23.775  0.00  0.00    +0.139 A 
ATOM     30  N   UNL     1      32.666  42.200  23.042  0.00  0.00    -0.220 N 
ATOM     31  N   UNL     1      32.353  43.407  23.560  0.00  0.00    -0.061 NA
BRANCH  30  32
ATOM     32  C   UNL     1      33.509  42.016  21.905  0.00  0.00    +0.070 A 
ATOM     33  C   UNL     1      33.017  41.693  20.611  0.00  0.00    -0.019 A 
ATOM     34  C   UNL     1      33.965  41.508  19.580  0.00  0.00    +0.006 A 
ATOM     35  C   UNL     1      35.338  41.620  19.806  0.00  0.00    +0.000 A 
ATOM     36  C   UNL     1      35.806  41.942  21.069  0.00  0.00    +0.002 A 
ATOM     37  C   UNL     1      34.901  42.138  22.112  0.00  0.00    +0.028 A 
BRANCH  33  38
ATOM     38  C   UNL     1      31.534  41.525  20.271  0.00  0.00    +0.015 C 
ATOM     39  C   UNL     1      31.062  40.070  20.121  0.00  0.00    +0.012 C 
ATOM     40  C   UNL     1      31.196  42.313  19.002  0.00  0.00    +0.012 C 
ENDBRANCH  33  38
ENDBRANCH  30  32
ENDBRANCH  26  28
ENDBRANCH  25  26
ENDBRANCH  24  25
ENDBRANCH   1  24
TORSDOF 12
