REMARK  Name = lig_assembled_9.pdb
REMARK  15 active torsions:
REMARK  status: ('A' for Active; 'I' for Inactive)
REMARK    1  A    between atoms: _2  and  _8
REMARK    2  A    between atoms: _5  and  _6
REMARK    3  A    between atoms: _5  and  _18
REMARK    4  A    between atoms: _10  and  _11
REMARK    5  A    between atoms: _11  and  _16
REMARK    6  A    between atoms: _12  and  _13
REMARK    7  A    between atoms: _12  and  _16
REMARK    8  A    between atoms: _18  and  _20
REMARK    9  A    between atoms: _19  and  _24
REMARK   10  A    between atoms: _20  and  _23
REMARK   11  A    between atoms: _28  and  _38
REMARK   12  A    between atoms: _30  and  _31
REMARK   13  A    between atoms: _32  and  _34
REMARK   14  A    between atoms: _34  and  _36
REMARK   15  A    between atoms: _36  and  _38
REMARK                            x       y       z     vdW  Elec       q    Type
REMARK                         _______ _______ _______ _____ _____    ______ ____
ROOT
ATOM      1  C   UNL     1      24.931  31.300  23.188  0.00  0.00    +0.400 C 
ATOM      2  N   UNL     1      25.816  30.652  24.016  0.00  0.00    -0.278 N 
ATOM      3  H   UNL     1      25.534  29.625  23.924  0.00  0.00    +0.152 HD
ATOM      4  O   UNL     1      24.217  30.620  22.456  0.00  0.00    -0.226 OA
ENDROOT
BRANCH   2   5
ATOM      5  C   UNL     1      26.951  30.732  24.932  0.00  0.00    +0.152 C 
BRANCH   5   6
ATOM      6  C   UNL     1      28.299  30.214  24.391  0.00  0.00    +0.193 C 
ATOM      7  O   UNL     1      29.187  31.352  24.331  0.00  0.00    -0.219 OA
BRANCH   6   8
ATOM      8  C   UNL     1      29.061  29.176  25.244  0.00  0.00    +0.212 C 
ATOM      9  O   UNL     1      28.137  28.321  25.937  0.00  0.00    -0.218 OA
BRANCH   8  10
ATOM     10  C   UNL     1      30.044  28.277  24.402  0.00  0.00    +0.171 C 
ATOM     11  O   UNL     1      31.323  28.879  24.227  0.00  0.00    -0.343 OA
ATOM     12  C   UNL     1      32.293  28.423  23.331  0.00  0.00    +0.220 C 
ATOM     13  C   UNL     1      31.716  28.222  21.919  0.00  0.00    +0.076 C 
ATOM     14  C   UNL     1      30.478  27.319  22.048  0.00  0.00    +0.177 C 
ATOM     15  O   UNL     1      29.928  27.069  20.763  0.00  0.00    -0.221 OA
ATOM     16  C   UNL     1      29.428  27.978  22.996  0.00  0.00    +0.155 C 
BRANCH  16  17
ATOM     17  N   UNL     1      28.248  27.126  23.116  0.00  0.00    -0.202 NA
ATOM     18  C   UNL     1      27.014  27.272  22.571  0.00  0.00    +0.242 C 
ATOM     19  C   UNL     1      26.070  26.099  22.614  0.00  0.00    +0.096 C 
ATOM     20  O   UNL     1      26.698  28.345  22.061  0.00  0.00    -0.273 OA
ENDBRANCH  16  17
BRANCH  12  21
ATOM     21  C   UNL     1      33.079  27.098  23.848  0.00  0.00    +0.391 C 
ATOM     22  O   UNL     1      33.710  26.621  22.758  0.00  0.00    -0.243 OA
ATOM     23  O   UNL     1      33.053  27.151  25.186  0.00  0.00    -0.243 OA
ENDBRANCH  12  21
ENDBRANCH   8  10
ENDBRANCH   6   8
ENDBRANCH   5   6
ENDBRANCH   2   5
BRANCH   1  24
ATOM     24  O   UNL     1      24.916  32.589  23.285  0.00  0.00    -0.450 OA
BRANCH  24  25
ATOM     25  C   UNL     1      25.697  33.698  22.904  0.00  0.00    +0.240 C 
BRANCH  25  26
ATOM     26  C   UNL     1      24.962  34.912  22.303  0.00  0.00    +0.100 C 
BRANCH  26  28
ATOM     27  N   UNL     1      22.537  35.229  22.683  0.00  0.00    -0.134 NA
ATOM     28  C   UNL     1      23.817  35.287  23.153  0.00  0.00    +0.086 A 
ATOM     29  C   UNL     1      23.797  35.718  24.459  0.00  0.00    +0.139 A 
ATOM     30  N   UNL     1      22.463  35.876  24.761  0.00  0.00    -0.220 N 
ATOM     31  N   UNL     1      21.721  35.595  23.664  0.00  0.00    -0.061 NA
BRANCH  30  32
ATOM     32  C   UNL     1      21.872  36.235  25.998  0.00  0.00    +0.068 A 
ATOM     33  C   UNL     1      20.782  35.512  26.503  0.00  0.00    +0.042 A 
ATOM     34  C   UNL     1      20.179  35.892  27.712  0.00  0.00    +0.061 A 
ATOM     35  C   UNL     1      20.673  36.995  28.417  0.00  0.00    +0.015 A 
ATOM     36  C   UNL     1      21.767  37.709  27.924  0.00  0.00    +0.003 A 
ATOM     37  C   UNL     1      22.366  37.332  26.720  0.00  0.00    +0.028 A 
BRANCH  34  38
ATOM     38  C   UNL     1      19.061  35.116  28.311  0.00  0.00    +0.339 C 
ATOM     39  O   UNL     1      18.829  33.947  28.048  0.00  0.00    -0.245 OA
BRANCH  38  40
ATOM     40  O   UNL     1      18.307  35.928  29.093  0.00  0.00    -0.461 OA
BRANCH  40  41
ATOM     41  C   UNL     1      16.964  35.485  29.329  0.00  0.00    +0.229 C 
ATOM     42  C   UNL     1      16.062  36.705  29.338  0.00  0.00    +0.048 C 
ENDBRANCH  40  41
ENDBRANCH  38  40
ENDBRANCH  34  38
ENDBRANCH  30  32
ENDBRANCH  26  28
ENDBRANCH  25  26
ENDBRANCH  24  25
ENDBRANCH   1  24
TORSDOF 14
