REMARK  Name = lig_assembled_11.pdb
REMARK  17 active torsions:
REMARK  status: ('A' for Active; 'I' for Inactive)
REMARK    1  A    between atoms: _2  and  _8
REMARK    2  A    between atoms: _4  and  _8
REMARK    3  A    between atoms: _4  and  _12
REMARK    4  A    between atoms: _5  and  _6
REMARK    5  A    between atoms: _5  and  _16
REMARK    6  A    between atoms: _8  and  _9
REMARK    7  A    between atoms: _9  and  _10
REMARK    8  A    between atoms: _10  and  _11
REMARK    9  A    between atoms: _11  and  _14
REMARK   10  A    between atoms: _16  and  _18
REMARK   11  A    between atoms: _17  and  _22
REMARK   12  A    between atoms: _18  and  _21
REMARK   13  A    between atoms: _26  and  _36
REMARK   14  A    between atoms: _28  and  _29
REMARK   15  A    between atoms: _30  and  _32
REMARK   16  A    between atoms: _32  and  _34
REMARK   17  A    between atoms: _34  and  _36
REMARK                            x       y       z     vdW  Elec       q    Type
REMARK                         _______ _______ _______ _____ _____    ______ ____
ROOT
ATOM      1  C   UNL     1      26.614  34.591  23.304  0.00  0.00    +0.400 C 
ATOM      2  N   UNL     1      27.728  34.015  22.740  0.00  0.00    -0.278 N 
ATOM      3  H   UNL     1      28.403  34.837  22.633  0.00  0.00    +0.152 HD
ATOM      4  O   UNL     1      26.698  35.752  23.697  0.00  0.00    -0.226 OA
ENDROOT
BRANCH   1   5
ATOM      5  O   UNL     1      25.557  33.849  23.339  0.00  0.00    -0.450 OA
BRANCH   5   6
ATOM      6  C   UNL     1      24.935  32.914  24.189  0.00  0.00    +0.240 C 
BRANCH   6   7
ATOM      7  C   UNL     1      23.912  33.449  25.208  0.00  0.00    +0.100 C 
BRANCH   7   9
ATOM      8  N   UNL     1      22.386  32.150  26.660  0.00  0.00    -0.134 NA
ATOM      9  C   UNL     1      22.824  32.473  25.407  0.00  0.00    +0.086 A 
ATOM     10  C   UNL     1      22.094  31.765  24.480  0.00  0.00    +0.134 A 
ATOM     11  N   UNL     1      21.256  30.993  25.230  0.00  0.00    -0.238 N 
ATOM     12  N   UNL     1      21.417  31.253  26.542  0.00  0.00    -0.065 NA
BRANCH  11  13
ATOM     13  C   UNL     1      20.180  30.093  24.823  0.00  0.00    +0.217 C 
BRANCH  13  14
ATOM     14  C   UNL     1      19.016  30.798  24.143  0.00  0.00    +0.330 C 
ATOM     15  O   UNL     1      18.160  31.468  24.701  0.00  0.00    -0.249 OA
BRANCH  14  16
ATOM     16  O   UNL     1      18.975  30.623  22.798  0.00  0.00    -0.479 OA
ATOM     17  H   UNL     1      19.707  30.119  22.392  0.00  0.00    +0.295 HD
ENDBRANCH  14  16
ENDBRANCH  13  14
BRANCH  13  18
ATOM     18  C   UNL     1      19.728  29.181  25.978  0.00  0.00    +0.049 C 
BRANCH  18  19
ATOM     19  C   UNL     1      19.964  27.683  25.747  0.00  0.00    +0.123 C 
BRANCH  19  20
ATOM     20  C   UNL     1      21.203  27.212  26.473  0.00  0.00    +0.305 C 
ATOM     21  O   UNL     1      22.179  27.906  26.708  0.00  0.00    -0.251 OA
BRANCH  20  22
ATOM     22  O   UNL     1      21.136  25.909  26.824  0.00  0.00    -0.481 OA
ATOM     23  H   UNL     1      20.304  25.464  26.574  0.00  0.00    +0.295 HD
ENDBRANCH  20  22
ENDBRANCH  19  20
ENDBRANCH  18  19
ENDBRANCH  13  18
ENDBRANCH  11  13
ENDBRANCH   7   9
ENDBRANCH   6   7
ENDBRANCH   5   6
ENDBRANCH   1   5
BRANCH   2  24
ATOM     24  C   UNL     1      28.392  32.811  22.247  0.00  0.00    +0.152 C 
BRANCH  24  25
ATOM     25  C   UNL     1      29.830  32.573  22.752  0.00  0.00    +0.193 C 
ATOM     26  O   UNL     1      29.721  31.807  23.971  0.00  0.00    -0.219 OA
BRANCH  25  27
ATOM     27  C   UNL     1      30.773  31.740  21.856  0.00  0.00    +0.212 C 
ATOM     28  O   UNL     1      30.013  30.934  20.940  0.00  0.00    -0.218 OA
BRANCH  27  29
ATOM     29  C   UNL     1      31.788  32.619  21.031  0.00  0.00    +0.171 C 
ATOM     30  O   UNL     1      32.387  33.646  21.815  0.00  0.00    -0.343 OA
ATOM     31  C   UNL     1      33.128  34.707  21.290  0.00  0.00    +0.220 C 
ATOM     32  C   UNL     1      32.377  35.420  20.153  0.00  0.00    +0.076 C 
ATOM     33  C   UNL     1      31.964  34.350  19.128  0.00  0.00    +0.177 C 
ATOM     34  O   UNL     1      31.299  34.963  18.033  0.00  0.00    -0.221 OA
ATOM     35  C   UNL     1      31.063  33.273  19.809  0.00  0.00    +0.155 C 
BRANCH  35  36
ATOM     36  N   UNL     1      30.664  32.259  18.838  0.00  0.00    -0.202 NA
ATOM     37  C   UNL     1      29.565  32.203  18.042  0.00  0.00    +0.242 C 
ATOM     38  C   UNL     1      29.543  31.197  16.921  0.00  0.00    +0.096 C 
ATOM     39  O   UNL     1      28.625  32.967  18.252  0.00  0.00    -0.273 OA
ENDBRANCH  35  36
BRANCH  31  40
ATOM     40  C   UNL     1      34.632  34.287  20.841  0.00  0.00    +0.391 C 
ATOM     41  O   UNL     1      35.089  35.337  20.131  0.00  0.00    -0.243 OA
ATOM     42  O   UNL     1      34.954  33.219  21.580  0.00  0.00    -0.243 OA
ENDBRANCH  31  40
ENDBRANCH  27  29
ENDBRANCH  25  27
ENDBRANCH  24  25
ENDBRANCH   2  24
TORSDOF 17
