REMARK VINA RESULT:    -5.872      2.697      8.413
REMARK INTER + INTRA:         -20.868
REMARK INTER:                  -9.717
REMARK INTRA:                 -11.151
REMARK UNBOUND:                -8.816
REMARK SMILES CC(=O)N[C@@H]1[C@@H](O)C[C@](O)(C(=O)O)O[C@H]1C(O)[C@H](O)CNC(=O)OCc1cn(C[C@@H](C(=O)O)C(c2ccccc2)c2ccccc2)nn1
REMARK SMILES IDX 21 1 22 2 23 3 20 5 18 6 16 7 15 8 9 9 8 10 14 11 6 12 5 13
REMARK SMILES IDX 10 14 11 16 12 17 13 18 7 20 4 22 2 23 1 25 3 26 17 27 19 29
REMARK SMILES IDX 24 31 25 32 26 33 27 34 48 35 28 36 47 37 29 38 30 39 31 40
REMARK SMILES IDX 32 41 33 42 34 44 35 45 36 46 40 47 37 48 39 49 38 50 41 51
REMARK SMILES IDX 42 52 46 53 43 54 45 55 44 56
REMARK H PARENT 21 4 10 15 13 19 7 21 4 24 17 28 19 30 33 43
REMARK Flexibility Score: inf
ROOT
ATOM      1  N   UNL     1      20.104  36.193  10.723  1.00  0.00    -0.319 N 
ATOM      2  C   UNL     1      19.782  37.385  11.387  1.00  0.00     0.407 C 
ATOM      3  O   UNL     1      19.098  38.247  10.780  1.00  0.00    -0.225 OA
ATOM      4  H   UNL     1      20.662  35.453  11.175  1.00  0.00     0.167 HD
ENDROOT
BRANCH   1   5
ATOM      5  C   UNL     1      19.650  35.951   9.337  1.00  0.00     0.154 C 
BRANCH   5   6
ATOM      6  C   UNL     1      20.871  35.746   8.489  1.00  0.00     0.165 C 
BRANCH   6   7
ATOM      7  C   UNL     1      21.381  36.935   7.753  1.00  0.00     0.176 C 
BRANCH   7   8
ATOM      8  C   UNL     1      22.782  37.379   8.141  1.00  0.00     0.178 C 
ATOM      9  C   UNL     1      24.353  36.747   9.758  1.00  0.00     0.269 C 
ATOM     10  C   UNL     1      24.570  38.213  10.107  1.00  0.00     0.112 C 
ATOM     11  O   UNL     1      23.080  36.568   9.260  1.00  0.00    -0.332 OA
ATOM     12  C   UNL     1      23.249  38.960   9.997  1.00  0.00     0.145 C 
ATOM     13  C   UNL     1      22.808  38.819   8.514  1.00  0.00     0.142 C 
BRANCH   9  14
ATOM     14  O   UNL     1      24.365  36.037  10.989  1.00  0.00    -0.357 OA
ATOM     15  H   UNL     1      23.422  35.929  11.239  1.00  0.00     0.214 HD
ENDBRANCH   9  14
BRANCH   9  16
ATOM     16  C   UNL     1      25.432  36.190   8.927  1.00  0.00     0.364 C 
ATOM     17  O   UNL     1      26.183  36.947   8.279  1.00  0.00    -0.246 OA
BRANCH  16  18
ATOM     18  O   UNL     1      25.617  34.828   8.860  1.00  0.00    -0.477 OA
ATOM     19  H   UNL     1      26.462  34.351   9.164  1.00  0.00     0.296 HD
ENDBRANCH  16  18
ENDBRANCH   9  16
BRANCH  12  20
ATOM     20  O   UNL     1      22.262  38.391  10.757  1.00  0.00    -0.391 OA
ATOM     21  H   UNL     1      22.593  37.692  11.390  1.00  0.00     0.211 HD
ENDBRANCH  12  20
BRANCH  13  22
ATOM     22  N   UNL     1      23.702  39.633   7.704  1.00  0.00    -0.348 N 
ATOM     23  C   UNL     1      23.211  40.797   7.084  1.00  0.00     0.217 C 
ATOM     24  H   UNL     1      24.705  39.378   7.568  1.00  0.00     0.163 HD
ATOM     25  C   UNL     1      24.167  41.609   6.248  1.00  0.00     0.114 C 
ATOM     26  O   UNL     1      22.034  41.218   7.169  1.00  0.00    -0.275 OA
ENDBRANCH  13  22
ENDBRANCH   7   8
BRANCH   7  27
ATOM     27  O   UNL     1      20.542  38.061   8.142  1.00  0.00    -0.388 OA
ATOM     28  H   UNL     1      21.174  38.821   8.036  1.00  0.00     0.211 HD
ENDBRANCH   7  27
ENDBRANCH   6   7
BRANCH   6  29
ATOM     29  O   UNL     1      20.832  34.568   7.774  1.00  0.00    -0.388 OA
ATOM     30  H   UNL     1      20.142  34.571   7.057  1.00  0.00     0.211 HD
ENDBRANCH   6  29
ENDBRANCH   5   6
ENDBRANCH   1   5
BRANCH   2  31
ATOM     31  O   UNL     1      20.179  37.676  12.686  1.00  0.00    -0.443 OA
BRANCH  31  32
ATOM     32  C   UNL     1      20.270  36.624  13.631  1.00  0.00     0.294 C 
BRANCH  32  33
ATOM     33  C   UNL     1      21.693  36.229  13.796  1.00  0.00     0.120 A 
ATOM     34  C   UNL     1      22.241  35.074  14.304  1.00  0.00     0.138 A 
ATOM     35  N   UNL     1      22.748  36.987  13.456  1.00  0.00    -0.132 NA
ATOM     36  N   UNL     1      23.583  35.136  14.268  1.00  0.00    -0.251 N 
ATOM     37  N   UNL     1      23.864  36.331  13.740  1.00  0.00    -0.067 NA
BRANCH  36  38
ATOM     38  C   UNL     1      24.570  34.134  14.703  1.00  0.00     0.162 C 
BRANCH  38  39
ATOM     39  C   UNL     1      24.904  33.282  13.514  1.00  0.00     0.132 C 
BRANCH  39  40
ATOM     40  C   UNL     1      26.151  33.739  12.825  1.00  0.00     0.309 C 
ATOM     41  O   UNL     1      26.202  33.777  11.549  1.00  0.00    -0.252 OA
BRANCH  40  42
ATOM     42  O   UNL     1      27.298  34.141  13.475  1.00  0.00    -0.481 OA
ATOM     43  H   UNL     1      27.822  34.980  13.192  1.00  0.00     0.296 HD
ENDBRANCH  40  42
ENDBRANCH  39  40
BRANCH  39  44
ATOM     44  C   UNL     1      24.892  31.812  13.736  1.00  0.00     0.065 C 
BRANCH  44  45
ATOM     45  C   UNL     1      23.695  31.114  13.219  1.00  0.00    -0.040 A 
ATOM     46  C   UNL     1      23.718  29.784  12.968  1.00  0.00     0.004 A 
ATOM     47  C   UNL     1      22.536  31.831  12.975  1.00  0.00     0.004 A 
ATOM     48  C   UNL     1      22.569  29.160  12.465  1.00  0.00     0.000 A 
ATOM     49  C   UNL     1      21.395  31.236  12.483  1.00  0.00     0.000 A 
ATOM     50  C   UNL     1      21.422  29.882  12.227  1.00  0.00     0.000 A 
ENDBRANCH  44  45
BRANCH  44  51
ATOM     51  C   UNL     1      25.211  31.385  15.121  1.00  0.00    -0.040 A 
ATOM     52  C   UNL     1      24.261  31.100  16.073  1.00  0.00     0.004 A 
ATOM     53  C   UNL     1      26.532  31.252  15.550  1.00  0.00     0.004 A 
ATOM     54  C   UNL     1      24.591  30.712  17.352  1.00  0.00     0.000 A 
ATOM     55  C   UNL     1      26.878  30.866  16.822  1.00  0.00     0.000 A 
ATOM     56  C   UNL     1      25.893  30.591  17.744  1.00  0.00     0.000 A 
ENDBRANCH  44  51
ENDBRANCH  39  44
ENDBRANCH  38  39
ENDBRANCH  36  38
ENDBRANCH  32  33
ENDBRANCH  31  32
ENDBRANCH   2  31
TORSDOF 21
BEGIN_RES LYS A 135
REMARK  4 active torsions:
REMARK  status: ('A' for Active; 'I' for Inactive)
REMARK    1  A    between atoms: CA   and  CB  
REMARK    2  A    between atoms: CB   and  CG  
REMARK    3  A    between atoms: CG   and  CD  
REMARK    4  A    between atoms: CD   and  CE  
ROOT
ATOM      1  CA  LYS A 135      33.193  34.663   9.290  1.00 25.02     0.186 C 
ENDROOT
BRANCH   1   2
ATOM      2  CB  LYS A 135      32.060  35.360  10.034  1.00 26.63     0.034 C 
BRANCH   2   3
ATOM      3  CG  LYS A 135      30.695  34.815   9.701  1.00 29.45     0.005 C 
BRANCH   3   4
ATOM      4  CD  LYS A 135      30.482  34.785   8.195  1.00 32.00     0.041 C 
BRANCH   4   5
ATOM      5  CE  LYS A 135      29.004  34.874   7.865  1.00 34.25     0.338 C 
ATOM      6  NZ  LYS A 135      28.785  35.584   6.574  1.00 35.99     0.618 N 
ENDBRANCH   4   5
ENDBRANCH   3   4
ENDBRANCH   2   3
ENDBRANCH   1   2
END_RES LYS A 135
BEGIN_RES ARG A 124
REMARK  4 active torsions:
REMARK  status: ('A' for Active; 'I' for Inactive)
REMARK    5  A    between atoms: CA   and  CB  
REMARK    6  A    between atoms: CB   and  CG  
REMARK    7  A    between atoms: CG   and  CD  
REMARK    8  A    between atoms: CD   and  NE  
REMARK       I    between atoms: NE   and  CZ  
ROOT
ATOM      7  CA  ARG A 124      31.045  26.515   9.594  1.00 17.84     0.186 C 
ENDROOT
BRANCH   7   8
ATOM      8  CB  ARG A 124      29.529  26.705   9.647  1.00 16.18     0.036 C 
BRANCH   8   9
ATOM      9  CG  ARG A 124      28.971  27.350  10.966  1.00 16.22     0.029 C 
BRANCH   9  10
ATOM     10  CD  ARG A 124      28.429  26.301  11.964  1.00 15.09     0.145 C 
BRANCH  10  11
ATOM     11  NE  ARG A 124      27.939  26.880  13.234  1.00 16.98    -0.083 NA
ATOM     12  CZ  ARG A 124      26.677  27.214  13.480  1.00 18.21     0.782 C 
ATOM     13  NH1 ARG A 124      25.725  27.033  12.573  1.00 21.11     0.063 N 
ATOM     14  NH2 ARG A 124      26.345  27.717  14.659  1.00 21.25     0.063 N 
ENDBRANCH  10  11
ENDBRANCH   9  10
ENDBRANCH   8   9
ENDBRANCH   7   8
END_RES ARG A 124
BEGIN_RES ASN A 133
REMARK  2 active torsions:
REMARK  status: ('A' for Active; 'I' for Inactive)
REMARK    9  A    between atoms: CA   and  CB  
REMARK   10  A    between atoms: CB   and  CG  
ROOT
ATOM     15  CA  ASN A 133      31.225  30.257  11.749  1.00 18.15     0.196 C 
ENDROOT
BRANCH  15  16
ATOM     16  CB  ASN A 133      30.092  31.240  11.460  1.00 18.27     0.126 C 
BRANCH  16  17
ATOM     17  CG  ASN A 133      29.039  31.259  12.525  1.00 18.94     0.276 C 
ATOM     18  OD1 ASN A 133      29.164  31.956  13.533  1.00 18.09    -0.269 OA
ATOM     19  ND2 ASN A 133      27.978  30.482  12.309  1.00 18.93    -0.107 N 
ENDBRANCH  16  17
ENDBRANCH  15  16
END_RES ASN A 133
BEGIN_RES LYS A 131
REMARK  4 active torsions:
REMARK  status: ('A' for Active; 'I' for Inactive)
REMARK   11  A    between atoms: CA   and  CB  
REMARK   12  A    between atoms: CB   and  CG  
REMARK   13  A    between atoms: CG   and  CD  
REMARK   14  A    between atoms: CD   and  CE  
ROOT
ATOM     20  CA  LYS A 131      29.867  25.555  16.977  1.00 20.52     0.186 C 
ENDROOT
BRANCH  20  21
ATOM     21  CB  LYS A 131      28.345  25.722  17.026  1.00 20.94     0.034 C 
BRANCH  21  22
ATOM     22  CG  LYS A 131      27.600  24.412  16.822  1.00 22.96     0.005 C 
BRANCH  22  23
ATOM     23  CD  LYS A 131      26.146  24.525  17.186  1.00 24.33     0.041 C 
BRANCH  23  24
ATOM     24  CE  LYS A 131      25.608  23.149  17.565  1.00 26.91     0.338 C 
ATOM     25  NZ  LYS A 131      24.189  23.016  17.158  1.00 27.40     0.618 N 
ENDBRANCH  23  24
ENDBRANCH  22  23
ENDBRANCH  21  22
ENDBRANCH  20  21
END_RES LYS A 131
