REMARK VINA RESULT:    -6.639      2.603      8.524
REMARK INTER + INTRA:         -20.256
REMARK INTER:                 -11.013
REMARK INTRA:                  -9.243
REMARK UNBOUND:                -7.795
REMARK SMILES CC(=O)N[C@@H]1[C@@H](O)C[C@](O)(C(=O)O)O[C@H]1C(O)[C@H](O)CNC(=O)OCc1cn(-c2ccc(-c3c4ccc(=O)cc-4oc4cc(O)ccc34)c(C(=O)[O-])c2)nn1
REMARK SMILES IDX 21 1 22 2 23 3 20 5 18 6 16 7 15 8 9 9 8 10 14 11 6 12 5 13
REMARK SMILES IDX 10 14 11 16 12 17 13 18 7 20 4 22 2 23 1 25 3 26 17 27 19 29
REMARK SMILES IDX 24 31 25 32 26 33 27 34 55 35 28 36 54 37 29 38 53 39 30 40
REMARK SMILES IDX 49 41 31 42 32 43 50 44 51 45 52 46 33 47 48 48 34 49 47 50
REMARK SMILES IDX 42 51 40 52 35 53 46 54 43 55 41 56 39 57 36 58 44 59 37 60
REMARK SMILES IDX 38 61 45 62
REMARK H PARENT 21 4 10 15 13 19 7 21 4 24 17 28 19 30 45 63
REMARK Flexibility Score: inf
ROOT
ATOM      1  N   UNL     1      22.554  39.668   7.434  1.00  0.00    -0.319 N 
ATOM      2  C   UNL     1      22.240  39.087   8.671  1.00  0.00     0.407 C 
ATOM      3  O   UNL     1      22.477  39.686   9.726  1.00  0.00    -0.225 OA
ATOM      4  H   UNL     1      22.306  39.074   6.579  1.00  0.00     0.167 HD
ENDROOT
BRANCH   1   5
ATOM      5  C   UNL     1      23.163  40.951   7.211  1.00  0.00     0.154 C 
BRANCH   5   6
ATOM      6  C   UNL     1      24.511  40.938   6.584  1.00  0.00     0.165 C 
BRANCH   6   7
ATOM      7  C   UNL     1      25.667  40.845   7.525  1.00  0.00     0.176 C 
BRANCH   7   8
ATOM      8  C   UNL     1      26.952  40.450   6.834  1.00  0.00     0.178 C 
ATOM      9  C   UNL     1      27.852  39.660   4.895  1.00  0.00     0.269 C 
ATOM     10  C   UNL     1      29.067  39.210   5.717  1.00  0.00     0.112 C 
ATOM     11  O   UNL     1      26.709  39.795   5.656  1.00  0.00    -0.332 OA
ATOM     12  C   UNL     1      28.486  38.564   6.973  1.00  0.00     0.145 C 
ATOM     13  C   UNL     1      27.831  39.639   7.805  1.00  0.00     0.142 C 
BRANCH   9  14
ATOM     14  O   UNL     1      27.541  38.641   3.954  1.00  0.00    -0.357 OA
ATOM     15  H   UNL     1      27.541  39.049   3.048  1.00  0.00     0.214 HD
ENDBRANCH   9  14
BRANCH   9  16
ATOM     16  C   UNL     1      28.200  40.863   4.112  1.00  0.00     0.364 C 
ATOM     17  O   UNL     1      27.338  41.423   3.411  1.00  0.00    -0.246 OA
BRANCH  16  18
ATOM     18  O   UNL     1      29.468  41.439   4.097  1.00  0.00    -0.477 OA
ATOM     19  H   UNL     1      30.094  41.355   4.892  1.00  0.00     0.296 HD
ENDBRANCH  16  18
ENDBRANCH   9  16
BRANCH  12  20
ATOM     20  O   UNL     1      27.476  37.705   6.541  1.00  0.00    -0.391 OA
ATOM     21  H   UNL     1      27.643  36.768   6.786  1.00  0.00     0.211 HD
ENDBRANCH  12  20
BRANCH  13  22
ATOM     22  N   UNL     1      28.760  40.546   8.395  1.00  0.00    -0.348 N 
ATOM     23  C   UNL     1      28.680  41.049   9.725  1.00  0.00     0.217 C 
ATOM     24  H   UNL     1      29.565  40.864   7.786  1.00  0.00     0.163 HD
ATOM     25  C   UNL     1      29.720  41.980  10.184  1.00  0.00     0.114 C 
ATOM     26  O   UNL     1      27.718  40.661  10.429  1.00  0.00    -0.275 OA
ENDBRANCH  13  22
ENDBRANCH   7   8
BRANCH   7  27
ATOM     27  O   UNL     1      25.455  39.967   8.578  1.00  0.00    -0.388 OA
ATOM     28  H   UNL     1      24.576  39.529   8.430  1.00  0.00     0.211 HD
ENDBRANCH   7  27
ENDBRANCH   6   7
BRANCH   6  29
ATOM     29  O   UNL     1      24.704  42.010   5.688  1.00  0.00    -0.388 OA
ATOM     30  H   UNL     1      23.932  42.067   5.078  1.00  0.00     0.211 HD
ENDBRANCH   6  29
ENDBRANCH   5   6
ENDBRANCH   1   5
BRANCH   2  31
ATOM     31  O   UNL     1      21.652  37.823   8.776  1.00  0.00    -0.443 OA
BRANCH  31  32
ATOM     32  C   UNL     1      22.224  36.693   8.129  1.00  0.00     0.294 C 
BRANCH  32  33
ATOM     33  C   UNL     1      23.643  36.618   8.559  1.00  0.00     0.121 A 
ATOM     34  C   UNL     1      24.094  35.974   9.693  1.00  0.00     0.144 A 
ATOM     35  N   UNL     1      24.747  37.126   7.987  1.00  0.00    -0.131 NA
ATOM     36  N   UNL     1      25.431  36.120   9.755  1.00  0.00    -0.220 N 
ATOM     37  N   UNL     1      25.817  36.827   8.704  1.00  0.00    -0.062 NA
BRANCH  36  38
ATOM     38  C   UNL     1      26.243  35.583  10.801  1.00  0.00     0.067 A 
ATOM     39  C   UNL     1      26.433  36.228  12.004  1.00  0.00     0.039 A 
ATOM     40  C   UNL     1      26.884  34.362  10.640  1.00  0.00     0.029 A 
ATOM     41  C   UNL     1      27.227  35.687  13.012  1.00  0.00     0.007 A 
ATOM     42  C   UNL     1      27.671  33.823  11.636  1.00  0.00     0.012 A 
ATOM     43  C   UNL     1      27.855  34.473  12.836  1.00  0.00    -0.008 A 
BRANCH  41  44
ATOM     44  C   UNL     1      27.408  36.395  14.273  1.00  0.00     0.072 C 
ATOM     45  O   UNL     1      28.350  37.201  14.432  1.00  0.00    -0.545 OA
ATOM     46  O   UNL     1      26.510  36.156  15.299  1.00  0.00    -0.545 OA
ENDBRANCH  41  44
BRANCH  43  47
ATOM     47  C   UNL     1      28.679  33.925  13.904  1.00  0.00     0.004 A 
ATOM     48  C   UNL     1      28.144  33.094  14.872  1.00  0.00     0.026 A 
ATOM     49  C   UNL     1      30.030  34.201  14.016  1.00  0.00     0.026 A 
ATOM     50  C   UNL     1      26.799  32.760  14.845  1.00  0.00     0.016 A 
ATOM     51  C   UNL     1      28.957  32.587  15.879  1.00  0.00     0.139 A 
ATOM     52  C   UNL     1      30.842  33.643  15.093  1.00  0.00     0.139 A 
ATOM     53  C   UNL     1      30.620  35.023  13.079  1.00  0.00     0.016 A 
ATOM     54  C   UNL     1      26.253  31.930  15.808  1.00  0.00     0.047 A 
ATOM     55  C   UNL     1      28.413  31.759  16.838  1.00  0.00     0.093 A 
ATOM     56  O   UNL     1      30.247  32.867  15.961  1.00  0.00    -0.456 OA
ATOM     57  C   UNL     1      32.183  33.917  15.201  1.00  0.00     0.099 A 
ATOM     58  C   UNL     1      31.972  35.282  13.212  1.00  0.00     0.053 A 
ATOM     59  C   UNL     1      27.069  31.435  16.799  1.00  0.00     0.119 A 
ATOM     60  C   UNL     1      32.737  34.743  14.248  1.00  0.00     0.182 A 
ATOM     61  O   UNL     1      33.952  35.062  14.246  1.00  0.00    -0.290 OA
BRANCH  59  62
ATOM     62  O   UNL     1      26.549  30.596  17.783  1.00  0.00    -0.508 OA
ATOM     63  H   UNL     1      27.116  30.009  18.347  1.00  0.00     0.293 HD
ENDBRANCH  59  62
ENDBRANCH  43  47
ENDBRANCH  36  38
ENDBRANCH  32  33
ENDBRANCH  31  32
ENDBRANCH   2  31
TORSDOF 18
BEGIN_RES LYS A 135
REMARK  4 active torsions:
REMARK  status: ('A' for Active; 'I' for Inactive)
REMARK    1  A    between atoms: CA   and  CB  
REMARK    2  A    between atoms: CB   and  CG  
REMARK    3  A    between atoms: CG   and  CD  
REMARK    4  A    between atoms: CD   and  CE  
ROOT
ATOM      1  CA  LYS A 135      33.193  34.663   9.290  1.00 25.02     0.186 C 
ENDROOT
BRANCH   1   2
ATOM      2  CB  LYS A 135      32.060  35.360  10.034  1.00 26.63     0.034 C 
BRANCH   2   3
ATOM      3  CG  LYS A 135      30.689  34.980   9.537  1.00 29.45     0.005 C 
BRANCH   3   4
ATOM      4  CD  LYS A 135      29.792  36.205   9.448  1.00 32.00     0.041 C 
BRANCH   4   5
ATOM      5  CE  LYS A 135      30.451  37.397  10.115  1.00 34.25     0.338 C 
ATOM      6  NZ  LYS A 135      29.622  37.908  11.242  1.00 35.99     0.618 N 
ENDBRANCH   4   5
ENDBRANCH   3   4
ENDBRANCH   2   3
ENDBRANCH   1   2
END_RES LYS A 135
BEGIN_RES ARG A 124
REMARK  4 active torsions:
REMARK  status: ('A' for Active; 'I' for Inactive)
REMARK    5  A    between atoms: CA   and  CB  
REMARK    6  A    between atoms: CB   and  CG  
REMARK    7  A    between atoms: CG   and  CD  
REMARK    8  A    between atoms: CD   and  NE  
REMARK       I    between atoms: NE   and  CZ  
ROOT
ATOM      7  CA  ARG A 124      31.045  26.515   9.594  1.00 17.84     0.186 C 
ENDROOT
BRANCH   7   8
ATOM      8  CB  ARG A 124      29.529  26.705   9.647  1.00 16.18     0.036 C 
BRANCH   8   9
ATOM      9  CG  ARG A 124      28.929  26.985  11.071  1.00 16.22     0.029 C 
BRANCH   9  10
ATOM     10  CD  ARG A 124      27.634  26.187  11.345  1.00 15.09     0.145 C 
BRANCH  10  11
ATOM     11  NE  ARG A 124      26.430  27.033  11.492  1.00 16.98    -0.083 NA
ATOM     12  CZ  ARG A 124      25.953  27.482  12.648  1.00 18.21     0.782 C 
ATOM     13  NH1 ARG A 124      26.555  27.202  13.798  1.00 21.11     0.063 N 
ATOM     14  NH2 ARG A 124      24.870  28.244  12.665  1.00 21.25     0.063 N 
ENDBRANCH  10  11
ENDBRANCH   9  10
ENDBRANCH   8   9
ENDBRANCH   7   8
END_RES ARG A 124
BEGIN_RES ASN A 133
REMARK  2 active torsions:
REMARK  status: ('A' for Active; 'I' for Inactive)
REMARK    9  A    between atoms: CA   and  CB  
REMARK   10  A    between atoms: CB   and  CG  
ROOT
ATOM     15  CA  ASN A 133      31.225  30.257  11.749  1.00 18.15     0.196 C 
ENDROOT
BRANCH  15  16
ATOM     16  CB  ASN A 133      30.092  31.240  11.460  1.00 18.27     0.126 C 
BRANCH  16  17
ATOM     17  CG  ASN A 133      28.754  30.580  11.335  1.00 18.94     0.276 C 
ATOM     18  OD1 ASN A 133      28.361  30.133  10.256  1.00 18.09    -0.269 OA
ATOM     19  ND2 ASN A 133      28.030  30.514  12.451  1.00 18.93    -0.107 N 
ENDBRANCH  16  17
ENDBRANCH  15  16
END_RES ASN A 133
BEGIN_RES LYS A 131
REMARK  4 active torsions:
REMARK  status: ('A' for Active; 'I' for Inactive)
REMARK   11  A    between atoms: CA   and  CB  
REMARK   12  A    between atoms: CB   and  CG  
REMARK   13  A    between atoms: CG   and  CD  
REMARK   14  A    between atoms: CD   and  CE  
ROOT
ATOM     20  CA  LYS A 131      29.867  25.555  16.977  1.00 20.52     0.186 C 
ENDROOT
BRANCH  20  21
ATOM     21  CB  LYS A 131      28.345  25.722  17.026  1.00 20.94     0.034 C 
BRANCH  21  22
ATOM     22  CG  LYS A 131      27.600  24.411  16.826  1.00 22.96     0.005 C 
BRANCH  22  23
ATOM     23  CD  LYS A 131      26.258  24.413  17.503  1.00 24.33     0.041 C 
BRANCH  23  24
ATOM     24  CE  LYS A 131      26.296  25.351  18.706  1.00 26.91     0.338 C 
ATOM     25  NZ  LYS A 131      25.102  26.229  18.717  1.00 27.40     0.618 N 
ENDBRANCH  23  24
ENDBRANCH  22  23
ENDBRANCH  21  22
ENDBRANCH  20  21
END_RES LYS A 131
