REMARK VINA RESULT:    -6.599      2.048      3.043
REMARK INTER + INTRA:         -20.180
REMARK INTER:                 -12.385
REMARK INTRA:                  -7.795
REMARK UNBOUND:                -7.795
REMARK SMILES CC(=O)N[C@@H]1[C@@H](O)C[C@](O)(C(=O)O)O[C@H]1C(O)[C@H](O)CNC(=O)OCc1cn(-c2ccc(-c3c4ccc(=O)cc-4oc4cc(O)ccc34)c(C(=O)[O-])c2)nn1
REMARK SMILES IDX 21 1 22 2 23 3 20 5 18 6 16 7 15 8 9 9 8 10 14 11 6 12 5 13
REMARK SMILES IDX 10 14 11 16 12 17 13 18 7 20 4 22 2 23 1 25 3 26 17 27 19 29
REMARK SMILES IDX 24 31 25 32 26 33 27 34 55 35 28 36 54 37 29 38 53 39 30 40
REMARK SMILES IDX 49 41 31 42 32 43 50 44 51 45 52 46 33 47 48 48 34 49 47 50
REMARK SMILES IDX 42 51 40 52 35 53 46 54 43 55 41 56 39 57 36 58 44 59 37 60
REMARK SMILES IDX 38 61 45 62
REMARK H PARENT 21 4 10 15 13 19 7 21 4 24 17 28 19 30 45 63
REMARK Flexibility Score: inf
ROOT
ATOM      1  N   UNL     1      26.645  29.941  17.957  1.00  0.00    -0.319 N 
ATOM      2  C   UNL     1      26.074  28.917  17.187  1.00  0.00     0.407 C 
ATOM      3  O   UNL     1      26.781  28.032  16.693  1.00  0.00    -0.225 OA
ATOM      4  H   UNL     1      25.950  30.656  18.345  1.00  0.00     0.167 HD
ENDROOT
BRANCH   1   5
ATOM      5  C   UNL     1      28.038  30.116  18.265  1.00  0.00     0.154 C 
BRANCH   5   6
ATOM      6  C   UNL     1      28.829  30.920  17.297  1.00  0.00     0.165 C 
BRANCH   6   7
ATOM      7  C   UNL     1      28.405  32.343  17.131  1.00  0.00     0.176 C 
BRANCH   7   8
ATOM      8  C   UNL     1      29.465  33.194  16.472  1.00  0.00     0.178 C 
ATOM      9  C   UNL     1      30.148  34.122  14.505  1.00  0.00     0.269 C 
ATOM     10  C   UNL     1      31.557  34.207  15.107  1.00  0.00     0.112 C 
ATOM     11  O   UNL     1      29.364  33.158  15.107  1.00  0.00    -0.332 OA
ATOM     12  C   UNL     1      31.782  32.863  15.796  1.00  0.00     0.145 C 
ATOM     13  C   UNL     1      30.856  32.773  16.985  1.00  0.00     0.142 C 
BRANCH   9  14
ATOM     14  O   UNL     1      30.261  33.702  13.152  1.00  0.00    -0.357 OA
ATOM     15  H   UNL     1      29.635  34.249  12.607  1.00  0.00     0.214 HD
ENDBRANCH   9  14
BRANCH   9  16
ATOM     16  C   UNL     1      29.536  35.466  14.478  1.00  0.00     0.364 C 
ATOM     17  O   UNL     1      30.256  36.479  14.408  1.00  0.00    -0.246 OA
BRANCH  16  18
ATOM     18  O   UNL     1      28.163  35.695  14.526  1.00  0.00    -0.477 OA
ATOM     19  H   UNL     1      27.509  35.066  14.071  1.00  0.00     0.296 HD
ENDBRANCH  16  18
ENDBRANCH   9  16
BRANCH  12  20
ATOM     20  O   UNL     1      31.381  31.884  14.888  1.00  0.00    -0.391 OA
ATOM     21  H   UNL     1      31.304  32.228  13.969  1.00  0.00     0.211 HD
ENDBRANCH  12  20
BRANCH  13  22
ATOM     22  N   UNL     1      31.204  33.662  18.045  1.00  0.00    -0.348 N 
ATOM     23  C   UNL     1      31.185  33.330  19.430  1.00  0.00     0.217 C 
ATOM     24  H   UNL     1      31.496  34.641  17.768  1.00  0.00     0.163 HD
ATOM     25  C   UNL     1      31.572  34.362  20.401  1.00  0.00     0.114 C 
ATOM     26  O   UNL     1      30.835  32.166  19.737  1.00  0.00    -0.275 OA
ENDBRANCH  13  22
ENDBRANCH   7   8
BRANCH   7  27
ATOM     27  O   UNL     1      28.038  32.955  18.321  1.00  0.00    -0.388 OA
ATOM     28  H   UNL     1      27.963  33.930  18.146  1.00  0.00     0.211 HD
ENDBRANCH   7  27
ENDBRANCH   6   7
BRANCH   6  29
ATOM     29  O   UNL     1      28.937  30.299  16.035  1.00  0.00    -0.388 OA
ATOM     30  H   UNL     1      28.149  29.726  15.887  1.00  0.00     0.211 HD
ENDBRANCH   6  29
ENDBRANCH   5   6
ENDBRANCH   1   5
BRANCH   2  31
ATOM     31  O   UNL     1      24.699  28.845  16.941  1.00  0.00    -0.443 OA
BRANCH  31  32
ATOM     32  C   UNL     1      23.875  29.999  17.036  1.00  0.00     0.294 C 
BRANCH  32  33
ATOM     33  C   UNL     1      23.722  30.537  15.660  1.00  0.00     0.121 A 
ATOM     34  C   UNL     1      24.257  31.728  15.211  1.00  0.00     0.144 A 
ATOM     35  N   UNL     1      23.071  30.028  14.601  1.00  0.00    -0.131 NA
ATOM     36  N   UNL     1      23.909  31.883  13.919  1.00  0.00    -0.220 N 
ATOM     37  N   UNL     1      23.184  30.835  13.560  1.00  0.00    -0.062 NA
BRANCH  36  38
ATOM     38  C   UNL     1      24.285  33.008  13.123  1.00  0.00     0.067 A 
ATOM     39  C   UNL     1      23.400  33.668  12.299  1.00  0.00     0.039 A 
ATOM     40  C   UNL     1      25.586  33.489  13.154  1.00  0.00     0.029 A 
ATOM     41  C   UNL     1      23.786  34.765  11.532  1.00  0.00     0.007 A 
ATOM     42  C   UNL     1      25.973  34.575  12.396  1.00  0.00     0.012 A 
ATOM     43  C   UNL     1      25.082  35.231  11.575  1.00  0.00    -0.008 A 
BRANCH  41  44
ATOM     44  C   UNL     1      22.825  35.441  10.671  1.00  0.00     0.072 C 
ATOM     45  O   UNL     1      21.966  36.217  11.146  1.00  0.00    -0.545 OA
ATOM     46  O   UNL     1      22.880  35.207   9.308  1.00  0.00    -0.545 OA
ENDBRANCH  41  44
BRANCH  43  47
ATOM     47  C   UNL     1      25.463  36.380  10.767  1.00  0.00     0.004 A 
ATOM     48  C   UNL     1      26.094  36.223   9.545  1.00  0.00     0.026 A 
ATOM     49  C   UNL     1      25.222  37.682  11.166  1.00  0.00     0.026 A 
ATOM     50  C   UNL     1      26.380  34.957   9.059  1.00  0.00     0.016 A 
ATOM     51  C   UNL     1      26.445  37.341   8.796  1.00  0.00     0.139 A 
ATOM     52  C   UNL     1      25.610  38.823  10.342  1.00  0.00     0.139 A 
ATOM     53  C   UNL     1      24.595  37.901  12.374  1.00  0.00     0.016 A 
ATOM     54  C   UNL     1      27.010  34.789   7.839  1.00  0.00     0.047 A 
ATOM     55  C   UNL     1      27.073  37.173   7.581  1.00  0.00     0.093 A 
ATOM     56  O   UNL     1      26.202  38.575   9.203  1.00  0.00    -0.456 OA
ATOM     57  C   UNL     1      25.368  40.115  10.742  1.00  0.00     0.099 A 
ATOM     58  C   UNL     1      24.364  39.211  12.751  1.00  0.00     0.053 A 
ATOM     59  C   UNL     1      27.352  35.903   7.109  1.00  0.00     0.119 A 
ATOM     60  C   UNL     1      24.741  40.294  11.954  1.00  0.00     0.182 A 
ATOM     61  O   UNL     1      24.470  41.428  12.420  1.00  0.00    -0.290 OA
BRANCH  59  62
ATOM     62  O   UNL     1      27.989  35.767   5.876  1.00  0.00    -0.508 OA
ATOM     63  H   UNL     1      27.496  35.722   5.016  1.00  0.00     0.293 HD
ENDBRANCH  59  62
ENDBRANCH  43  47
ENDBRANCH  36  38
ENDBRANCH  32  33
ENDBRANCH  31  32
ENDBRANCH   2  31
TORSDOF 18
BEGIN_RES LYS A 135
REMARK  4 active torsions:
REMARK  status: ('A' for Active; 'I' for Inactive)
REMARK    1  A    between atoms: CA   and  CB  
REMARK    2  A    between atoms: CB   and  CG  
REMARK    3  A    between atoms: CG   and  CD  
REMARK    4  A    between atoms: CD   and  CE  
ROOT
ATOM      1  CA  LYS A 135      33.193  34.663   9.290  1.00 25.02     0.186 C 
ENDROOT
BRANCH   1   2
ATOM      2  CB  LYS A 135      32.060  35.360  10.034  1.00 26.63     0.034 C 
BRANCH   2   3
ATOM      3  CG  LYS A 135      30.699  35.095   9.444  1.00 29.45     0.005 C 
BRANCH   3   4
ATOM      4  CD  LYS A 135      29.605  35.620  10.361  1.00 32.00     0.041 C 
BRANCH   4   5
ATOM      5  CE  LYS A 135      29.655  37.134  10.438  1.00 34.25     0.338 C 
ATOM      6  NZ  LYS A 135      28.824  37.641  11.565  1.00 35.99     0.618 N 
ENDBRANCH   4   5
ENDBRANCH   3   4
ENDBRANCH   2   3
ENDBRANCH   1   2
END_RES LYS A 135
BEGIN_RES ARG A 124
REMARK  4 active torsions:
REMARK  status: ('A' for Active; 'I' for Inactive)
REMARK    5  A    between atoms: CA   and  CB  
REMARK    6  A    between atoms: CB   and  CG  
REMARK    7  A    between atoms: CG   and  CD  
REMARK    8  A    between atoms: CD   and  NE  
REMARK       I    between atoms: NE   and  CZ  
ROOT
ATOM      7  CA  ARG A 124      31.045  26.515   9.594  1.00 17.84     0.186 C 
ENDROOT
BRANCH   7   8
ATOM      8  CB  ARG A 124      29.529  26.705   9.647  1.00 16.18     0.036 C 
BRANCH   8   9
ATOM      9  CG  ARG A 124      28.960  27.249  11.006  1.00 16.22     0.029 C 
BRANCH   9  10
ATOM     10  CD  ARG A 124      28.168  26.182  11.795  1.00 15.09     0.145 C 
BRANCH  10  11
ATOM     11  NE  ARG A 124      27.325  26.740  12.875  1.00 16.98    -0.083 NA
ATOM     12  CZ  ARG A 124      26.064  27.133  12.729  1.00 18.21     0.782 C 
ATOM     13  NH1 ARG A 124      25.442  27.037  11.560  1.00 21.11     0.063 N 
ATOM     14  NH2 ARG A 124      25.396  27.609  13.769  1.00 21.25     0.063 N 
ENDBRANCH  10  11
ENDBRANCH   9  10
ENDBRANCH   8   9
ENDBRANCH   7   8
END_RES ARG A 124
BEGIN_RES ASN A 133
REMARK  2 active torsions:
REMARK  status: ('A' for Active; 'I' for Inactive)
REMARK    9  A    between atoms: CA   and  CB  
REMARK   10  A    between atoms: CB   and  CG  
ROOT
ATOM     15  CA  ASN A 133      31.225  30.257  11.749  1.00 18.15     0.196 C 
ENDROOT
BRANCH  15  16
ATOM     16  CB  ASN A 133      30.092  31.240  11.460  1.00 18.27     0.126 C 
BRANCH  16  17
ATOM     17  CG  ASN A 133      28.772  30.801  12.013  1.00 18.94     0.276 C 
ATOM     18  OD1 ASN A 133      28.410  31.136  13.143  1.00 18.09    -0.269 OA
ATOM     19  ND2 ASN A 133      28.031  30.034  11.214  1.00 18.93    -0.107 N 
ENDBRANCH  16  17
ENDBRANCH  15  16
END_RES ASN A 133
BEGIN_RES LYS A 131
REMARK  4 active torsions:
REMARK  status: ('A' for Active; 'I' for Inactive)
REMARK   11  A    between atoms: CA   and  CB  
REMARK   12  A    between atoms: CB   and  CG  
REMARK   13  A    between atoms: CG   and  CD  
REMARK   14  A    between atoms: CD   and  CE  
ROOT
ATOM     20  CA  LYS A 131      29.867  25.555  16.977  1.00 20.52     0.186 C 
ENDROOT
BRANCH  20  21
ATOM     21  CB  LYS A 131      28.345  25.722  17.026  1.00 20.94     0.034 C 
BRANCH  21  22
ATOM     22  CG  LYS A 131      27.599  24.428  16.737  1.00 22.96     0.005 C 
BRANCH  22  23
ATOM     23  CD  LYS A 131      26.896  23.896  17.955  1.00 24.33     0.041 C 
BRANCH  23  24
ATOM     24  CE  LYS A 131      25.409  23.735  17.655  1.00 26.91     0.338 C 
ATOM     25  NZ  LYS A 131      24.925  24.857  16.816  1.00 27.40     0.618 N 
ENDBRANCH  23  24
ENDBRANCH  22  23
ENDBRANCH  21  22
ENDBRANCH  20  21
END_RES LYS A 131
