REMARK VINA RESULT:    -5.654      4.322      7.818
REMARK INTER + INTRA:         -20.420
REMARK INTER:                 -11.276
REMARK INTRA:                  -9.144
REMARK UNBOUND:                -8.816
REMARK SMILES CC(=O)N[C@@H]1[C@@H](O)C[C@](O)(C(=O)O)O[C@H]1C(O)[C@H](O)CNC(=O)OCc1cn(C[C@@H](C(=O)O)C(c2ccccc2)c2ccccc2)nn1
REMARK SMILES IDX 21 1 22 2 23 3 20 5 18 6 16 7 15 8 9 9 8 10 14 11 6 12 5 13
REMARK SMILES IDX 10 14 11 16 12 17 13 18 7 20 4 22 2 23 1 25 3 26 17 27 19 29
REMARK SMILES IDX 24 31 25 32 26 33 27 34 48 35 28 36 47 37 29 38 30 39 31 40
REMARK SMILES IDX 32 41 33 42 34 44 35 45 36 46 40 47 37 48 39 49 38 50 41 51
REMARK SMILES IDX 42 52 46 53 43 54 45 55 44 56
REMARK H PARENT 21 4 10 15 13 19 7 21 4 24 17 28 19 30 33 43
REMARK Flexibility Score: inf
ROOT
ATOM      1  N   UNL     1      30.034  42.111  11.063  1.00  0.00    -0.319 N 
ATOM      2  C   UNL     1      29.758  42.349  12.417  1.00  0.00     0.407 C 
ATOM      3  O   UNL     1      30.149  43.426  12.931  1.00  0.00    -0.225 OA
ATOM      4  H   UNL     1      29.735  41.243  10.591  1.00  0.00     0.167 HD
ENDROOT
BRANCH   1   5
ATOM      5  C   UNL     1      30.772  43.104  10.254  1.00  0.00     0.154 C 
BRANCH   5   6
ATOM      6  C   UNL     1      30.433  42.858   8.813  1.00  0.00     0.165 C 
BRANCH   6   7
ATOM      7  C   UNL     1      31.491  42.234   7.973  1.00  0.00     0.176 C 
BRANCH   7   8
ATOM      8  C   UNL     1      31.298  40.754   7.688  1.00  0.00     0.178 C 
ATOM      9  C   UNL     1      29.715  39.129   8.267  1.00  0.00     0.269 C 
ATOM     10  C   UNL     1      30.842  38.173   8.634  1.00  0.00     0.112 C 
ATOM     11  O   UNL     1      30.134  40.432   8.426  1.00  0.00    -0.332 OA
ATOM     12  C   UNL     1      31.986  38.959   9.259  1.00  0.00     0.145 C 
ATOM     13  C   UNL     1      32.459  39.955   8.165  1.00  0.00     0.142 C 
BRANCH   9  14
ATOM     14  O   UNL     1      28.704  38.951   9.251  1.00  0.00    -0.357 OA
ATOM     15  H   UNL     1      28.008  38.412   8.816  1.00  0.00     0.214 HD
ENDBRANCH   9  14
BRANCH   9  16
ATOM     16  C   UNL     1      29.107  38.823   6.963  1.00  0.00     0.364 C 
ATOM     17  O   UNL     1      27.901  39.069   6.756  1.00  0.00    -0.246 OA
BRANCH  16  18
ATOM     18  O   UNL     1      29.867  38.262   5.962  1.00  0.00    -0.477 OA
ATOM     19  H   UNL     1      29.857  38.574   4.994  1.00  0.00     0.296 HD
ENDBRANCH  16  18
ENDBRANCH   9  16
BRANCH  12  20
ATOM     20  O   UNL     1      31.581  39.711  10.328  1.00  0.00    -0.391 OA
ATOM     21  H   UNL     1      30.912  39.253  10.913  1.00  0.00     0.211 HD
ENDBRANCH  12  20
BRANCH  13  22
ATOM     22  N   UNL     1      33.129  39.190   7.124  1.00  0.00    -0.348 N 
ATOM     23  C   UNL     1      34.184  39.777   6.401  1.00  0.00     0.217 C 
ATOM     24  H   UNL     1      32.848  38.212   6.896  1.00  0.00     0.163 HD
ATOM     25  C   UNL     1      34.848  38.954   5.328  1.00  0.00     0.114 C 
ATOM     26  O   UNL     1      34.622  40.937   6.578  1.00  0.00    -0.275 OA
ENDBRANCH  13  22
ENDBRANCH   7   8
BRANCH   7  27
ATOM     27  O   UNL     1      32.723  42.277   8.751  1.00  0.00    -0.388 OA
ATOM     28  H   UNL     1      33.193  41.467   8.418  1.00  0.00     0.211 HD
ENDBRANCH   7  27
ENDBRANCH   6   7
BRANCH   6  29
ATOM     29  O   UNL     1      29.752  43.910   8.238  1.00  0.00    -0.388 OA
ATOM     30  H   UNL     1      30.160  44.795   8.441  1.00  0.00     0.211 HD
ENDBRANCH   6  29
ENDBRANCH   5   6
ENDBRANCH   1   5
BRANCH   2  31
ATOM     31  O   UNL     1      29.072  41.458  13.233  1.00  0.00    -0.443 OA
BRANCH  31  32
ATOM     32  C   UNL     1      29.721  40.271  13.656  1.00  0.00     0.294 C 
BRANCH  32  33
ATOM     33  C   UNL     1      29.106  39.101  12.976  1.00  0.00     0.120 A 
ATOM     34  C   UNL     1      27.838  38.576  13.085  1.00  0.00     0.138 A 
ATOM     35  N   UNL     1      29.728  38.311  12.087  1.00  0.00    -0.132 NA
ATOM     36  N   UNL     1      27.705  37.505  12.285  1.00  0.00    -0.251 N 
ATOM     37  N   UNL     1      28.890  37.367  11.683  1.00  0.00    -0.067 NA
BRANCH  36  38
ATOM     38  C   UNL     1      26.531  36.641  12.080  1.00  0.00     0.162 C 
BRANCH  38  39
ATOM     39  C   UNL     1      27.031  35.286  11.669  1.00  0.00     0.132 C 
BRANCH  39  40
ATOM     40  C   UNL     1      26.609  34.216  12.625  1.00  0.00     0.309 C 
ATOM     41  O   UNL     1      25.714  33.369  12.287  1.00  0.00    -0.252 OA
BRANCH  40  42
ATOM     42  O   UNL     1      27.125  34.056  13.893  1.00  0.00    -0.481 OA
ATOM     43  H   UNL     1      27.636  34.808  14.375  1.00  0.00     0.296 HD
ENDBRANCH  40  42
ENDBRANCH  39  40
BRANCH  39  44
ATOM     44  C   UNL     1      26.793  34.901  10.253  1.00  0.00     0.065 C 
BRANCH  44  45
ATOM     45  C   UNL     1      28.015  34.760   9.433  1.00  0.00    -0.040 A 
ATOM     46  C   UNL     1      29.131  34.185   9.939  1.00  0.00     0.004 A 
ATOM     47  C   UNL     1      28.026  35.232   8.131  1.00  0.00     0.004 A 
ATOM     48  C   UNL     1      30.275  34.081   9.137  1.00  0.00     0.000 A 
ATOM     49  C   UNL     1      29.139  35.139   7.325  1.00  0.00     0.000 A 
ATOM     50  C   UNL     1      30.274  34.554   7.844  1.00  0.00     0.000 A 
ENDBRANCH  44  45
BRANCH  44  51
ATOM     51  C   UNL     1      25.759  35.701   9.552  1.00  0.00    -0.040 A 
ATOM     52  C   UNL     1      26.018  36.882   8.897  1.00  0.00     0.004 A 
ATOM     53  C   UNL     1      24.426  35.292   9.522  1.00  0.00     0.004 A 
ATOM     54  C   UNL     1      25.033  37.605   8.261  1.00  0.00     0.000 A 
ATOM     55  C   UNL     1      23.432  36.001   8.891  1.00  0.00     0.000 A 
ATOM     56  C   UNL     1      23.736  37.180   8.248  1.00  0.00     0.000 A 
ENDBRANCH  44  51
ENDBRANCH  39  44
ENDBRANCH  38  39
ENDBRANCH  36  38
ENDBRANCH  32  33
ENDBRANCH  31  32
ENDBRANCH   2  31
TORSDOF 21
BEGIN_RES LYS A 135
REMARK  4 active torsions:
REMARK  status: ('A' for Active; 'I' for Inactive)
REMARK    1  A    between atoms: CA   and  CB  
REMARK    2  A    between atoms: CB   and  CG  
REMARK    3  A    between atoms: CG   and  CD  
REMARK    4  A    between atoms: CD   and  CE  
ROOT
ATOM      1  CA  LYS A 135      33.193  34.663   9.290  1.00 25.02     0.186 C 
ENDROOT
BRANCH   1   2
ATOM      2  CB  LYS A 135      32.060  35.360  10.034  1.00 26.63     0.034 C 
BRANCH   2   3
ATOM      3  CG  LYS A 135      32.496  36.013  11.320  1.00 29.45     0.005 C 
BRANCH   3   4
ATOM      4  CD  LYS A 135      31.796  35.374  12.510  1.00 32.00     0.041 C 
BRANCH   4   5
ATOM      5  CE  LYS A 135      32.526  35.704  13.798  1.00 34.25     0.338 C 
ATOM      6  NZ  LYS A 135      32.011  36.966  14.399  1.00 35.99     0.618 N 
ENDBRANCH   4   5
ENDBRANCH   3   4
ENDBRANCH   2   3
ENDBRANCH   1   2
END_RES LYS A 135
BEGIN_RES ARG A 124
REMARK  4 active torsions:
REMARK  status: ('A' for Active; 'I' for Inactive)
REMARK    5  A    between atoms: CA   and  CB  
REMARK    6  A    between atoms: CB   and  CG  
REMARK    7  A    between atoms: CG   and  CD  
REMARK    8  A    between atoms: CD   and  NE  
REMARK       I    between atoms: NE   and  CZ  
ROOT
ATOM      7  CA  ARG A 124      31.045  26.515   9.594  1.00 17.84     0.186 C 
ENDROOT
BRANCH   7   8
ATOM      8  CB  ARG A 124      29.529  26.705   9.647  1.00 16.18     0.036 C 
BRANCH   8   9
ATOM      9  CG  ARG A 124      28.985  27.475  10.903  1.00 16.22     0.029 C 
BRANCH   9  10
ATOM     10  CD  ARG A 124      28.438  26.528  11.996  1.00 15.09     0.145 C 
BRANCH  10  11
ATOM     11  NE  ARG A 124      27.681  27.219  13.062  1.00 16.98    -0.083 NA
ATOM     12  CZ  ARG A 124      26.371  27.444  13.041  1.00 18.21     0.782 C 
ATOM     13  NH1 ARG A 124      25.618  27.037  12.026  1.00 21.11     0.063 N 
ATOM     14  NH2 ARG A 124      25.791  28.065  14.056  1.00 21.25     0.063 N 
ENDBRANCH  10  11
ENDBRANCH   9  10
ENDBRANCH   8   9
ENDBRANCH   7   8
END_RES ARG A 124
BEGIN_RES ASN A 133
REMARK  2 active torsions:
REMARK  status: ('A' for Active; 'I' for Inactive)
REMARK    9  A    between atoms: CA   and  CB  
REMARK   10  A    between atoms: CB   and  CG  
ROOT
ATOM     15  CA  ASN A 133      31.225  30.257  11.749  1.00 18.15     0.196 C 
ENDROOT
BRANCH  15  16
ATOM     16  CB  ASN A 133      30.092  31.240  11.460  1.00 18.27     0.126 C 
BRANCH  16  17
ATOM     17  CG  ASN A 133      29.163  31.429  12.619  1.00 18.94     0.276 C 
ATOM     18  OD1 ASN A 133      29.428  32.219  13.527  1.00 18.09    -0.269 OA
ATOM     19  ND2 ASN A 133      28.051  30.695  12.600  1.00 18.93    -0.107 N 
ENDBRANCH  16  17
ENDBRANCH  15  16
END_RES ASN A 133
BEGIN_RES LYS A 131
REMARK  4 active torsions:
REMARK  status: ('A' for Active; 'I' for Inactive)
REMARK   11  A    between atoms: CA   and  CB  
REMARK   12  A    between atoms: CB   and  CG  
REMARK   13  A    between atoms: CG   and  CD  
REMARK   14  A    between atoms: CD   and  CE  
ROOT
ATOM     20  CA  LYS A 131      29.867  25.555  16.977  1.00 20.52     0.186 C 
ENDROOT
BRANCH  20  21
ATOM     21  CB  LYS A 131      28.345  25.722  17.026  1.00 20.94     0.034 C 
BRANCH  21  22
ATOM     22  CG  LYS A 131      27.600  24.412  16.822  1.00 22.96     0.005 C 
BRANCH  22  23
ATOM     23  CD  LYS A 131      26.777  24.035  18.023  1.00 24.33     0.041 C 
BRANCH  23  24
ATOM     24  CE  LYS A 131      25.519  23.302  17.568  1.00 26.91     0.338 C 
ATOM     25  NZ  LYS A 131      24.908  22.568  18.701  1.00 27.40     0.618 N 
ENDBRANCH  23  24
ENDBRANCH  22  23
ENDBRANCH  21  22
ENDBRANCH  20  21
END_RES LYS A 131
