REMARK VINA RESULT:    -4.147      9.356     15.729
REMARK INTER + INTRA:         -18.619
REMARK INTER:                  -7.903
REMARK INTRA:                 -10.716
REMARK UNBOUND:               -10.472
REMARK SMILES CC(=O)N[C@@H]1[C@@H](O)C[C@](O)(C(=O)O)O[C@H]1C(O)[C@H](O)CNC(=O)OCc1cn(CCNC(=O)NCc2ccco2)nn1
REMARK SMILES IDX 24 1 22 2 21 3 23 5 20 6 18 7 16 8 15 9 9 10 8 11 14 12 6 13
REMARK SMILES IDX 5 14 10 15 11 17 12 18 13 19 7 21 4 23 2 24 1 26 3 27 17 28
REMARK SMILES IDX 19 30 25 32 26 33 27 34 42 35 28 36 41 37 29 38 30 39 31 40
REMARK SMILES IDX 32 41 33 43 34 44 35 46 36 47 37 48 40 49 38 50 39 51
REMARK H PARENT 21 4 10 16 13 20 7 22 4 25 17 29 19 31 31 42 34 45
REMARK Flexibility Score: inf
ROOT
ATOM      1  O   UNL     1      27.277  15.367  19.985  1.00  0.00    -0.443 OA
ENDROOT
BRANCH   1   2
ATOM      2  C   UNL     1      26.900  14.718  18.795  1.00  0.00     0.407 C 
ATOM      3  N   UNL     1      25.619  14.148  18.636  1.00  0.00    -0.319 N 
ATOM      4  H   UNL     1      24.986  14.268  19.493  1.00  0.00     0.167 HD
ATOM      5  O   UNL     1      27.730  14.655  17.873  1.00  0.00    -0.225 OA
BRANCH   3   6
ATOM      6  C   UNL     1      25.120  13.455  17.479  1.00  0.00     0.154 C 
BRANCH   6   7
ATOM      7  C   UNL     1      24.026  14.163  16.727  1.00  0.00     0.165 C 
BRANCH   7   8
ATOM      8  C   UNL     1      24.683  14.841  15.549  1.00  0.00     0.176 C 
BRANCH   8   9
ATOM      9  C   UNL     1      24.711  16.334  15.663  1.00  0.00     0.178 C 
ATOM     10  C   UNL     1      25.719  18.091  16.780  1.00  0.00     0.269 C 
ATOM     11  C   UNL     1      24.747  18.885  15.894  1.00  0.00     0.112 C 
ATOM     12  O   UNL     1      25.311  16.760  16.836  1.00  0.00    -0.332 OA
ATOM     13  C   UNL     1      23.387  18.294  16.137  1.00  0.00     0.145 C 
ATOM     14  C   UNL     1      23.325  16.950  15.491  1.00  0.00     0.142 C 
BRANCH  10  15
ATOM     15  O   UNL     1      25.553  18.607  18.064  1.00  0.00    -0.357 OA
ATOM     16  H   UNL     1      25.768  17.967  18.768  1.00  0.00     0.214 HD
ENDBRANCH  10  15
BRANCH  10  17
ATOM     17  C   UNL     1      27.104  18.251  16.340  1.00  0.00     0.364 C 
ATOM     18  O   UNL     1      27.775  17.341  15.799  1.00  0.00    -0.246 OA
BRANCH  17  19
ATOM     19  O   UNL     1      27.737  19.472  16.519  1.00  0.00    -0.477 OA
ATOM     20  H   UNL     1      28.717  19.579  16.731  1.00  0.00     0.296 HD
ENDBRANCH  17  19
ENDBRANCH  10  17
BRANCH  13  21
ATOM     21  O   UNL     1      23.291  18.075  17.527  1.00  0.00    -0.391 OA
ATOM     22  H   UNL     1      23.566  18.888  18.007  1.00  0.00     0.211 HD
ENDBRANCH  13  21
BRANCH  14  23
ATOM     23  N   UNL     1      22.994  16.909  14.122  1.00  0.00    -0.348 N 
ATOM     24  C   UNL     1      21.946  16.145  13.545  1.00  0.00     0.217 C 
ATOM     25  H   UNL     1      23.563  17.488  13.448  1.00  0.00     0.163 HD
ATOM     26  C   UNL     1      21.654  16.147  12.100  1.00  0.00     0.114 C 
ATOM     27  O   UNL     1      21.277  15.457  14.378  1.00  0.00    -0.275 OA
ENDBRANCH  14  23
ENDBRANCH   8   9
BRANCH   8  28
ATOM     28  O   UNL     1      26.004  14.400  15.490  1.00  0.00    -0.388 OA
ATOM     29  H   UNL     1      26.581  14.864  16.173  1.00  0.00     0.211 HD
ENDBRANCH   8  28
ENDBRANCH   7   8
BRANCH   7  30
ATOM     30  O   UNL     1      23.348  15.015  17.540  1.00  0.00    -0.388 OA
ATOM     31  H   UNL     1      23.667  15.959  17.388  1.00  0.00     0.211 HD
ENDBRANCH   7  30
ENDBRANCH   6   7
ENDBRANCH   3   6
ENDBRANCH   1   2
BRANCH   1  32
ATOM     32  C   UNL     1      26.390  15.311  21.084  1.00  0.00     0.294 C 
BRANCH  32  33
ATOM     33  C   UNL     1      25.471  16.471  21.008  1.00  0.00     0.120 A 
ATOM     34  C   UNL     1      25.533  17.616  21.765  1.00  0.00     0.138 A 
ATOM     35  N   UNL     1      24.412  16.632  20.199  1.00  0.00    -0.132 NA
ATOM     36  N   UNL     1      24.518  18.447  21.408  1.00  0.00    -0.250 N 
ATOM     37  N   UNL     1      23.866  17.806  20.453  1.00  0.00    -0.067 NA
BRANCH  36  38
ATOM     38  C   UNL     1      24.209  19.760  21.950  1.00  0.00     0.167 C 
BRANCH  38  39
ATOM     39  C   UNL     1      24.722  20.835  21.019  1.00  0.00     0.141 C 
BRANCH  39  40
ATOM     40  N   UNL     1      24.198  20.583  19.694  1.00  0.00    -0.336 N 
ATOM     41  C   UNL     1      23.006  21.233  19.311  1.00  0.00     0.315 C 
ATOM     42  H   UNL     1      24.681  19.942  19.033  1.00  0.00     0.165 HD
ATOM     43  O   UNL     1      22.358  22.022  20.045  1.00  0.00    -0.249 OA
ATOM     44  N   UNL     1      22.486  20.991  18.007  1.00  0.00    -0.331 N 
ATOM     45  H   UNL     1      23.011  20.340  17.388  1.00  0.00     0.165 HD
BRANCH  44  46
ATOM     46  C   UNL     1      21.287  21.603  17.531  1.00  0.00     0.193 C 
BRANCH  46  47
ATOM     47  C   UNL     1      21.399  22.043  16.103  1.00  0.00     0.122 A 
ATOM     48  C   UNL     1      22.483  22.726  15.627  1.00  0.00     0.047 A 
ATOM     49  O   UNL     1      20.558  21.875  15.119  1.00  0.00    -0.467 OA
ATOM     50  C   UNL     1      22.242  22.959  14.295  1.00  0.00     0.042 A 
ATOM     51  C   UNL     1      21.026  22.406  14.035  1.00  0.00     0.195 A 
ENDBRANCH  46  47
ENDBRANCH  44  46
ENDBRANCH  39  40
ENDBRANCH  38  39
ENDBRANCH  36  38
ENDBRANCH  32  33
ENDBRANCH   1  32
TORSDOF 19
BEGIN_RES LYS A 135
REMARK  4 active torsions:
REMARK  status: ('A' for Active; 'I' for Inactive)
REMARK    1  A    between atoms: CA   and  CB  
REMARK    2  A    between atoms: CB   and  CG  
REMARK    3  A    between atoms: CG   and  CD  
REMARK    4  A    between atoms: CD   and  CE  
ROOT
ATOM      1  CA  LYS A 135      33.193  34.663   9.290  1.00 25.02     0.186 C 
ENDROOT
BRANCH   1   2
ATOM      2  CB  LYS A 135      32.060  35.360  10.034  1.00 26.63     0.034 C 
BRANCH   2   3
ATOM      3  CG  LYS A 135      30.695  34.817   9.698  1.00 29.45     0.005 C 
BRANCH   3   4
ATOM      4  CD  LYS A 135      30.574  34.556   8.205  1.00 32.00     0.041 C 
BRANCH   4   5
ATOM      5  CE  LYS A 135      29.200  34.957   7.703  1.00 34.25     0.338 C 
ATOM      6  NZ  LYS A 135      28.214  35.002   8.818  1.00 35.99     0.618 N 
ENDBRANCH   4   5
ENDBRANCH   3   4
ENDBRANCH   2   3
ENDBRANCH   1   2
END_RES LYS A 135
BEGIN_RES ARG A 124
REMARK  4 active torsions:
REMARK  status: ('A' for Active; 'I' for Inactive)
REMARK    5  A    between atoms: CA   and  CB  
REMARK    6  A    between atoms: CB   and  CG  
REMARK    7  A    between atoms: CG   and  CD  
REMARK    8  A    between atoms: CD   and  NE  
REMARK       I    between atoms: NE   and  CZ  
ROOT
ATOM      7  CA  ARG A 124      31.045  26.515   9.594  1.00 17.84     0.186 C 
ENDROOT
BRANCH   7   8
ATOM      8  CB  ARG A 124      29.529  26.705   9.647  1.00 16.18     0.036 C 
BRANCH   8   9
ATOM      9  CG  ARG A 124      28.780  25.883  10.756  1.00 16.22     0.029 C 
BRANCH   9  10
ATOM     10  CD  ARG A 124      27.440  26.527  11.178  1.00 15.09     0.145 C 
BRANCH  10  11
ATOM     11  NE  ARG A 124      27.268  26.645  12.643  1.00 16.98    -0.083 NA
ATOM     12  CZ  ARG A 124      26.448  27.499  13.246  1.00 18.21     0.782 C 
ATOM     13  NH1 ARG A 124      25.685  28.332  12.549  1.00 21.11     0.063 N 
ATOM     14  NH2 ARG A 124      26.364  27.514  14.567  1.00 21.25     0.063 N 
ENDBRANCH  10  11
ENDBRANCH   9  10
ENDBRANCH   8   9
ENDBRANCH   7   8
END_RES ARG A 124
BEGIN_RES ASN A 133
REMARK  2 active torsions:
REMARK  status: ('A' for Active; 'I' for Inactive)
REMARK    9  A    between atoms: CA   and  CB  
REMARK   10  A    between atoms: CB   and  CG  
ROOT
ATOM     15  CA  ASN A 133      31.225  30.257  11.749  1.00 18.15     0.196 C 
ENDROOT
BRANCH  15  16
ATOM     16  CB  ASN A 133      30.092  31.240  11.460  1.00 18.27     0.126 C 
BRANCH  16  17
ATOM     17  CG  ASN A 133      28.733  30.616  11.539  1.00 18.94     0.276 C 
ATOM     18  OD1 ASN A 133      28.401  29.709  10.774  1.00 18.09    -0.269 OA
ATOM     19  ND2 ASN A 133      27.922  31.104  12.477  1.00 18.93    -0.107 N 
ENDBRANCH  16  17
ENDBRANCH  15  16
END_RES ASN A 133
BEGIN_RES LYS A 131
REMARK  4 active torsions:
REMARK  status: ('A' for Active; 'I' for Inactive)
REMARK   11  A    between atoms: CA   and  CB  
REMARK   12  A    between atoms: CB   and  CG  
REMARK   13  A    between atoms: CG   and  CD  
REMARK   14  A    between atoms: CD   and  CE  
ROOT
ATOM     20  CA  LYS A 131      29.867  25.555  16.977  1.00 20.52     0.186 C 
ENDROOT
BRANCH  20  21
ATOM     21  CB  LYS A 131      28.345  25.722  17.026  1.00 20.94     0.034 C 
BRANCH  21  22
ATOM     22  CG  LYS A 131      27.599  24.419  16.784  1.00 22.96     0.005 C 
BRANCH  22  23
ATOM     23  CD  LYS A 131      26.145  24.522  17.149  1.00 24.33     0.041 C 
BRANCH  23  24
ATOM     24  CE  LYS A 131      25.831  23.543  18.276  1.00 26.91     0.338 C 
ATOM     25  NZ  LYS A 131      25.475  24.274  19.514  1.00 27.40     0.618 N 
ENDBRANCH  23  24
ENDBRANCH  22  23
ENDBRANCH  21  22
ENDBRANCH  20  21
END_RES LYS A 131
