REMARK VINA RESULT:    -5.780      2.865      6.181
REMARK INTER + INTRA:         -18.364
REMARK INTER:                  -9.512
REMARK INTRA:                  -8.852
REMARK UNBOUND:                -8.360
REMARK SMILES CC(=O)N[C@@H]1[C@@H](O)C[C@](O)(C(=O)O)O[C@H]1C(O)[C@H](O)CNC(=O)OCc1cn(-c2ccc(C)cc2)nn1
REMARK SMILES IDX 20 1 18 2 16 3 15 4 9 5 8 6 14 7 6 8 5 9 10 10 11 12 12 13
REMARK SMILES IDX 13 14 7 16 4 18 2 19 1 21 3 22 17 23 19 25 21 27 22 28 23 30
REMARK SMILES IDX 24 31 25 32 26 33 27 34 37 35 28 36 36 37 29 38 30 39 35 40
REMARK SMILES IDX 31 41 34 42 32 43 33 44
REMARK H PARENT 10 11 13 15 7 17 4 20 17 24 19 26 21 29
REMARK Flexibility Score: inf
ROOT
ATOM      1  C   UNL     1      26.362  27.254  20.197  1.00  0.00     0.154 C 
ENDROOT
BRANCH   1   2
ATOM      2  C   UNL     1      27.303  27.558  21.312  1.00  0.00     0.165 C 
BRANCH   2   3
ATOM      3  C   UNL     1      28.652  27.939  20.721  1.00  0.00     0.176 C 
BRANCH   3   4
ATOM      4  C   UNL     1      29.610  28.447  21.774  1.00  0.00     0.178 C 
ATOM      5  C   UNL     1      30.930  29.980  20.602  1.00  0.00     0.269 C 
ATOM      6  C   UNL     1      32.198  29.221  20.894  1.00  0.00     0.112 C 
ATOM      7  O   UNL     1      30.008  29.742  21.566  1.00  0.00    -0.332 OA
ATOM      8  C   UNL     1      31.969  27.773  21.194  1.00  0.00     0.145 C 
ATOM      9  C   UNL     1      30.747  27.483  22.004  1.00  0.00     0.142 C 
BRANCH   5  10
ATOM     10  O   UNL     1      30.527  29.706  19.314  1.00  0.00    -0.357 OA
ATOM     11  H   UNL     1      31.288  29.899  18.705  1.00  0.00     0.214 HD
ENDBRANCH   5  10
BRANCH   5  12
ATOM     12  C   UNL     1      31.284  31.425  20.666  1.00  0.00     0.364 C 
ATOM     13  O   UNL     1      32.239  31.845  21.381  1.00  0.00    -0.246 OA
BRANCH  12  14
ATOM     14  O   UNL     1      30.582  32.363  19.942  1.00  0.00    -0.477 OA
ATOM     15  H   UNL     1      30.954  32.869  19.141  1.00  0.00     0.296 HD
ENDBRANCH  12  14
ENDBRANCH   5  12
BRANCH   8  16
ATOM     16  O   UNL     1      31.979  27.075  19.981  1.00  0.00    -0.391 OA
ATOM     17  H   UNL     1      32.214  26.136  20.168  1.00  0.00     0.211 HD
ENDBRANCH   8  16
BRANCH   9  18
ATOM     18  N   UNL     1      31.081  27.398  23.411  1.00  0.00    -0.348 N 
ATOM     19  C   UNL     1      30.541  26.356  24.192  1.00  0.00     0.217 C 
ATOM     20  H   UNL     1      31.731  28.111  23.866  1.00  0.00     0.163 HD
ATOM     21  C   UNL     1      30.871  26.257  25.618  1.00  0.00     0.114 C 
ATOM     22  O   UNL     1      29.776  25.508  23.675  1.00  0.00    -0.275 OA
ENDBRANCH   9  18
ENDBRANCH   3   4
BRANCH   3  23
ATOM     23  O   UNL     1      29.247  26.857  20.084  1.00  0.00    -0.388 OA
ATOM     24  H   UNL     1      29.466  26.113  20.697  1.00  0.00     0.211 HD
ENDBRANCH   3  23
ENDBRANCH   2   3
BRANCH   2  25
ATOM     25  O   UNL     1      27.501  26.567  22.244  1.00  0.00    -0.388 OA
ATOM     26  H   UNL     1      27.366  26.841  23.178  1.00  0.00     0.211 HD
ENDBRANCH   2  25
ENDBRANCH   1   2
BRANCH   1  27
ATOM     27  N   UNL     1      26.659  28.021  19.023  1.00  0.00    -0.319 N 
ATOM     28  C   UNL     1      25.743  28.848  18.327  1.00  0.00     0.407 C 
ATOM     29  H   UNL     1      27.651  27.997  18.600  1.00  0.00     0.167 HD
ATOM     30  O   UNL     1      24.563  28.971  18.721  1.00  0.00    -0.225 OA
BRANCH  28  31
ATOM     31  O   UNL     1      26.147  29.550  17.168  1.00  0.00    -0.443 OA
BRANCH  31  32
ATOM     32  C   UNL     1      27.386  29.187  16.590  1.00  0.00     0.294 C 
BRANCH  32  33
ATOM     33  C   UNL     1      28.289  30.391  16.621  1.00  0.00     0.121 A 
ATOM     34  C   UNL     1      28.863  31.026  15.537  1.00  0.00     0.144 A 
ATOM     35  N   UNL     1      28.712  31.086  17.695  1.00  0.00    -0.131 NA
ATOM     36  N   UNL     1      29.603  32.064  15.973  1.00  0.00    -0.220 N 
ATOM     37  N   UNL     1      29.488  32.070  17.284  1.00  0.00    -0.062 NA
BRANCH  36  38
ATOM     38  C   UNL     1      30.374  33.002  15.228  1.00  0.00     0.066 A 
ATOM     39  C   UNL     1      29.891  33.537  14.048  1.00  0.00     0.029 A 
ATOM     40  C   UNL     1      31.626  33.425  15.632  1.00  0.00     0.029 A 
ATOM     41  C   UNL     1      30.616  34.447  13.307  1.00  0.00     0.005 A 
ATOM     42  C   UNL     1      32.356  34.334  14.895  1.00  0.00     0.005 A 
ATOM     43  C   UNL     1      31.865  34.861  13.720  1.00  0.00    -0.051 A 
ATOM     44  C   UNL     1      32.629  35.848  12.898  1.00  0.00     0.044 C 
ENDBRANCH  36  38
ENDBRANCH  32  33
ENDBRANCH  31  32
ENDBRANCH  28  31
ENDBRANCH   1  27
TORSDOF 15
BEGIN_RES LYS A 135
REMARK  4 active torsions:
REMARK  status: ('A' for Active; 'I' for Inactive)
REMARK    1  A    between atoms: CA   and  CB  
REMARK    2  A    between atoms: CB   and  CG  
REMARK    3  A    between atoms: CG   and  CD  
REMARK    4  A    between atoms: CD   and  CE  
ROOT
ATOM      1  CA  LYS A 135      33.193  34.663   9.290  1.00 25.02     0.186 C 
ENDROOT
BRANCH   1   2
ATOM      2  CB  LYS A 135      32.060  35.360  10.034  1.00 26.63     0.034 C 
BRANCH   2   3
ATOM      3  CG  LYS A 135      30.784  35.453   9.238  1.00 29.45     0.005 C 
BRANCH   3   4
ATOM      4  CD  LYS A 135      30.169  34.075   9.047  1.00 32.00     0.041 C 
BRANCH   4   5
ATOM      5  CE  LYS A 135      28.658  34.174   8.958  1.00 34.25     0.338 C 
ATOM      6  NZ  LYS A 135      28.031  34.041  10.302  1.00 35.99     0.618 N 
ENDBRANCH   4   5
ENDBRANCH   3   4
ENDBRANCH   2   3
ENDBRANCH   1   2
END_RES LYS A 135
BEGIN_RES ARG A 124
REMARK  4 active torsions:
REMARK  status: ('A' for Active; 'I' for Inactive)
REMARK    5  A    between atoms: CA   and  CB  
REMARK    6  A    between atoms: CB   and  CG  
REMARK    7  A    between atoms: CG   and  CD  
REMARK    8  A    between atoms: CD   and  NE  
REMARK       I    between atoms: NE   and  CZ  
ROOT
ATOM      7  CA  ARG A 124      31.045  26.515   9.594  1.00 17.84     0.186 C 
ENDROOT
BRANCH   7   8
ATOM      8  CB  ARG A 124      29.529  26.705   9.647  1.00 16.18     0.036 C 
BRANCH   8   9
ATOM      9  CG  ARG A 124      28.904  26.781  11.086  1.00 16.22     0.029 C 
BRANCH   9  10
ATOM     10  CD  ARG A 124      27.526  26.088  11.179  1.00 15.09     0.145 C 
BRANCH  10  11
ATOM     11  NE  ARG A 124      26.402  27.021  11.412  1.00 16.98    -0.083 NA
ATOM     12  CZ  ARG A 124      26.018  27.467  12.603  1.00 18.21     0.782 C 
ATOM     13  NH1 ARG A 124      26.650  27.102  13.713  1.00 21.11     0.063 N 
ATOM     14  NH2 ARG A 124      25.002  28.311  12.698  1.00 21.25     0.063 N 
ENDBRANCH  10  11
ENDBRANCH   9  10
ENDBRANCH   8   9
ENDBRANCH   7   8
END_RES ARG A 124
BEGIN_RES ASN A 133
REMARK  2 active torsions:
REMARK  status: ('A' for Active; 'I' for Inactive)
REMARK    9  A    between atoms: CA   and  CB  
REMARK   10  A    between atoms: CB   and  CG  
ROOT
ATOM     15  CA  ASN A 133      31.225  30.257  11.749  1.00 18.15     0.196 C 
ENDROOT
BRANCH  15  16
ATOM     16  CB  ASN A 133      30.092  31.240  11.460  1.00 18.27     0.126 C 
BRANCH  16  17
ATOM     17  CG  ASN A 133      28.749  30.584  11.366  1.00 18.94     0.276 C 
ATOM     18  OD1 ASN A 133      28.502  29.759  10.484  1.00 18.09    -0.269 OA
ATOM     19  ND2 ASN A 133      27.856  30.950  12.284  1.00 18.93    -0.107 N 
ENDBRANCH  16  17
ENDBRANCH  15  16
END_RES ASN A 133
BEGIN_RES LYS A 131
REMARK  4 active torsions:
REMARK  status: ('A' for Active; 'I' for Inactive)
REMARK   11  A    between atoms: CA   and  CB  
REMARK   12  A    between atoms: CB   and  CG  
REMARK   13  A    between atoms: CG   and  CD  
REMARK   14  A    between atoms: CD   and  CE  
ROOT
ATOM     20  CA  LYS A 131      29.867  25.555  16.977  1.00 20.52     0.186 C 
ENDROOT
BRANCH  20  21
ATOM     21  CB  LYS A 131      28.345  25.722  17.026  1.00 20.94     0.034 C 
BRANCH  21  22
ATOM     22  CG  LYS A 131      27.599  24.431  16.724  1.00 22.96     0.005 C 
BRANCH  22  23
ATOM     23  CD  LYS A 131      26.947  23.854  17.950  1.00 24.33     0.041 C 
BRANCH  23  24
ATOM     24  CE  LYS A 131      25.572  23.305  17.585  1.00 26.91     0.338 C 
ATOM     25  NZ  LYS A 131      24.663  23.362  18.754  1.00 27.40     0.618 N 
ENDBRANCH  23  24
ENDBRANCH  22  23
ENDBRANCH  21  22
ENDBRANCH  20  21
END_RES LYS A 131
