REMARK VINA RESULT:    -5.151      5.817      8.853
REMARK INTER + INTRA:         -17.275
REMARK INTER:                  -7.969
REMARK INTRA:                  -9.305
REMARK UNBOUND:                -8.360
REMARK SMILES CC(=O)N[C@@H]1[C@@H](O)C[C@](O)(C(=O)O)O[C@H]1C(O)[C@H](O)CNC(=O)OCc1cn(-c2ccc(C)cc2)nn1
REMARK SMILES IDX 20 1 18 2 16 3 15 4 9 5 8 6 14 7 6 8 5 9 10 10 11 12 12 13
REMARK SMILES IDX 13 14 7 16 4 18 2 19 1 21 3 22 17 23 19 25 21 27 22 28 23 30
REMARK SMILES IDX 24 31 25 32 26 33 27 34 37 35 28 36 36 37 29 38 30 39 35 40
REMARK SMILES IDX 31 41 34 42 32 43 33 44
REMARK H PARENT 10 11 13 15 7 17 4 20 17 24 19 26 21 29
REMARK Flexibility Score: inf
ROOT
ATOM      1  C   UNL     1      23.393  37.021   8.781  1.00  0.00     0.154 C 
ENDROOT
BRANCH   1   2
ATOM      2  C   UNL     1      22.673  35.733   8.573  1.00  0.00     0.165 C 
BRANCH   2   3
ATOM      3  C   UNL     1      21.291  36.033   8.011  1.00  0.00     0.176 C 
BRANCH   3   4
ATOM      4  C   UNL     1      20.209  35.881   9.055  1.00  0.00     0.178 C 
ATOM      5  C   UNL     1      18.609  34.560   7.979  1.00  0.00     0.269 C 
ATOM      6  C   UNL     1      17.542  35.615   8.115  1.00  0.00     0.112 C 
ATOM      7  O   UNL     1      19.529  34.694   8.964  1.00  0.00    -0.332 OA
ATOM      8  C   UNL     1      18.089  36.999   8.272  1.00  0.00     0.145 C 
ATOM      9  C   UNL     1      19.319  37.097   9.116  1.00  0.00     0.142 C 
BRANCH   5  10
ATOM     10  O   UNL     1      19.105  34.584   6.694  1.00  0.00    -0.357 OA
ATOM     11  H   UNL     1      19.134  35.530   6.392  1.00  0.00     0.214 HD
ENDBRANCH   5  10
BRANCH   5  12
ATOM     12  C   UNL     1      17.928  33.250   8.174  1.00  0.00     0.364 C 
ATOM     13  O   UNL     1      17.623  32.823   9.326  1.00  0.00    -0.246 OA
BRANCH  12  14
ATOM     14  O   UNL     1      17.601  32.450   7.102  1.00  0.00    -0.477 OA
ATOM     15  H   UNL     1      17.930  31.496   6.974  1.00  0.00     0.296 HD
ENDBRANCH  12  14
ENDBRANCH   5  12
BRANCH   8  16
ATOM     16  O   UNL     1      18.279  37.535   6.994  1.00  0.00    -0.391 OA
ATOM     17  H   UNL     1      17.983  38.474   7.007  1.00  0.00     0.211 HD
ENDBRANCH   8  16
BRANCH   9  18
ATOM     18  N   UNL     1      18.969  37.418  10.485  1.00  0.00    -0.348 N 
ATOM     19  C   UNL     1      19.158  38.732  10.960  1.00  0.00     0.217 C 
ATOM     20  H   UNL     1      18.569  36.677  11.139  1.00  0.00     0.163 HD
ATOM     21  C   UNL     1      18.808  39.072  12.344  1.00  0.00     0.114 C 
ATOM     22  O   UNL     1      19.626  39.617  10.206  1.00  0.00    -0.275 OA
ENDBRANCH   9  18
ENDBRANCH   3   4
BRANCH   3  23
ATOM     23  O   UNL     1      21.222  37.325   7.506  1.00  0.00    -0.388 OA
ATOM     24  H   UNL     1      21.463  38.018   8.168  1.00  0.00     0.211 HD
ENDBRANCH   3  23
ENDBRANCH   2   3
BRANCH   2  25
ATOM     25  O   UNL     1      22.527  34.919   9.671  1.00  0.00    -0.388 OA
ATOM     26  H   UNL     1      22.955  34.038   9.596  1.00  0.00     0.211 HD
ENDBRANCH   2  25
ENDBRANCH   1   2
BRANCH   1  27
ATOM     27  N   UNL     1      23.163  37.558  10.089  1.00  0.00    -0.319 N 
ATOM     28  C   UNL     1      24.100  37.568  11.151  1.00  0.00     0.407 C 
ATOM     29  H   UNL     1      22.209  38.002  10.329  1.00  0.00     0.167 HD
ATOM     30  O   UNL     1      25.246  37.094  11.000  1.00  0.00    -0.225 OA
BRANCH  28  31
ATOM     31  O   UNL     1      23.755  38.117  12.408  1.00  0.00    -0.443 OA
BRANCH  31  32
ATOM     32  C   UNL     1      23.575  37.212  13.481  1.00  0.00     0.294 C 
BRANCH  32  33
ATOM     33  C   UNL     1      22.586  36.162  13.048  1.00  0.00     0.121 A 
ATOM     34  C   UNL     1      22.736  34.792  13.139  1.00  0.00     0.144 A 
ATOM     35  N   UNL     1      21.371  36.343  12.493  1.00  0.00    -0.131 NA
ATOM     36  N   UNL     1      21.634  34.192  12.648  1.00  0.00    -0.220 N 
ATOM     37  N   UNL     1      20.830  35.161  12.267  1.00  0.00    -0.062 NA
BRANCH  36  38
ATOM     38  C   UNL     1      21.333  32.805  12.536  1.00  0.00     0.066 A 
ATOM     39  C   UNL     1      20.054  32.380  12.226  1.00  0.00     0.029 A 
ATOM     40  C   UNL     1      22.282  31.819  12.727  1.00  0.00     0.029 A 
ATOM     41  C   UNL     1      19.735  31.043  12.111  1.00  0.00     0.005 A 
ATOM     42  C   UNL     1      21.969  30.481  12.615  1.00  0.00     0.005 A 
ATOM     43  C   UNL     1      20.691  30.069  12.305  1.00  0.00    -0.051 A 
ATOM     44  C   UNL     1      20.318  28.627  12.174  1.00  0.00     0.044 C 
ENDBRANCH  36  38
ENDBRANCH  32  33
ENDBRANCH  31  32
ENDBRANCH  28  31
ENDBRANCH   1  27
TORSDOF 15
BEGIN_RES LYS A 135
REMARK  4 active torsions:
REMARK  status: ('A' for Active; 'I' for Inactive)
REMARK    1  A    between atoms: CA   and  CB  
REMARK    2  A    between atoms: CB   and  CG  
REMARK    3  A    between atoms: CG   and  CD  
REMARK    4  A    between atoms: CD   and  CE  
ROOT
ATOM      1  CA  LYS A 135      33.193  34.663   9.290  1.00 25.02     0.186 C 
ENDROOT
BRANCH   1   2
ATOM      2  CB  LYS A 135      32.060  35.360  10.034  1.00 26.63     0.034 C 
BRANCH   2   3
ATOM      3  CG  LYS A 135      30.861  35.651   9.169  1.00 29.45     0.005 C 
BRANCH   3   4
ATOM      4  CD  LYS A 135      30.294  34.365   8.588  1.00 32.00     0.041 C 
BRANCH   4   5
ATOM      5  CE  LYS A 135      28.808  34.512   8.320  1.00 34.25     0.338 C 
ATOM      6  NZ  LYS A 135      28.561  35.314   7.090  1.00 35.99     0.618 N 
ENDBRANCH   4   5
ENDBRANCH   3   4
ENDBRANCH   2   3
ENDBRANCH   1   2
END_RES LYS A 135
BEGIN_RES ARG A 124
REMARK  4 active torsions:
REMARK  status: ('A' for Active; 'I' for Inactive)
REMARK    5  A    between atoms: CA   and  CB  
REMARK    6  A    between atoms: CB   and  CG  
REMARK    7  A    between atoms: CG   and  CD  
REMARK    8  A    between atoms: CD   and  NE  
REMARK       I    between atoms: NE   and  CZ  
ROOT
ATOM      7  CA  ARG A 124      31.045  26.515   9.594  1.00 17.84     0.186 C 
ENDROOT
BRANCH   7   8
ATOM      8  CB  ARG A 124      29.529  26.705   9.647  1.00 16.18     0.036 C 
BRANCH   8   9
ATOM      9  CG  ARG A 124      28.904  26.783  11.086  1.00 16.22     0.029 C 
BRANCH   9  10
ATOM     10  CD  ARG A 124      27.535  26.072  11.185  1.00 15.09     0.145 C 
BRANCH  10  11
ATOM     11  NE  ARG A 124      26.400  26.991  11.420  1.00 16.98    -0.083 NA
ATOM     12  CZ  ARG A 124      26.025  27.447  12.611  1.00 18.21     0.782 C 
ATOM     13  NH1 ARG A 124      26.677  27.108  13.716  1.00 21.11     0.063 N 
ATOM     14  NH2 ARG A 124      24.998  28.277  12.707  1.00 21.25     0.063 N 
ENDBRANCH  10  11
ENDBRANCH   9  10
ENDBRANCH   8   9
ENDBRANCH   7   8
END_RES ARG A 124
BEGIN_RES ASN A 133
REMARK  2 active torsions:
REMARK  status: ('A' for Active; 'I' for Inactive)
REMARK    9  A    between atoms: CA   and  CB  
REMARK   10  A    between atoms: CB   and  CG  
ROOT
ATOM     15  CA  ASN A 133      31.225  30.257  11.749  1.00 18.15     0.196 C 
ENDROOT
BRANCH  15  16
ATOM     16  CB  ASN A 133      30.092  31.240  11.460  1.00 18.27     0.126 C 
BRANCH  16  17
ATOM     17  CG  ASN A 133      28.733  30.614  11.531  1.00 18.94     0.276 C 
ATOM     18  OD1 ASN A 133      28.346  29.830  10.663  1.00 18.09    -0.269 OA
ATOM     19  ND2 ASN A 133      27.986  30.961  12.578  1.00 18.93    -0.107 N 
ENDBRANCH  16  17
ENDBRANCH  15  16
END_RES ASN A 133
BEGIN_RES LYS A 131
REMARK  4 active torsions:
REMARK  status: ('A' for Active; 'I' for Inactive)
REMARK   11  A    between atoms: CA   and  CB  
REMARK   12  A    between atoms: CB   and  CG  
REMARK   13  A    between atoms: CG   and  CD  
REMARK   14  A    between atoms: CD   and  CE  
ROOT
ATOM     20  CA  LYS A 131      29.867  25.555  16.977  1.00 20.52     0.186 C 
ENDROOT
BRANCH  20  21
ATOM     21  CB  LYS A 131      28.345  25.722  17.026  1.00 20.94     0.034 C 
BRANCH  21  22
ATOM     22  CG  LYS A 131      27.601  24.406  16.864  1.00 22.96     0.005 C 
BRANCH  22  23
ATOM     23  CD  LYS A 131      26.141  24.535  17.202  1.00 24.33     0.041 C 
BRANCH  23  24
ATOM     24  CE  LYS A 131      25.585  23.167  17.585  1.00 26.91     0.338 C 
ATOM     25  NZ  LYS A 131      24.178  23.035  17.136  1.00 27.40     0.618 N 
ENDBRANCH  23  24
ENDBRANCH  22  23
ENDBRANCH  21  22
ENDBRANCH  20  21
END_RES LYS A 131
