REMARK VINA RESULT:    -6.216      2.696      5.497
REMARK INTER + INTRA:         -21.574
REMARK INTER:                 -10.218
REMARK INTRA:                 -11.356
REMARK UNBOUND:                -8.816
REMARK SMILES CC(=O)N[C@@H]1[C@@H](O)C[C@](O)(C(=O)O)O[C@H]1C(O)[C@H](O)CNC(=O)OCc1cn(C[C@@H](C(=O)O)C(c2ccccc2)c2ccccc2)nn1
REMARK SMILES IDX 21 1 22 2 23 3 20 5 18 6 16 7 15 8 9 9 8 10 14 11 6 12 5 13
REMARK SMILES IDX 10 14 11 16 12 17 13 18 7 20 4 22 2 23 1 25 3 26 17 27 19 29
REMARK SMILES IDX 24 31 25 32 26 33 27 34 48 35 28 36 47 37 29 38 30 39 31 40
REMARK SMILES IDX 32 41 33 42 34 44 35 45 36 46 40 47 37 48 39 49 38 50 41 51
REMARK SMILES IDX 42 52 46 53 43 54 45 55 44 56
REMARK H PARENT 21 4 10 15 13 19 7 21 4 24 17 28 19 30 33 43
REMARK Flexibility Score: inf
ROOT
ATOM      1  N   UNL     1      30.407  34.150  17.348  1.00  0.00    -0.319 N 
ATOM      2  C   UNL     1      31.728  34.311  16.906  1.00  0.00     0.407 C 
ATOM      3  O   UNL     1      32.523  34.978  17.613  1.00  0.00    -0.225 OA
ATOM      4  H   UNL     1      29.715  33.610  16.807  1.00  0.00     0.167 HD
ENDROOT
BRANCH   1   5
ATOM      5  C   UNL     1      29.956  34.753  18.619  1.00  0.00     0.154 C 
BRANCH   5   6
ATOM      6  C   UNL     1      29.032  33.774  19.284  1.00  0.00     0.165 C 
BRANCH   6   7
ATOM      7  C   UNL     1      27.602  33.821  18.876  1.00  0.00     0.176 C 
BRANCH   7   8
ATOM      8  C   UNL     1      27.120  32.619  18.080  1.00  0.00     0.178 C 
ATOM      9  C   UNL     1      28.134  30.783  17.039  1.00  0.00     0.269 C 
ATOM     10  C   UNL     1      27.293  31.035  15.795  1.00  0.00     0.112 C 
ATOM     11  O   UNL     1      28.322  31.963  17.725  1.00  0.00    -0.332 OA
ATOM     12  C   UNL     1      27.119  32.534  15.599  1.00  0.00     0.145 C 
ATOM     13  C   UNL     1      26.373  33.039  16.864  1.00  0.00     0.142 C 
BRANCH   9  14
ATOM     14  O   UNL     1      29.429  30.418  16.580  1.00  0.00    -0.357 OA
ATOM     15  H   UNL     1      29.730  31.169  16.023  1.00  0.00     0.214 HD
ENDBRANCH   9  14
BRANCH   9  16
ATOM     16  C   UNL     1      27.633  29.663  17.850  1.00  0.00     0.364 C 
ATOM     17  O   UNL     1      26.468  29.243  17.695  1.00  0.00    -0.246 OA
BRANCH  16  18
ATOM     18  O   UNL     1      28.448  29.071  18.790  1.00  0.00    -0.477 OA
ATOM     19  H   UNL     1      28.160  28.310  19.398  1.00  0.00     0.296 HD
ENDBRANCH  16  18
ENDBRANCH   9  16
BRANCH  12  20
ATOM     20  O   UNL     1      28.315  33.198  15.555  1.00  0.00    -0.391 OA
ATOM     21  H   UNL     1      28.778  33.138  14.672  1.00  0.00     0.211 HD
ENDBRANCH  12  20
BRANCH  13  22
ATOM     22  N   UNL     1      25.005  32.548  16.801  1.00  0.00    -0.348 N 
ATOM     23  C   UNL     1      23.948  33.459  16.615  1.00  0.00     0.217 C 
ATOM     24  H   UNL     1      24.781  31.533  16.890  1.00  0.00     0.163 HD
ATOM     25  C   UNL     1      22.545  32.912  16.560  1.00  0.00     0.114 C 
ATOM     26  O   UNL     1      24.078  34.699  16.488  1.00  0.00    -0.275 OA
ENDBRANCH  13  22
ENDBRANCH   7   8
BRANCH   7  27
ATOM     27  O   UNL     1      27.469  34.930  17.939  1.00  0.00    -0.388 OA
ATOM     28  H   UNL     1      28.188  35.539  18.255  1.00  0.00     0.211 HD
ENDBRANCH   7  27
ENDBRANCH   6   7
BRANCH   6  29
ATOM     29  O   UNL     1      29.267  33.653  20.637  1.00  0.00    -0.388 OA
ATOM     30  H   UNL     1      29.718  34.450  21.027  1.00  0.00     0.211 HD
ENDBRANCH   6  29
ENDBRANCH   5   6
ENDBRANCH   1   5
BRANCH   2  31
ATOM     31  O   UNL     1      32.216  33.772  15.721  1.00  0.00    -0.443 OA
BRANCH  31  32
ATOM     32  C   UNL     1      32.329  34.606  14.581  1.00  0.00     0.294 C 
BRANCH  32  33
ATOM     33  C   UNL     1      31.020  34.667  13.880  1.00  0.00     0.120 A 
ATOM     34  C   UNL     1      30.193  35.739  13.636  1.00  0.00     0.138 A 
ATOM     35  N   UNL     1      30.386  33.616  13.338  1.00  0.00    -0.132 NA
ATOM     36  N   UNL     1      29.097  35.343  12.966  1.00  0.00    -0.251 N 
ATOM     37  N   UNL     1      29.247  34.026  12.798  1.00  0.00    -0.067 NA
BRANCH  36  38
ATOM     38  C   UNL     1      27.956  36.146  12.497  1.00  0.00     0.162 C 
BRANCH  38  39
ATOM     39  C   UNL     1      26.702  35.480  12.985  1.00  0.00     0.132 C 
BRANCH  39  40
ATOM     40  C   UNL     1      26.193  36.096  14.249  1.00  0.00     0.309 C 
ATOM     41  O   UNL     1      26.896  36.049  15.315  1.00  0.00    -0.252 OA
BRANCH  40  42
ATOM     42  O   UNL     1      24.979  36.738  14.369  1.00  0.00    -0.481 OA
ATOM     43  H   UNL     1      24.244  36.403  15.006  1.00  0.00     0.296 HD
ENDBRANCH  40  42
ENDBRANCH  39  40
BRANCH  39  44
ATOM     44  C   UNL     1      25.626  35.290  11.978  1.00  0.00     0.065 C 
BRANCH  44  45
ATOM     45  C   UNL     1      24.642  34.236  12.309  1.00  0.00    -0.040 A 
ATOM     46  C   UNL     1      23.323  34.412  12.062  1.00  0.00     0.004 A 
ATOM     47  C   UNL     1      25.073  33.056  12.890  1.00  0.00     0.004 A 
ATOM     48  C   UNL     1      22.419  33.397  12.402  1.00  0.00     0.000 A 
ATOM     49  C   UNL     1      24.201  32.044  13.231  1.00  0.00     0.000 A 
ATOM     50  C   UNL     1      22.858  32.227  12.979  1.00  0.00     0.000 A 
ENDBRANCH  44  45
BRANCH  44  51
ATOM     51  C   UNL     1      26.094  35.173  10.575  1.00  0.00    -0.040 A 
ATOM     52  C   UNL     1      26.907  34.161  10.121  1.00  0.00     0.004 A 
ATOM     53  C   UNL     1      25.731  36.113   9.611  1.00  0.00     0.004 A 
ATOM     54  C   UNL     1      27.329  34.085   8.812  1.00  0.00     0.000 A 
ATOM     55  C   UNL     1      26.143  36.051   8.301  1.00  0.00     0.000 A 
ATOM     56  C   UNL     1      26.958  35.020   7.890  1.00  0.00     0.000 A 
ENDBRANCH  44  51
ENDBRANCH  39  44
ENDBRANCH  38  39
ENDBRANCH  36  38
ENDBRANCH  32  33
ENDBRANCH  31  32
ENDBRANCH   2  31
TORSDOF 21
BEGIN_RES LYS A 135
REMARK  4 active torsions:
REMARK  status: ('A' for Active; 'I' for Inactive)
REMARK    1  A    between atoms: CA   and  CB  
REMARK    2  A    between atoms: CB   and  CG  
REMARK    3  A    between atoms: CG   and  CD  
REMARK    4  A    between atoms: CD   and  CE  
ROOT
ATOM      1  CA  LYS A 135      33.193  34.663   9.290  1.00 25.02     0.186 C 
ENDROOT
BRANCH   1   2
ATOM      2  CB  LYS A 135      32.060  35.360  10.034  1.00 26.63     0.034 C 
BRANCH   2   3
ATOM      3  CG  LYS A 135      30.738  35.297   9.314  1.00 29.45     0.005 C 
BRANCH   3   4
ATOM      4  CD  LYS A 135      29.995  36.618   9.439  1.00 32.00     0.041 C 
BRANCH   4   5
ATOM      5  CE  LYS A 135      30.960  37.744   9.755  1.00 34.25     0.338 C 
ATOM      6  NZ  LYS A 135      31.154  38.632   8.575  1.00 35.99     0.618 N 
ENDBRANCH   4   5
ENDBRANCH   3   4
ENDBRANCH   2   3
ENDBRANCH   1   2
END_RES LYS A 135
BEGIN_RES ARG A 124
REMARK  4 active torsions:
REMARK  status: ('A' for Active; 'I' for Inactive)
REMARK    5  A    between atoms: CA   and  CB  
REMARK    6  A    between atoms: CB   and  CG  
REMARK    7  A    between atoms: CG   and  CD  
REMARK    8  A    between atoms: CD   and  NE  
REMARK       I    between atoms: NE   and  CZ  
ROOT
ATOM      7  CA  ARG A 124      31.045  26.515   9.594  1.00 17.84     0.186 C 
ENDROOT
BRANCH   7   8
ATOM      8  CB  ARG A 124      29.529  26.705   9.647  1.00 16.18     0.036 C 
BRANCH   8   9
ATOM      9  CG  ARG A 124      28.913  26.852  11.084  1.00 16.22     0.029 C 
BRANCH   9  10
ATOM     10  CD  ARG A 124      27.540  26.155  11.223  1.00 15.09     0.145 C 
BRANCH  10  11
ATOM     11  NE  ARG A 124      26.415  27.088  11.450  1.00 16.98    -0.083 NA
ATOM     12  CZ  ARG A 124      26.084  27.606  12.628  1.00 18.21     0.782 C 
ATOM     13  NH1 ARG A 124      26.775  27.322  13.726  1.00 21.11     0.063 N 
ATOM     14  NH2 ARG A 124      25.062  28.443  12.718  1.00 21.25     0.063 N 
ENDBRANCH  10  11
ENDBRANCH   9  10
ENDBRANCH   8   9
ENDBRANCH   7   8
END_RES ARG A 124
BEGIN_RES ASN A 133
REMARK  2 active torsions:
REMARK  status: ('A' for Active; 'I' for Inactive)
REMARK    9  A    between atoms: CA   and  CB  
REMARK   10  A    between atoms: CB   and  CG  
ROOT
ATOM     15  CA  ASN A 133      31.225  30.257  11.749  1.00 18.15     0.196 C 
ENDROOT
BRANCH  15  16
ATOM     16  CB  ASN A 133      30.092  31.240  11.460  1.00 18.27     0.126 C 
BRANCH  16  17
ATOM     17  CG  ASN A 133      28.747  30.586  11.380  1.00 18.94     0.276 C 
ATOM     18  OD1 ASN A 133      28.452  29.847  10.439  1.00 18.09    -0.269 OA
ATOM     19  ND2 ASN A 133      27.908  30.857  12.379  1.00 18.93    -0.107 N 
ENDBRANCH  16  17
ENDBRANCH  15  16
END_RES ASN A 133
BEGIN_RES LYS A 131
REMARK  4 active torsions:
REMARK  status: ('A' for Active; 'I' for Inactive)
REMARK   11  A    between atoms: CA   and  CB  
REMARK   12  A    between atoms: CB   and  CG  
REMARK   13  A    between atoms: CG   and  CD  
REMARK   14  A    between atoms: CD   and  CE  
ROOT
ATOM     20  CA  LYS A 131      29.867  25.555  16.977  1.00 20.52     0.186 C 
ENDROOT
BRANCH  20  21
ATOM     21  CB  LYS A 131      28.345  25.722  17.026  1.00 20.94     0.034 C 
BRANCH  21  22
ATOM     22  CG  LYS A 131      27.600  24.411  16.826  1.00 22.96     0.005 C 
BRANCH  22  23
ATOM     23  CD  LYS A 131      26.194  24.472  17.354  1.00 24.33     0.041 C 
BRANCH  23  24
ATOM     24  CE  LYS A 131      25.738  25.926  17.422  1.00 26.91     0.338 C 
ATOM     25  NZ  LYS A 131      24.747  26.210  16.357  1.00 27.40     0.618 N 
ENDBRANCH  23  24
ENDBRANCH  22  23
ENDBRANCH  21  22
ENDBRANCH  20  21
END_RES LYS A 131
