REMARK VINA RESULT:    -6.033      2.154      3.247
REMARK INTER + INTRA:         -21.197
REMARK INTER:                 -13.568
REMARK INTRA:                  -7.629
REMARK UNBOUND:                -8.816
REMARK SMILES CC(=O)N[C@@H]1[C@@H](O)C[C@](O)(C(=O)O)O[C@H]1C(O)[C@H](O)CNC(=O)OCc1cn(C[C@@H](C(=O)O)C(c2ccccc2)c2ccccc2)nn1
REMARK SMILES IDX 21 1 22 2 23 3 20 5 18 6 16 7 15 8 9 9 8 10 14 11 6 12 5 13
REMARK SMILES IDX 10 14 11 16 12 17 13 18 7 20 4 22 2 23 1 25 3 26 17 27 19 29
REMARK SMILES IDX 24 31 25 32 26 33 27 34 48 35 28 36 47 37 29 38 30 39 31 40
REMARK SMILES IDX 32 41 33 42 34 44 35 45 36 46 40 47 37 48 39 49 38 50 41 51
REMARK SMILES IDX 42 52 46 53 43 54 45 55 44 56
REMARK H PARENT 21 4 10 15 13 19 7 21 4 24 17 28 19 30 33 43
REMARK Flexibility Score: inf
ROOT
ATOM      1  N   UNL     1      27.716  32.564  16.132  1.00  0.00    -0.319 N 
ATOM      2  C   UNL     1      26.422  33.076  16.308  1.00  0.00     0.407 C 
ATOM      3  O   UNL     1      26.285  34.180  16.891  1.00  0.00    -0.225 OA
ATOM      4  H   UNL     1      27.884  31.662  15.660  1.00  0.00     0.167 HD
ENDROOT
BRANCH   1   5
ATOM      5  C   UNL     1      28.896  33.305  16.622  1.00  0.00     0.154 C 
BRANCH   5   6
ATOM      6  C   UNL     1      30.035  32.333  16.719  1.00  0.00     0.165 C 
BRANCH   6   7
ATOM      7  C   UNL     1      31.333  32.761  16.129  1.00  0.00     0.176 C 
BRANCH   7   8
ATOM      8  C   UNL     1      31.328  34.144  15.498  1.00  0.00     0.178 C 
ATOM      9  C   UNL     1      31.179  34.993  13.321  1.00  0.00     0.269 C 
ATOM     10  C   UNL     1      32.353  35.918  13.611  1.00  0.00     0.112 C 
ATOM     11  O   UNL     1      31.263  33.867  14.112  1.00  0.00    -0.332 OA
ATOM     12  C   UNL     1      33.346  35.205  14.517  1.00  0.00     0.145 C 
ATOM     13  C   UNL     1      32.571  34.892  15.827  1.00  0.00     0.142 C 
BRANCH   9  14
ATOM     14  O   UNL     1      31.363  34.518  11.994  1.00  0.00    -0.357 OA
ATOM     15  H   UNL     1      30.618  34.895  11.476  1.00  0.00     0.214 HD
ENDBRANCH   9  14
BRANCH   9  16
ATOM     16  C   UNL     1      29.882  35.685  13.356  1.00  0.00     0.364 C 
ATOM     17  O   UNL     1      29.827  36.927  13.254  1.00  0.00    -0.246 OA
BRANCH  16  18
ATOM     18  O   UNL     1      28.718  34.964  13.505  1.00  0.00    -0.477 OA
ATOM     19  H   UNL     1      28.548  34.303  14.258  1.00  0.00     0.296 HD
ENDBRANCH  16  18
ENDBRANCH   9  16
BRANCH  12  20
ATOM     20  O   UNL     1      33.753  34.004  14.003  1.00  0.00    -0.391 OA
ATOM     21  H   UNL     1      33.232  33.709  13.204  1.00  0.00     0.211 HD
ENDBRANCH  12  20
BRANCH  13  22
ATOM     22  N   UNL     1      32.348  36.149  16.525  1.00  0.00    -0.348 N 
ATOM     23  C   UNL     1      33.244  36.552  17.533  1.00  0.00     0.217 C 
ATOM     24  H   UNL     1      31.539  36.767  16.298  1.00  0.00     0.163 HD
ATOM     25  C   UNL     1      32.975  37.857  18.236  1.00  0.00     0.114 C 
ATOM     26  O   UNL     1      34.255  35.909  17.898  1.00  0.00    -0.275 OA
ENDBRANCH  13  22
ENDBRANCH   7   8
BRANCH   7  27
ATOM     27  O   UNL     1      31.596  31.871  15.005  1.00  0.00    -0.388 OA
ATOM     28  H   UNL     1      32.065  31.120  15.457  1.00  0.00     0.211 HD
ENDBRANCH   7  27
ENDBRANCH   6   7
BRANCH   6  29
ATOM     29  O   UNL     1      29.653  31.036  16.451  1.00  0.00    -0.388 OA
ATOM     30  H   UNL     1      29.429  30.885  15.493  1.00  0.00     0.211 HD
ENDBRANCH   6  29
ENDBRANCH   5   6
ENDBRANCH   1   5
BRANCH   2  31
ATOM     31  O   UNL     1      25.271  32.430  15.874  1.00  0.00    -0.443 OA
BRANCH  31  32
ATOM     32  C   UNL     1      25.223  31.921  14.552  1.00  0.00     0.294 C 
BRANCH  32  33
ATOM     33  C   UNL     1      25.240  33.050  13.586  1.00  0.00     0.120 A 
ATOM     34  C   UNL     1      26.074  33.294  12.519  1.00  0.00     0.138 A 
ATOM     35  N   UNL     1      24.389  34.088  13.598  1.00  0.00    -0.132 NA
ATOM     36  N   UNL     1      25.733  34.442  11.910  1.00  0.00    -0.251 N 
ATOM     37  N   UNL     1      24.689  34.908  12.601  1.00  0.00    -0.067 NA
BRANCH  36  38
ATOM     38  C   UNL     1      26.344  35.086  10.736  1.00  0.00     0.162 C 
BRANCH  38  39
ATOM     39  C   UNL     1      25.804  36.484  10.653  1.00  0.00     0.132 C 
BRANCH  39  40
ATOM     40  C   UNL     1      26.632  37.455  11.435  1.00  0.00     0.309 C 
ATOM     41  O   UNL     1      27.146  38.472  10.856  1.00  0.00    -0.252 OA
BRANCH  40  42
ATOM     42  O   UNL     1      26.899  37.343  12.782  1.00  0.00    -0.481 OA
ATOM     43  H   UNL     1      26.856  38.151  13.417  1.00  0.00     0.296 HD
ENDBRANCH  40  42
ENDBRANCH  39  40
BRANCH  39  44
ATOM     44  C   UNL     1      25.487  36.986   9.291  1.00  0.00     0.065 C 
BRANCH  44  45
ATOM     45  C   UNL     1      24.114  36.696   8.825  1.00  0.00    -0.040 A 
ATOM     46  C   UNL     1      23.408  35.661   9.338  1.00  0.00     0.004 A 
ATOM     47  C   UNL     1      23.542  37.485   7.841  1.00  0.00     0.004 A 
ATOM     48  C   UNL     1      22.115  35.408   8.863  1.00  0.00     0.000 A 
ATOM     49  C   UNL     1      22.272  37.255   7.360  1.00  0.00     0.000 A 
ATOM     50  C   UNL     1      21.557  36.199   7.885  1.00  0.00     0.000 A 
ENDBRANCH  44  45
BRANCH  44  51
ATOM     51  C   UNL     1      26.493  36.654   8.251  1.00  0.00    -0.040 A 
ATOM     52  C   UNL     1      26.914  35.375   7.974  1.00  0.00     0.004 A 
ATOM     53  C   UNL     1      27.090  37.651   7.479  1.00  0.00     0.004 A 
ATOM     54  C   UNL     1      27.855  35.102   7.006  1.00  0.00     0.000 A 
ATOM     55  C   UNL     1      28.030  37.395   6.510  1.00  0.00     0.000 A 
ATOM     56  C   UNL     1      28.423  36.099   6.266  1.00  0.00     0.000 A 
ENDBRANCH  44  51
ENDBRANCH  39  44
ENDBRANCH  38  39
ENDBRANCH  36  38
ENDBRANCH  32  33
ENDBRANCH  31  32
ENDBRANCH   2  31
TORSDOF 21
BEGIN_RES LYS A 135
REMARK  4 active torsions:
REMARK  status: ('A' for Active; 'I' for Inactive)
REMARK    1  A    between atoms: CA   and  CB  
REMARK    2  A    between atoms: CB   and  CG  
REMARK    3  A    between atoms: CG   and  CD  
REMARK    4  A    between atoms: CD   and  CE  
ROOT
ATOM      1  CA  LYS A 135      33.193  34.663   9.290  1.00 25.02     0.186 C 
ENDROOT
BRANCH   1   2
ATOM      2  CB  LYS A 135      32.060  35.360  10.034  1.00 26.63     0.034 C 
BRANCH   2   3
ATOM      3  CG  LYS A 135      30.802  35.505   9.217  1.00 29.45     0.005 C 
BRANCH   3   4
ATOM      4  CD  LYS A 135      30.019  36.735   9.651  1.00 32.00     0.041 C 
BRANCH   4   5
ATOM      5  CE  LYS A 135      30.920  37.954   9.688  1.00 34.25     0.338 C 
ATOM      6  NZ  LYS A 135      30.956  38.636   8.364  1.00 35.99     0.618 N 
ENDBRANCH   4   5
ENDBRANCH   3   4
ENDBRANCH   2   3
ENDBRANCH   1   2
END_RES LYS A 135
BEGIN_RES ARG A 124
REMARK  4 active torsions:
REMARK  status: ('A' for Active; 'I' for Inactive)
REMARK    5  A    between atoms: CA   and  CB  
REMARK    6  A    between atoms: CB   and  CG  
REMARK    7  A    between atoms: CG   and  CD  
REMARK    8  A    between atoms: CD   and  NE  
REMARK       I    between atoms: NE   and  CZ  
ROOT
ATOM      7  CA  ARG A 124      31.045  26.515   9.594  1.00 17.84     0.186 C 
ENDROOT
BRANCH   7   8
ATOM      8  CB  ARG A 124      29.529  26.705   9.647  1.00 16.18     0.036 C 
BRANCH   8   9
ATOM      9  CG  ARG A 124      28.967  27.307  10.984  1.00 16.22     0.029 C 
BRANCH   9  10
ATOM     10  CD  ARG A 124      28.206  26.267  11.837  1.00 15.09     0.145 C 
BRANCH  10  11
ATOM     11  NE  ARG A 124      27.831  26.756  13.182  1.00 16.98    -0.083 NA
ATOM     12  CZ  ARG A 124      26.626  27.203  13.520  1.00 18.21     0.782 C 
ATOM     13  NH1 ARG A 124      25.630  27.232  12.643  1.00 21.11     0.063 N 
ATOM     14  NH2 ARG A 124      26.395  27.607  14.760  1.00 21.25     0.063 N 
ENDBRANCH  10  11
ENDBRANCH   9  10
ENDBRANCH   8   9
ENDBRANCH   7   8
END_RES ARG A 124
BEGIN_RES ASN A 133
REMARK  2 active torsions:
REMARK  status: ('A' for Active; 'I' for Inactive)
REMARK    9  A    between atoms: CA   and  CB  
REMARK   10  A    between atoms: CB   and  CG  
ROOT
ATOM     15  CA  ASN A 133      31.225  30.257  11.749  1.00 18.15     0.196 C 
ENDROOT
BRANCH  15  16
ATOM     16  CB  ASN A 133      30.092  31.240  11.460  1.00 18.27     0.126 C 
BRANCH  16  17
ATOM     17  CG  ASN A 133      28.979  31.170  12.459  1.00 18.94     0.276 C 
ATOM     18  OD1 ASN A 133      28.995  31.859  13.481  1.00 18.09    -0.269 OA
ATOM     19  ND2 ASN A 133      27.990  30.325  12.171  1.00 18.93    -0.107 N 
ENDBRANCH  16  17
ENDBRANCH  15  16
END_RES ASN A 133
BEGIN_RES LYS A 131
REMARK  4 active torsions:
REMARK  status: ('A' for Active; 'I' for Inactive)
REMARK   11  A    between atoms: CA   and  CB  
REMARK   12  A    between atoms: CB   and  CG  
REMARK   13  A    between atoms: CG   and  CD  
REMARK   14  A    between atoms: CD   and  CE  
ROOT
ATOM     20  CA  LYS A 131      29.867  25.555  16.977  1.00 20.52     0.186 C 
ENDROOT
BRANCH  20  21
ATOM     21  CB  LYS A 131      28.345  25.722  17.026  1.00 20.94     0.034 C 
BRANCH  21  22
ATOM     22  CG  LYS A 131      27.600  24.411  16.828  1.00 22.96     0.005 C 
BRANCH  22  23
ATOM     23  CD  LYS A 131      26.164  24.504  17.262  1.00 24.33     0.041 C 
BRANCH  23  24
ATOM     24  CE  LYS A 131      25.964  25.767  18.094  1.00 26.91     0.338 C 
ATOM     25  NZ  LYS A 131      25.739  25.421  19.517  1.00 27.40     0.618 N 
ENDBRANCH  23  24
ENDBRANCH  22  23
ENDBRANCH  21  22
ENDBRANCH  20  21
END_RES LYS A 131
