REMARK VINA RESULT:    -5.760      2.109      3.052
REMARK INTER + INTRA:         -20.638
REMARK INTER:                 -10.915
REMARK INTRA:                  -9.722
REMARK UNBOUND:                -8.816
REMARK SMILES CC(=O)N[C@@H]1[C@@H](O)C[C@](O)(C(=O)O)O[C@H]1C(O)[C@H](O)CNC(=O)OCc1cn(C[C@@H](C(=O)O)C(c2ccccc2)c2ccccc2)nn1
REMARK SMILES IDX 21 1 22 2 23 3 20 5 18 6 16 7 15 8 9 9 8 10 14 11 6 12 5 13
REMARK SMILES IDX 10 14 11 16 12 17 13 18 7 20 4 22 2 23 1 25 3 26 17 27 19 29
REMARK SMILES IDX 24 31 25 32 26 33 27 34 48 35 28 36 47 37 29 38 30 39 31 40
REMARK SMILES IDX 32 41 33 42 34 44 35 45 36 46 40 47 37 48 39 49 38 50 41 51
REMARK SMILES IDX 42 52 46 53 43 54 45 55 44 56
REMARK H PARENT 21 4 10 15 13 19 7 21 4 24 17 28 19 30 33 43
REMARK Flexibility Score: inf
ROOT
ATOM      1  N   UNL     1      28.160  32.361  16.187  1.00  0.00    -0.319 N 
ATOM      2  C   UNL     1      27.086  32.924  16.890  1.00  0.00     0.407 C 
ATOM      3  O   UNL     1      27.066  32.825  18.142  1.00  0.00    -0.225 OA
ATOM      4  H   UNL     1      28.225  32.415  15.159  1.00  0.00     0.167 HD
ENDROOT
BRANCH   1   5
ATOM      5  C   UNL     1      29.249  31.662  16.901  1.00  0.00     0.154 C 
BRANCH   5   6
ATOM      6  C   UNL     1      30.302  32.680  17.231  1.00  0.00     0.165 C 
BRANCH   6   7
ATOM      7  C   UNL     1      31.289  32.992  16.161  1.00  0.00     0.176 C 
BRANCH   7   8
ATOM      8  C   UNL     1      31.035  34.288  15.410  1.00  0.00     0.178 C 
ATOM      9  C   UNL     1      31.159  34.983  13.178  1.00  0.00     0.269 C 
ATOM     10  C   UNL     1      31.918  36.228  13.616  1.00  0.00     0.112 C 
ATOM     11  O   UNL     1      31.375  33.961  14.077  1.00  0.00    -0.332 OA
ATOM     12  C   UNL     1      32.836  35.876  14.778  1.00  0.00     0.145 C 
ATOM     13  C   UNL     1      31.902  35.386  15.918  1.00  0.00     0.142 C 
BRANCH   9  14
ATOM     14  O   UNL     1      31.772  34.544  11.973  1.00  0.00    -0.357 OA
ATOM     15  H   UNL     1      32.633  35.014  11.931  1.00  0.00     0.214 HD
ENDBRANCH   9  14
BRANCH   9  16
ATOM     16  C   UNL     1      29.746  35.254  12.869  1.00  0.00     0.364 C 
ATOM     17  O   UNL     1      29.206  36.310  13.258  1.00  0.00    -0.246 OA
BRANCH  16  18
ATOM     18  O   UNL     1      29.009  34.341  12.148  1.00  0.00    -0.477 OA
ATOM     19  H   UNL     1      28.269  33.767  12.542  1.00  0.00     0.296 HD
ENDBRANCH  16  18
ENDBRANCH   9  16
BRANCH  12  20
ATOM     20  O   UNL     1      33.677  34.837  14.484  1.00  0.00    -0.391 OA
ATOM     21  H   UNL     1      34.566  35.125  14.130  1.00  0.00     0.211 HD
ENDBRANCH  12  20
BRANCH  13  22
ATOM     22  N   UNL     1      31.173  36.539  16.425  1.00  0.00    -0.348 N 
ATOM     23  C   UNL     1      30.823  36.596  17.787  1.00  0.00     0.217 C 
ATOM     24  H   UNL     1      30.901  37.333  15.805  1.00  0.00     0.163 HD
ATOM     25  C   UNL     1      30.064  37.804  18.272  1.00  0.00     0.114 C 
ATOM     26  O   UNL     1      31.092  35.716  18.638  1.00  0.00    -0.275 OA
ENDBRANCH  13  22
ENDBRANCH   7   8
BRANCH   7  27
ATOM     27  O   UNL     1      31.137  31.965  15.138  1.00  0.00    -0.388 OA
ATOM     28  H   UNL     1      30.206  32.130  14.833  1.00  0.00     0.211 HD
ENDBRANCH   7  27
ENDBRANCH   6   7
BRANCH   6  29
ATOM     29  O   UNL     1      30.820  32.520  18.498  1.00  0.00    -0.388 OA
ATOM     30  H   UNL     1      30.850  31.569  18.789  1.00  0.00     0.211 HD
ENDBRANCH   6  29
ENDBRANCH   5   6
ENDBRANCH   1   5
BRANCH   2  31
ATOM     31  O   UNL     1      26.030  33.591  16.281  1.00  0.00    -0.443 OA
BRANCH  31  32
ATOM     32  C   UNL     1      26.291  34.785  15.563  1.00  0.00     0.294 C 
BRANCH  32  33
ATOM     33  C   UNL     1      26.100  34.541  14.110  1.00  0.00     0.120 A 
ATOM     34  C   UNL     1      25.638  35.380  13.121  1.00  0.00     0.138 A 
ATOM     35  N   UNL     1      26.362  33.384  13.481  1.00  0.00    -0.132 NA
ATOM     36  N   UNL     1      25.625  34.745  11.937  1.00  0.00    -0.251 N 
ATOM     37  N   UNL     1      26.077  33.515  12.193  1.00  0.00    -0.067 NA
BRANCH  36  38
ATOM     38  C   UNL     1      25.212  35.252  10.618  1.00  0.00     0.162 C 
BRANCH  38  39
ATOM     39  C   UNL     1      26.434  35.802   9.941  1.00  0.00     0.132 C 
BRANCH  39  40
ATOM     40  C   UNL     1      27.119  34.777   9.095  1.00  0.00     0.309 C 
ATOM     41  O   UNL     1      27.147  34.909   7.823  1.00  0.00    -0.252 OA
BRANCH  40  42
ATOM     42  O   UNL     1      27.751  33.655   9.587  1.00  0.00    -0.481 OA
ATOM     43  H   UNL     1      28.578  33.715  10.195  1.00  0.00     0.296 HD
ENDBRANCH  40  42
ENDBRANCH  39  40
BRANCH  39  44
ATOM     44  C   UNL     1      26.263  37.096   9.229  1.00  0.00     0.065 C 
BRANCH  44  45
ATOM     45  C   UNL     1      27.060  38.216   9.775  1.00  0.00    -0.040 A 
ATOM     46  C   UNL     1      27.388  38.263  11.088  1.00  0.00     0.004 A 
ATOM     47  C   UNL     1      27.468  39.240   8.937  1.00  0.00     0.004 A 
ATOM     48  C   UNL     1      28.133  39.347  11.572  1.00  0.00     0.000 A 
ATOM     49  C   UNL     1      28.201  40.314   9.391  1.00  0.00     0.000 A 
ATOM     50  C   UNL     1      28.533  40.359  10.729  1.00  0.00     0.000 A 
ENDBRANCH  44  45
BRANCH  44  51
ATOM     51  C   UNL     1      24.855  37.499   8.990  1.00  0.00    -0.040 A 
ATOM     52  C   UNL     1      24.109  38.237   9.878  1.00  0.00     0.004 A 
ATOM     53  C   UNL     1      24.188  37.134   7.821  1.00  0.00     0.004 A 
ATOM     54  C   UNL     1      22.801  38.589   9.628  1.00  0.00     0.000 A 
ATOM     55  C   UNL     1      22.884  37.477   7.557  1.00  0.00     0.000 A 
ATOM     56  C   UNL     1      22.174  38.217   8.475  1.00  0.00     0.000 A 
ENDBRANCH  44  51
ENDBRANCH  39  44
ENDBRANCH  38  39
ENDBRANCH  36  38
ENDBRANCH  32  33
ENDBRANCH  31  32
ENDBRANCH   2  31
TORSDOF 21
BEGIN_RES LYS A 135
REMARK  4 active torsions:
REMARK  status: ('A' for Active; 'I' for Inactive)
REMARK    1  A    between atoms: CA   and  CB  
REMARK    2  A    between atoms: CB   and  CG  
REMARK    3  A    between atoms: CG   and  CD  
REMARK    4  A    between atoms: CD   and  CE  
ROOT
ATOM      1  CA  LYS A 135      33.193  34.663   9.290  1.00 25.02     0.186 C 
ENDROOT
BRANCH   1   2
ATOM      2  CB  LYS A 135      32.060  35.360  10.034  1.00 26.63     0.034 C 
BRANCH   2   3
ATOM      3  CG  LYS A 135      30.821  35.556   9.198  1.00 29.45     0.005 C 
BRANCH   3   4
ATOM      4  CD  LYS A 135      30.425  37.024   9.162  1.00 32.00     0.041 C 
BRANCH   4   5
ATOM      5  CE  LYS A 135      31.204  37.811  10.199  1.00 34.25     0.338 C 
ATOM      6  NZ  LYS A 135      31.809  39.034   9.601  1.00 35.99     0.618 N 
ENDBRANCH   4   5
ENDBRANCH   3   4
ENDBRANCH   2   3
ENDBRANCH   1   2
END_RES LYS A 135
BEGIN_RES ARG A 124
REMARK  4 active torsions:
REMARK  status: ('A' for Active; 'I' for Inactive)
REMARK    5  A    between atoms: CA   and  CB  
REMARK    6  A    between atoms: CB   and  CG  
REMARK    7  A    between atoms: CG   and  CD  
REMARK    8  A    between atoms: CD   and  NE  
REMARK       I    between atoms: NE   and  CZ  
ROOT
ATOM      7  CA  ARG A 124      31.045  26.515   9.594  1.00 17.84     0.186 C 
ENDROOT
BRANCH   7   8
ATOM      8  CB  ARG A 124      29.529  26.705   9.647  1.00 16.18     0.036 C 
BRANCH   8   9
ATOM      9  CG  ARG A 124      28.976  27.389  10.948  1.00 16.22     0.029 C 
BRANCH   9  10
ATOM     10  CD  ARG A 124      28.415  26.371  11.968  1.00 15.09     0.145 C 
BRANCH  10  11
ATOM     11  NE  ARG A 124      28.057  26.969  13.274  1.00 16.98    -0.083 NA
ATOM     12  CZ  ARG A 124      26.856  27.440  13.590  1.00 18.21     0.782 C 
ATOM     13  NH1 ARG A 124      25.848  27.396  12.727  1.00 21.11     0.063 N 
ATOM     14  NH2 ARG A 124      26.640  27.945  14.795  1.00 21.25     0.063 N 
ENDBRANCH  10  11
ENDBRANCH   9  10
ENDBRANCH   8   9
ENDBRANCH   7   8
END_RES ARG A 124
BEGIN_RES ASN A 133
REMARK  2 active torsions:
REMARK  status: ('A' for Active; 'I' for Inactive)
REMARK    9  A    between atoms: CA   and  CB  
REMARK   10  A    between atoms: CB   and  CG  
ROOT
ATOM     15  CA  ASN A 133      31.225  30.257  11.749  1.00 18.15     0.196 C 
ENDROOT
BRANCH  15  16
ATOM     16  CB  ASN A 133      30.092  31.240  11.460  1.00 18.27     0.126 C 
BRANCH  16  17
ATOM     17  CG  ASN A 133      28.918  31.075  12.375  1.00 18.94     0.276 C 
ATOM     18  OD1 ASN A 133      28.905  31.589  13.495  1.00 18.09    -0.269 OA
ATOM     19  ND2 ASN A 133      27.908  30.346  11.902  1.00 18.93    -0.107 N 
ENDBRANCH  16  17
ENDBRANCH  15  16
END_RES ASN A 133
BEGIN_RES LYS A 131
REMARK  4 active torsions:
REMARK  status: ('A' for Active; 'I' for Inactive)
REMARK   11  A    between atoms: CA   and  CB  
REMARK   12  A    between atoms: CB   and  CG  
REMARK   13  A    between atoms: CG   and  CD  
REMARK   14  A    between atoms: CD   and  CE  
ROOT
ATOM     20  CA  LYS A 131      29.867  25.555  16.977  1.00 20.52     0.186 C 
ENDROOT
BRANCH  20  21
ATOM     21  CB  LYS A 131      28.345  25.722  17.026  1.00 20.94     0.034 C 
BRANCH  21  22
ATOM     22  CG  LYS A 131      27.599  24.424  16.756  1.00 22.96     0.005 C 
BRANCH  22  23
ATOM     23  CD  LYS A 131      26.846  23.942  17.964  1.00 24.33     0.041 C 
BRANCH  23  24
ATOM     24  CE  LYS A 131      25.381  23.728  17.599  1.00 26.91     0.338 C 
ATOM     25  NZ  LYS A 131      25.049  22.283  17.609  1.00 27.40     0.618 N 
ENDBRANCH  23  24
ENDBRANCH  22  23
ENDBRANCH  21  22
ENDBRANCH  20  21
END_RES LYS A 131
