REMARK VINA RESULT:    -5.350      4.906     10.100
REMARK INTER + INTRA:         -17.458
REMARK INTER:                  -8.659
REMARK INTRA:                  -8.800
REMARK UNBOUND:                -8.198
REMARK SMILES CC(=O)N[C@@H]1[C@@H](O)C[C@](O)(C(=O)O)O[C@H]1C(O)[C@H](O)CNC(=O)OCc1cn(C23CC4CC(CC(C4)C2)C3)nn1
REMARK SMILES IDX 20 1 18 2 16 3 15 4 9 5 8 6 14 7 6 8 5 9 10 10 11 12 12 13
REMARK SMILES IDX 13 14 7 16 4 18 2 19 1 21 3 22 17 23 19 25 21 27 22 28 23 30
REMARK SMILES IDX 24 31 25 32 26 33 27 34 40 35 28 36 39 37 29 38 38 39 37 40
REMARK SMILES IDX 30 41 33 42 35 43 31 44 32 45 34 46 36 47
REMARK H PARENT 10 11 13 15 7 17 4 20 17 24 19 26 21 29
REMARK Flexibility Score: inf
ROOT
ATOM      1  C   UNL     1      23.884  36.551   9.160  1.00  0.00     0.154 C 
ENDROOT
BRANCH   1   2
ATOM      2  C   UNL     1      25.274  36.764   8.565  1.00  0.00     0.165 C 
BRANCH   2   3
ATOM      3  C   UNL     1      26.023  37.887   9.185  1.00  0.00     0.176 C 
BRANCH   3   4
ATOM      4  C   UNL     1      26.862  38.734   8.308  1.00  0.00     0.178 C 
ATOM      5  C   UNL     1      28.453  38.654   6.610  1.00  0.00     0.269 C 
ATOM      6  C   UNL     1      28.658  40.123   6.710  1.00  0.00     0.112 C 
ATOM      7  O   UNL     1      27.900  38.035   7.702  1.00  0.00    -0.332 OA
ATOM      8  C   UNL     1      27.766  40.863   7.641  1.00  0.00     0.145 C 
ATOM      9  C   UNL     1      27.405  39.996   8.873  1.00  0.00     0.142 C 
BRANCH   5  10
ATOM     10  O   UNL     1      29.759  38.091   6.495  1.00  0.00    -0.357 OA
ATOM     11  H   UNL     1      29.747  37.294   7.085  1.00  0.00     0.214 HD
ENDBRANCH   5  10
BRANCH   5  12
ATOM     12  C   UNL     1      27.776  38.308   5.339  1.00  0.00     0.364 C 
ATOM     13  O   UNL     1      27.739  39.166   4.428  1.00  0.00    -0.246 OA
BRANCH  12  14
ATOM     14  O   UNL     1      27.183  37.083   5.111  1.00  0.00    -0.477 OA
ATOM     15  H   UNL     1      26.394  36.842   5.722  1.00  0.00     0.296 HD
ENDBRANCH  12  14
ENDBRANCH   5  12
BRANCH   8  16
ATOM     16  O   UNL     1      28.332  42.024   8.114  1.00  0.00    -0.391 OA
ATOM     17  H   UNL     1      28.565  41.909   9.073  1.00  0.00     0.211 HD
ENDBRANCH   8  16
BRANCH   9  18
ATOM     18  N   UNL     1      26.468  40.791   9.613  1.00  0.00    -0.348 N 
ATOM     19  C   UNL     1      26.557  40.846  11.023  1.00  0.00     0.217 C 
ATOM     20  H   UNL     1      25.737  41.315   9.110  1.00  0.00     0.163 HD
ATOM     21  C   UNL     1      25.622  41.646  11.854  1.00  0.00     0.114 C 
ATOM     22  O   UNL     1      27.465  40.194  11.611  1.00  0.00    -0.275 OA
ENDBRANCH   9  18
ENDBRANCH   3   4
BRANCH   3  23
ATOM     23  O   UNL     1      26.756  37.437  10.282  1.00  0.00    -0.388 OA
ATOM     24  H   UNL     1      26.427  36.567  10.613  1.00  0.00     0.211 HD
ENDBRANCH   3  23
ENDBRANCH   2   3
BRANCH   2  25
ATOM     25  O   UNL     1      25.004  37.183   7.227  1.00  0.00    -0.388 OA
ATOM     26  H   UNL     1      25.568  37.971   7.011  1.00  0.00     0.211 HD
ENDBRANCH   2  25
ENDBRANCH   1   2
BRANCH   1  27
ATOM     27  N   UNL     1      23.977  35.631  10.301  1.00  0.00    -0.319 N 
ATOM     28  C   UNL     1      23.990  36.097  11.632  1.00  0.00     0.407 C 
ATOM     29  H   UNL     1      24.033  34.619  10.121  1.00  0.00     0.167 HD
ATOM     30  O   UNL     1      23.917  37.361  11.776  1.00  0.00    -0.225 OA
BRANCH  28  31
ATOM     31  O   UNL     1      24.076  35.260  12.734  1.00  0.00    -0.443 OA
BRANCH  31  32
ATOM     32  C   UNL     1      24.855  34.093  12.711  1.00  0.00     0.294 C 
BRANCH  32  33
ATOM     33  C   UNL     1      26.239  34.463  12.329  1.00  0.00     0.120 A 
ATOM     34  C   UNL     1      27.230  34.992  13.132  1.00  0.00     0.138 A 
ATOM     35  N   UNL     1      26.770  34.341  11.117  1.00  0.00    -0.132 NA
ATOM     36  N   UNL     1      28.328  35.172  12.381  1.00  0.00    -0.246 N 
ATOM     37  N   UNL     1      28.023  34.765  11.141  1.00  0.00    -0.066 NA
BRANCH  36  38
ATOM     38  C   UNL     1      29.573  35.703  12.852  1.00  0.00     0.065 C 
ATOM     39  C   UNL     1      29.760  37.107  12.338  1.00  0.00     0.034 C 
ATOM     40  C   UNL     1      30.746  34.886  12.297  1.00  0.00     0.034 C 
ATOM     41  C   UNL     1      29.587  35.646  14.367  1.00  0.00     0.034 C 
ATOM     42  C   UNL     1      31.046  37.689  12.877  1.00  0.00    -0.008 C 
ATOM     43  C   UNL     1      32.027  35.451  12.837  1.00  0.00    -0.008 C 
ATOM     44  C   UNL     1      30.880  36.225  14.867  1.00  0.00    -0.008 C 
ATOM     45  C   UNL     1      30.968  37.649  14.389  1.00  0.00     0.007 C 
ATOM     46  C   UNL     1      32.249  36.894  12.462  1.00  0.00     0.007 C 
ATOM     47  C   UNL     1      32.008  35.373  14.347  1.00  0.00     0.007 C 
ENDBRANCH  36  38
ENDBRANCH  32  33
ENDBRANCH  31  32
ENDBRANCH  28  31
ENDBRANCH   1  27
TORSDOF 15
BEGIN_RES LYS A 135
REMARK  4 active torsions:
REMARK  status: ('A' for Active; 'I' for Inactive)
REMARK    1  A    between atoms: CA   and  CB  
REMARK    2  A    between atoms: CB   and  CG  
REMARK    3  A    between atoms: CG   and  CD  
REMARK    4  A    between atoms: CD   and  CE  
ROOT
ATOM      1  CA  LYS A 135      33.193  34.663   9.290  1.00 25.02     0.186 C 
ENDROOT
BRANCH   1   2
ATOM      2  CB  LYS A 135      32.060  35.360  10.034  1.00 26.63     0.034 C 
BRANCH   2   3
ATOM      3  CG  LYS A 135      30.909  35.755   9.145  1.00 29.45     0.005 C 
BRANCH   3   4
ATOM      4  CD  LYS A 135      30.308  34.532   8.470  1.00 32.00     0.041 C 
BRANCH   4   5
ATOM      5  CE  LYS A 135      29.368  34.948   7.354  1.00 34.25     0.338 C 
ATOM      6  NZ  LYS A 135      27.947  34.738   7.744  1.00 35.99     0.618 N 
ENDBRANCH   4   5
ENDBRANCH   3   4
ENDBRANCH   2   3
ENDBRANCH   1   2
END_RES LYS A 135
BEGIN_RES ARG A 124
REMARK  4 active torsions:
REMARK  status: ('A' for Active; 'I' for Inactive)
REMARK    5  A    between atoms: CA   and  CB  
REMARK    6  A    between atoms: CB   and  CG  
REMARK    7  A    between atoms: CG   and  CD  
REMARK    8  A    between atoms: CD   and  NE  
REMARK       I    between atoms: NE   and  CZ  
ROOT
ATOM      7  CA  ARG A 124      31.045  26.515   9.594  1.00 17.84     0.186 C 
ENDROOT
BRANCH   7   8
ATOM      8  CB  ARG A 124      29.529  26.705   9.647  1.00 16.18     0.036 C 
BRANCH   8   9
ATOM      9  CG  ARG A 124      29.033  28.014  10.360  1.00 16.22     0.029 C 
BRANCH   9  10
ATOM     10  CD  ARG A 124      27.648  27.846  11.025  1.00 15.09     0.145 C 
BRANCH  10  11
ATOM     11  NE  ARG A 124      27.565  28.420  12.386  1.00 16.98    -0.083 NA
ATOM     12  CZ  ARG A 124      27.796  27.749  13.510  1.00 18.21     0.782 C 
ATOM     13  NH1 ARG A 124      28.144  26.468  13.489  1.00 21.11     0.063 N 
ATOM     14  NH2 ARG A 124      27.704  28.365  14.678  1.00 21.25     0.063 N 
ENDBRANCH  10  11
ENDBRANCH   9  10
ENDBRANCH   8   9
ENDBRANCH   7   8
END_RES ARG A 124
BEGIN_RES ASN A 133
REMARK  2 active torsions:
REMARK  status: ('A' for Active; 'I' for Inactive)
REMARK    9  A    between atoms: CA   and  CB  
REMARK   10  A    between atoms: CB   and  CG  
ROOT
ATOM     15  CA  ASN A 133      31.225  30.257  11.749  1.00 18.15     0.196 C 
ENDROOT
BRANCH  15  16
ATOM     16  CB  ASN A 133      30.092  31.240  11.460  1.00 18.27     0.126 C 
BRANCH  16  17
ATOM     17  CG  ASN A 133      29.278  31.578  12.671  1.00 18.94     0.276 C 
ATOM     18  OD1 ASN A 133      29.809  32.010  13.696  1.00 18.09    -0.269 OA
ATOM     19  ND2 ASN A 133      27.965  31.379  12.564  1.00 18.93    -0.107 N 
ENDBRANCH  16  17
ENDBRANCH  15  16
END_RES ASN A 133
BEGIN_RES LYS A 131
REMARK  4 active torsions:
REMARK  status: ('A' for Active; 'I' for Inactive)
REMARK   11  A    between atoms: CA   and  CB  
REMARK   12  A    between atoms: CB   and  CG  
REMARK   13  A    between atoms: CG   and  CD  
REMARK   14  A    between atoms: CD   and  CE  
ROOT
ATOM     20  CA  LYS A 131      29.867  25.555  16.977  1.00 20.52     0.186 C 
ENDROOT
BRANCH  20  21
ATOM     21  CB  LYS A 131      28.345  25.722  17.026  1.00 20.94     0.034 C 
BRANCH  21  22
ATOM     22  CG  LYS A 131      27.599  24.433  16.719  1.00 22.96     0.005 C 
BRANCH  22  23
ATOM     23  CD  LYS A 131      26.941  23.854  17.941  1.00 24.33     0.041 C 
BRANCH  23  24
ATOM     24  CE  LYS A 131      25.542  23.364  17.583  1.00 26.91     0.338 C 
ATOM     25  NZ  LYS A 131      24.785  24.427  16.880  1.00 27.40     0.618 N 
ENDBRANCH  23  24
ENDBRANCH  22  23
ENDBRANCH  21  22
ENDBRANCH  20  21
END_RES LYS A 131
