REMARK VINA RESULT:    -4.881      3.257      4.628
REMARK INTER + INTRA:         -16.808
REMARK INTER:                  -8.448
REMARK INTRA:                  -8.360
REMARK UNBOUND:                -8.360
REMARK SMILES CC(=O)N[C@@H]1[C@@H](O)C[C@](O)(C(=O)O)O[C@H]1C(O)[C@H](O)CNC(=O)OCc1cn(-c2ccc(C)cc2)nn1
REMARK SMILES IDX 20 1 18 2 16 3 15 4 9 5 8 6 14 7 6 8 5 9 10 10 11 12 12 13
REMARK SMILES IDX 13 14 7 16 4 18 2 19 1 21 3 22 17 23 19 25 21 27 22 28 23 30
REMARK SMILES IDX 24 31 25 32 26 33 27 34 37 35 28 36 36 37 29 38 30 39 35 40
REMARK SMILES IDX 31 41 34 42 32 43 33 44
REMARK H PARENT 10 11 13 15 7 17 4 20 17 24 19 26 21 29
REMARK Flexibility Score: inf
ROOT
ATOM      1  C   UNL     1      29.490  32.076  20.878  1.00  0.00     0.154 C 
ENDROOT
BRANCH   1   2
ATOM      2  C   UNL     1      30.900  31.712  20.560  1.00  0.00     0.165 C 
BRANCH   2   3
ATOM      3  C   UNL     1      30.943  30.248  20.147  1.00  0.00     0.176 C 
BRANCH   3   4
ATOM      4  C   UNL     1      30.437  29.335  21.240  1.00  0.00     0.178 C 
ATOM      5  C   UNL     1      32.388  28.728  22.375  1.00  0.00     0.269 C 
ATOM      6  C   UNL     1      32.181  27.262  22.095  1.00  0.00     0.112 C 
ATOM      7  O   UNL     1      31.199  29.377  22.378  1.00  0.00    -0.332 OA
ATOM      8  C   UNL     1      31.325  27.001  20.896  1.00  0.00     0.145 C 
ATOM      9  C   UNL     1      30.177  27.942  20.725  1.00  0.00     0.142 C 
BRANCH   5  10
ATOM     10  O   UNL     1      33.334  29.225  21.506  1.00  0.00    -0.357 OA
ATOM     11  H   UNL     1      33.233  28.752  20.637  1.00  0.00     0.214 HD
ENDBRANCH   5  10
BRANCH   5  12
ATOM     12  C   UNL     1      32.951  28.814  23.751  1.00  0.00     0.364 C 
ATOM     13  O   UNL     1      33.610  27.863  24.262  1.00  0.00    -0.246 OA
BRANCH  12  14
ATOM     14  O   UNL     1      32.776  29.942  24.523  1.00  0.00    -0.477 OA
ATOM     15  H   UNL     1      33.182  30.076  25.446  1.00  0.00     0.296 HD
ENDBRANCH  12  14
ENDBRANCH   5  12
BRANCH   8  16
ATOM     16  O   UNL     1      32.157  26.970  19.771  1.00  0.00    -0.391 OA
ATOM     17  H   UNL     1      32.502  27.880  19.618  1.00  0.00     0.211 HD
ENDBRANCH   8  16
BRANCH   9  18
ATOM     18  N   UNL     1      28.975  27.385  21.313  1.00  0.00    -0.348 N 
ATOM     19  C   UNL     1      27.735  27.569  20.668  1.00  0.00     0.217 C 
ATOM     20  H   UNL     1      29.013  26.837  22.228  1.00  0.00     0.163 HD
ATOM     21  C   UNL     1      26.511  27.010  21.252  1.00  0.00     0.114 C 
ATOM     22  O   UNL     1      27.671  28.209  19.592  1.00  0.00    -0.275 OA
ENDBRANCH   9  18
ENDBRANCH   3   4
BRANCH   3  23
ATOM     23  O   UNL     1      30.177  30.023  19.010  1.00  0.00    -0.388 OA
ATOM     24  H   UNL     1      30.510  30.500  18.212  1.00  0.00     0.211 HD
ENDBRANCH   3  23
ENDBRANCH   2   3
BRANCH   2  25
ATOM     25  O   UNL     1      31.831  31.911  21.551  1.00  0.00    -0.388 OA
ATOM     26  H   UNL     1      31.682  31.393  22.373  1.00  0.00     0.211 HD
ENDBRANCH   2  25
ENDBRANCH   1   2
BRANCH   1  27
ATOM     27  N   UNL     1      28.765  32.480  19.710  1.00  0.00    -0.319 N 
ATOM     28  C   UNL     1      28.784  33.775  19.136  1.00  0.00     0.407 C 
ATOM     29  H   UNL     1      28.139  31.770  19.192  1.00  0.00     0.167 HD
ATOM     30  O   UNL     1      29.478  34.687  19.634  1.00  0.00    -0.225 OA
BRANCH  28  31
ATOM     31  O   UNL     1      28.015  34.062  17.984  1.00  0.00    -0.443 OA
BRANCH  31  32
ATOM     32  C   UNL     1      28.545  33.659  16.736  1.00  0.00     0.294 C 
BRANCH  32  33
ATOM     33  C   UNL     1      28.245  32.195  16.549  1.00  0.00     0.121 A 
ATOM     34  C   UNL     1      27.014  31.628  16.283  1.00  0.00     0.144 A 
ATOM     35  N   UNL     1      29.103  31.158  16.599  1.00  0.00    -0.131 NA
ATOM     36  N   UNL     1      27.156  30.291  16.183  1.00  0.00    -0.220 N 
ATOM     37  N   UNL     1      28.433  30.043  16.379  1.00  0.00    -0.062 NA
BRANCH  36  38
ATOM     38  C   UNL     1      26.173  29.294  15.919  1.00  0.00     0.066 A 
ATOM     39  C   UNL     1      26.154  28.112  16.635  1.00  0.00     0.029 A 
ATOM     40  C   UNL     1      25.200  29.447  14.950  1.00  0.00     0.029 A 
ATOM     41  C   UNL     1      25.215  27.130  16.400  1.00  0.00     0.005 A 
ATOM     42  C   UNL     1      24.258  28.468  14.709  1.00  0.00     0.005 A 
ATOM     43  C   UNL     1      24.249  27.293  15.430  1.00  0.00    -0.051 A 
ATOM     44  C   UNL     1      23.242  26.212  15.196  1.00  0.00     0.044 C 
ENDBRANCH  36  38
ENDBRANCH  32  33
ENDBRANCH  31  32
ENDBRANCH  28  31
ENDBRANCH   1  27
TORSDOF 15
BEGIN_RES LYS A 135
REMARK  4 active torsions:
REMARK  status: ('A' for Active; 'I' for Inactive)
REMARK    1  A    between atoms: CA   and  CB  
REMARK    2  A    between atoms: CB   and  CG  
REMARK    3  A    between atoms: CG   and  CD  
REMARK    4  A    between atoms: CD   and  CE  
ROOT
ATOM      1  CA  LYS A 135      33.193  34.663   9.290  1.00 25.02     0.186 C 
ENDROOT
BRANCH   1   2
ATOM      2  CB  LYS A 135      32.060  35.360  10.034  1.00 26.63     0.034 C 
BRANCH   2   3
ATOM      3  CG  LYS A 135      30.709  34.736   9.795  1.00 29.45     0.005 C 
BRANCH   3   4
ATOM      4  CD  LYS A 135      30.305  34.874   8.336  1.00 32.00     0.041 C 
BRANCH   4   5
ATOM      5  CE  LYS A 135      28.796  34.828   8.194  1.00 34.25     0.338 C 
ATOM      6  NZ  LYS A 135      28.368  35.307   6.851  1.00 35.99     0.618 N 
ENDBRANCH   4   5
ENDBRANCH   3   4
ENDBRANCH   2   3
ENDBRANCH   1   2
END_RES LYS A 135
BEGIN_RES ARG A 124
REMARK  4 active torsions:
REMARK  status: ('A' for Active; 'I' for Inactive)
REMARK    5  A    between atoms: CA   and  CB  
REMARK    6  A    between atoms: CB   and  CG  
REMARK    7  A    between atoms: CG   and  CD  
REMARK    8  A    between atoms: CD   and  NE  
REMARK       I    between atoms: NE   and  CZ  
ROOT
ATOM      7  CA  ARG A 124      31.045  26.515   9.594  1.00 17.84     0.186 C 
ENDROOT
BRANCH   7   8
ATOM      8  CB  ARG A 124      29.529  26.705   9.647  1.00 16.18     0.036 C 
BRANCH   8   9
ATOM      9  CG  ARG A 124      29.030  28.194   9.626  1.00 16.22     0.029 C 
BRANCH   9  10
ATOM     10  CD  ARG A 124      27.988  28.493  10.728  1.00 15.09     0.145 C 
BRANCH  10  11
ATOM     11  NE  ARG A 124      28.270  27.822  12.016  1.00 16.98    -0.083 NA
ATOM     12  CZ  ARG A 124      27.394  27.098  12.703  1.00 18.21     0.782 C 
ATOM     13  NH1 ARG A 124      26.157  26.907  12.259  1.00 21.11     0.063 N 
ATOM     14  NH2 ARG A 124      27.755  26.530  13.843  1.00 21.25     0.063 N 
ENDBRANCH  10  11
ENDBRANCH   9  10
ENDBRANCH   8   9
ENDBRANCH   7   8
END_RES ARG A 124
BEGIN_RES ASN A 133
REMARK  2 active torsions:
REMARK  status: ('A' for Active; 'I' for Inactive)
REMARK    9  A    between atoms: CA   and  CB  
REMARK   10  A    between atoms: CB   and  CG  
ROOT
ATOM     15  CA  ASN A 133      31.225  30.257  11.749  1.00 18.15     0.196 C 
ENDROOT
BRANCH  15  16
ATOM     16  CB  ASN A 133      30.092  31.240  11.460  1.00 18.27     0.126 C 
BRANCH  16  17
ATOM     17  CG  ASN A 133      29.331  31.642  12.685  1.00 18.94     0.276 C 
ATOM     18  OD1 ASN A 133      28.369  30.983  13.084  1.00 18.09    -0.269 OA
ATOM     19  ND2 ASN A 133      29.757  32.744  13.301  1.00 18.93    -0.107 N 
ENDBRANCH  16  17
ENDBRANCH  15  16
END_RES ASN A 133
BEGIN_RES LYS A 131
REMARK  4 active torsions:
REMARK  status: ('A' for Active; 'I' for Inactive)
REMARK   11  A    between atoms: CA   and  CB  
REMARK   12  A    between atoms: CB   and  CG  
REMARK   13  A    between atoms: CG   and  CD  
REMARK   14  A    between atoms: CD   and  CE  
ROOT
ATOM     20  CA  LYS A 131      29.867  25.555  16.977  1.00 20.52     0.186 C 
ENDROOT
BRANCH  20  21
ATOM     21  CB  LYS A 131      28.345  25.722  17.026  1.00 20.94     0.034 C 
BRANCH  21  22
ATOM     22  CG  LYS A 131      27.600  24.409  16.840  1.00 22.96     0.005 C 
BRANCH  22  23
ATOM     23  CD  LYS A 131      26.678  24.113  17.991  1.00 24.33     0.041 C 
BRANCH  23  24
ATOM     24  CE  LYS A 131      25.749  22.963  17.616  1.00 26.91     0.338 C 
ATOM     25  NZ  LYS A 131      24.427  23.482  17.192  1.00 27.40     0.618 N 
ENDBRANCH  23  24
ENDBRANCH  22  23
ENDBRANCH  21  22
ENDBRANCH  20  21
END_RES LYS A 131
