REMARK VINA RESULT:    -6.754      3.004      5.509
REMARK INTER + INTRA:         -20.471
REMARK INTER:                 -12.355
REMARK INTRA:                  -8.116
REMARK UNBOUND:                -7.795
REMARK SMILES CC(=O)N[C@@H]1[C@@H](O)C[C@](O)(C(=O)O)O[C@H]1C(O)[C@H](O)CNC(=O)OCc1cn(-c2ccc(-c3c4ccc(=O)cc-4oc4cc(O)ccc34)c(C(=O)[O-])c2)nn1
REMARK SMILES IDX 21 1 22 2 23 3 20 5 18 6 16 7 15 8 9 9 8 10 14 11 6 12 5 13
REMARK SMILES IDX 10 14 11 16 12 17 13 18 7 20 4 22 2 23 1 25 3 26 17 27 19 29
REMARK SMILES IDX 24 31 25 32 26 33 27 34 55 35 28 36 54 37 29 38 53 39 30 40
REMARK SMILES IDX 49 41 31 42 32 43 50 44 51 45 52 46 33 47 48 48 34 49 47 50
REMARK SMILES IDX 42 51 40 52 35 53 46 54 43 55 41 56 39 57 36 58 44 59 37 60
REMARK SMILES IDX 38 61 45 62
REMARK H PARENT 21 4 10 15 13 19 7 21 4 24 17 28 19 30 45 63
REMARK Flexibility Score: inf
ROOT
ATOM      1  N   UNL     1      30.551  32.577  18.127  1.00  0.00    -0.319 N 
ATOM      2  C   UNL     1      31.375  33.453  17.405  1.00  0.00     0.407 C 
ATOM      3  O   UNL     1      31.910  34.417  17.963  1.00  0.00    -0.225 OA
ATOM      4  H   UNL     1      30.139  31.770  17.557  1.00  0.00     0.167 HD
ENDROOT
BRANCH   1   5
ATOM      5  C   UNL     1      30.215  32.658  19.522  1.00  0.00     0.154 C 
BRANCH   5   6
ATOM      6  C   UNL     1      30.674  31.530  20.374  1.00  0.00     0.165 C 
BRANCH   6   7
ATOM      7  C   UNL     1      29.796  30.321  20.385  1.00  0.00     0.176 C 
BRANCH   7   8
ATOM      8  C   UNL     1      30.359  29.199  21.226  1.00  0.00     0.178 C 
ATOM      9  C   UNL     1      32.192  28.470  22.366  1.00  0.00     0.269 C 
ATOM     10  C   UNL     1      31.628  27.048  22.239  1.00  0.00     0.112 C 
ATOM     11  O   UNL     1      31.711  29.328  21.398  1.00  0.00    -0.332 OA
ATOM     12  C   UNL     1      31.146  26.935  20.794  1.00  0.00     0.145 C 
ATOM     13  C   UNL     1      29.954  27.844  20.614  1.00  0.00     0.142 C 
BRANCH   9  14
ATOM     14  O   UNL     1      33.594  28.420  22.140  1.00  0.00    -0.357 OA
ATOM     15  H   UNL     1      34.035  28.161  22.992  1.00  0.00     0.214 HD
ENDBRANCH   9  14
BRANCH   9  16
ATOM     16  C   UNL     1      32.007  28.956  23.749  1.00  0.00     0.364 C 
ATOM     17  O   UNL     1      32.719  29.878  24.186  1.00  0.00    -0.246 OA
BRANCH  16  18
ATOM     18  O   UNL     1      31.063  28.441  24.633  1.00  0.00    -0.477 OA
ATOM     19  H   UNL     1      31.337  27.848  25.410  1.00  0.00     0.296 HD
ENDBRANCH  16  18
ENDBRANCH   9  16
BRANCH  12  20
ATOM     20  O   UNL     1      32.173  27.441  19.997  1.00  0.00    -0.391 OA
ATOM     21  H   UNL     1      32.734  26.733  19.608  1.00  0.00     0.211 HD
ENDBRANCH  12  20
BRANCH  13  22
ATOM     22  N   UNL     1      28.789  27.397  21.305  1.00  0.00    -0.348 N 
ATOM     23  C   UNL     1      27.484  27.318  20.740  1.00  0.00     0.217 C 
ATOM     24  H   UNL     1      28.918  27.106  22.314  1.00  0.00     0.163 HD
ATOM     25  C   UNL     1      26.385  26.835  21.587  1.00  0.00     0.114 C 
ATOM     26  O   UNL     1      27.353  27.669  19.544  1.00  0.00    -0.275 OA
ENDBRANCH  13  22
ENDBRANCH   7   8
BRANCH   7  27
ATOM     27  O   UNL     1      29.528  29.820  19.119  1.00  0.00    -0.388 OA
ATOM     28  H   UNL     1      29.665  30.559  18.470  1.00  0.00     0.211 HD
ENDBRANCH   7  27
ENDBRANCH   6   7
BRANCH   6  29
ATOM     29  O   UNL     1      30.960  31.929  21.697  1.00  0.00    -0.388 OA
ATOM     30  H   UNL     1      31.830  31.552  21.968  1.00  0.00     0.211 HD
ENDBRANCH   6  29
ENDBRANCH   5   6
ENDBRANCH   1   5
BRANCH   2  31
ATOM     31  O   UNL     1      31.630  33.285  16.041  1.00  0.00    -0.443 OA
BRANCH  31  32
ATOM     32  C   UNL     1      30.994  32.254  15.296  1.00  0.00     0.294 C 
BRANCH  32  33
ATOM     33  C   UNL     1      29.677  32.784  14.860  1.00  0.00     0.121 A 
ATOM     34  C   UNL     1      29.462  33.523  13.714  1.00  0.00     0.144 A 
ATOM     35  N   UNL     1      28.468  32.676  15.436  1.00  0.00    -0.131 NA
ATOM     36  N   UNL     1      28.151  33.827  13.651  1.00  0.00    -0.220 N 
ATOM     37  N   UNL     1      27.556  33.301  14.711  1.00  0.00    -0.062 NA
BRANCH  36  38
ATOM     38  C   UNL     1      27.560  34.590  12.598  1.00  0.00     0.067 A 
ATOM     39  C   UNL     1      26.907  35.783  12.817  1.00  0.00     0.039 A 
ATOM     40  C   UNL     1      27.627  34.147  11.284  1.00  0.00     0.029 A 
ATOM     41  C   UNL     1      26.339  36.514  11.776  1.00  0.00     0.007 A 
ATOM     42  C   UNL     1      27.066  34.868  10.250  1.00  0.00     0.012 A 
ATOM     43  C   UNL     1      26.415  36.060  10.477  1.00  0.00    -0.008 A 
BRANCH  41  44
ATOM     44  C   UNL     1      25.655  37.773  12.041  1.00  0.00     0.072 C 
ATOM     45  O   UNL     1      26.286  38.851  12.096  1.00  0.00    -0.545 OA
ATOM     46  O   UNL     1      24.285  37.752  12.234  1.00  0.00    -0.545 OA
ENDBRANCH  41  44
BRANCH  43  47
ATOM     47  C   UNL     1      25.816  36.841   9.404  1.00  0.00     0.004 A 
ATOM     48  C   UNL     1      24.530  36.588   8.961  1.00  0.00     0.026 A 
ATOM     49  C   UNL     1      26.489  37.869   8.769  1.00  0.00     0.026 A 
ATOM     50  C   UNL     1      23.775  35.577   9.535  1.00  0.00     0.016 A 
ATOM     51  C   UNL     1      23.986  37.352   7.934  1.00  0.00     0.139 A 
ATOM     52  C   UNL     1      25.873  38.642   7.694  1.00  0.00     0.139 A 
ATOM     53  C   UNL     1      27.775  38.168   9.167  1.00  0.00     0.016 A 
ATOM     54  C   UNL     1      22.488  35.316   9.100  1.00  0.00     0.047 A 
ATOM     55  C   UNL     1      22.704  37.091   7.502  1.00  0.00     0.093 A 
ATOM     56  O   UNL     1      24.653  38.330   7.345  1.00  0.00    -0.456 OA
ATOM     57  C   UNL     1      26.544  39.663   7.066  1.00  0.00     0.099 A 
ATOM     58  C   UNL     1      28.426  39.201   8.518  1.00  0.00     0.053 A 
ATOM     59  C   UNL     1      21.962  36.079   8.083  1.00  0.00     0.119 A 
ATOM     60  C   UNL     1      27.826  39.932   7.491  1.00  0.00     0.182 A 
ATOM     61  O   UNL     1      28.533  40.841   6.990  1.00  0.00    -0.290 OA
BRANCH  59  62
ATOM     62  O   UNL     1      20.668  35.840   7.623  1.00  0.00    -0.508 OA
ATOM     63  H   UNL     1      20.448  35.112   6.986  1.00  0.00     0.293 HD
ENDBRANCH  59  62
ENDBRANCH  43  47
ENDBRANCH  36  38
ENDBRANCH  32  33
ENDBRANCH  31  32
ENDBRANCH   2  31
TORSDOF 18
BEGIN_RES LYS A 135
REMARK  4 active torsions:
REMARK  status: ('A' for Active; 'I' for Inactive)
REMARK    1  A    between atoms: CA   and  CB  
REMARK    2  A    between atoms: CB   and  CG  
REMARK    3  A    between atoms: CG   and  CD  
REMARK    4  A    between atoms: CD   and  CE  
ROOT
ATOM      1  CA  LYS A 135      33.193  34.663   9.290  1.00 25.02     0.186 C 
ENDROOT
BRANCH   1   2
ATOM      2  CB  LYS A 135      32.060  35.360  10.034  1.00 26.63     0.034 C 
BRANCH   2   3
ATOM      3  CG  LYS A 135      30.688  34.935   9.577  1.00 29.45     0.005 C 
BRANCH   3   4
ATOM      4  CD  LYS A 135      30.224  35.788   8.407  1.00 32.00     0.041 C 
BRANCH   4   5
ATOM      5  CE  LYS A 135      29.410  34.958   7.433  1.00 34.25     0.338 C 
ATOM      6  NZ  LYS A 135      28.537  35.822   6.591  1.00 35.99     0.618 N 
ENDBRANCH   4   5
ENDBRANCH   3   4
ENDBRANCH   2   3
ENDBRANCH   1   2
END_RES LYS A 135
BEGIN_RES ARG A 124
REMARK  4 active torsions:
REMARK  status: ('A' for Active; 'I' for Inactive)
REMARK    5  A    between atoms: CA   and  CB  
REMARK    6  A    between atoms: CB   and  CG  
REMARK    7  A    between atoms: CG   and  CD  
REMARK    8  A    between atoms: CD   and  NE  
REMARK       I    between atoms: NE   and  CZ  
ROOT
ATOM      7  CA  ARG A 124      31.045  26.515   9.594  1.00 17.84     0.186 C 
ENDROOT
BRANCH   7   8
ATOM      8  CB  ARG A 124      29.529  26.705   9.647  1.00 16.18     0.036 C 
BRANCH   8   9
ATOM      9  CG  ARG A 124      28.923  26.936  11.078  1.00 16.22     0.029 C 
BRANCH   9  10
ATOM     10  CD  ARG A 124      27.554  26.244  11.269  1.00 15.09     0.145 C 
BRANCH  10  11
ATOM     11  NE  ARG A 124      26.443  27.181  11.539  1.00 16.98    -0.083 NA
ATOM     12  CZ  ARG A 124      26.063  27.582  12.748  1.00 18.21     0.782 C 
ATOM     13  NH1 ARG A 124      26.687  27.162  13.841  1.00 21.11     0.063 N 
ATOM     14  NH2 ARG A 124      25.059  28.435  12.876  1.00 21.25     0.063 N 
ENDBRANCH  10  11
ENDBRANCH   9  10
ENDBRANCH   8   9
ENDBRANCH   7   8
END_RES ARG A 124
BEGIN_RES ASN A 133
REMARK  2 active torsions:
REMARK  status: ('A' for Active; 'I' for Inactive)
REMARK    9  A    between atoms: CA   and  CB  
REMARK   10  A    between atoms: CB   and  CG  
ROOT
ATOM     15  CA  ASN A 133      31.225  30.257  11.749  1.00 18.15     0.196 C 
ENDROOT
BRANCH  15  16
ATOM     16  CB  ASN A 133      30.092  31.240  11.460  1.00 18.27     0.126 C 
BRANCH  16  17
ATOM     17  CG  ASN A 133      28.756  30.578  11.318  1.00 18.94     0.276 C 
ATOM     18  OD1 ASN A 133      28.438  29.999  10.278  1.00 18.09    -0.269 OA
ATOM     19  ND2 ASN A 133      27.950  30.660  12.377  1.00 18.93    -0.107 N 
ENDBRANCH  16  17
ENDBRANCH  15  16
END_RES ASN A 133
BEGIN_RES LYS A 131
REMARK  4 active torsions:
REMARK  status: ('A' for Active; 'I' for Inactive)
REMARK   11  A    between atoms: CA   and  CB  
REMARK   12  A    between atoms: CB   and  CG  
REMARK   13  A    between atoms: CG   and  CD  
REMARK   14  A    between atoms: CD   and  CE  
ROOT
ATOM     20  CA  LYS A 131      29.867  25.555  16.977  1.00 20.52     0.186 C 
ENDROOT
BRANCH  20  21
ATOM     21  CB  LYS A 131      28.345  25.722  17.026  1.00 20.94     0.034 C 
BRANCH  21  22
ATOM     22  CG  LYS A 131      27.600  24.409  16.837  1.00 22.96     0.005 C 
BRANCH  22  23
ATOM     23  CD  LYS A 131      26.769  24.052  18.038  1.00 24.33     0.041 C 
BRANCH  23  24
ATOM     24  CE  LYS A 131      25.402  23.553  17.580  1.00 26.91     0.338 C 
ATOM     25  NZ  LYS A 131      24.676  24.622  16.854  1.00 27.40     0.618 N 
ENDBRANCH  23  24
ENDBRANCH  22  23
ENDBRANCH  21  22
ENDBRANCH  20  21
END_RES LYS A 131
