REMARK VINA RESULT:    -5.087      5.096      9.148
REMARK INTER + INTRA:         -16.757
REMARK INTER:                  -8.805
REMARK INTRA:                  -7.952
REMARK UNBOUND:                -7.952
REMARK SMILES CC(=O)N[C@@H]1[C@@H](O)C[C@](O)(C(=O)O)O[C@H]1C(O)[C@H](O)CNC(=O)OCc1cn(-c2cccc(Cl)c2)nn1
REMARK SMILES IDX 20 1 18 2 16 3 15 4 9 5 8 6 14 7 6 8 5 9 10 10 11 12 12 13
REMARK SMILES IDX 13 14 7 16 4 18 2 19 1 21 3 22 17 23 19 25 21 27 22 28 23 30
REMARK SMILES IDX 24 31 25 32 26 33 27 34 37 35 28 36 36 37 29 38 30 39 35 40
REMARK SMILES IDX 31 41 33 42 32 43 34 44
REMARK H PARENT 10 11 13 15 7 17 4 20 17 24 19 26 21 29
REMARK Flexibility Score: inf
ROOT
ATOM      1  C   UNL     1      31.481  38.089  11.341  1.00  0.00     0.154 C 
ENDROOT
BRANCH   1   2
ATOM      2  C   UNL     1      31.209  37.278  12.560  1.00  0.00     0.165 C 
BRANCH   2   3
ATOM      3  C   UNL     1      29.759  37.014  12.851  1.00  0.00     0.176 C 
BRANCH   3   4
ATOM      4  C   UNL     1      29.510  35.878  13.785  1.00  0.00     0.178 C 
ATOM      5  C   UNL     1      30.445  33.871  14.489  1.00  0.00     0.269 C 
ATOM      6  C   UNL     1      29.353  33.980  15.542  1.00  0.00     0.112 C 
ATOM      7  O   UNL     1      30.624  35.060  13.812  1.00  0.00    -0.332 OA
ATOM      8  C   UNL     1      28.063  34.252  14.842  1.00  0.00     0.145 C 
ATOM      9  C   UNL     1      28.271  35.092  13.556  1.00  0.00     0.142 C 
BRANCH   5  10
ATOM     10  O   UNL     1      30.058  32.835  13.642  1.00  0.00    -0.357 OA
ATOM     11  H   UNL     1      30.504  32.902  12.781  1.00  0.00     0.214 HD
ENDBRANCH   5  10
BRANCH   5  12
ATOM     12  C   UNL     1      31.732  33.497  15.115  1.00  0.00     0.364 C 
ATOM     13  O   UNL     1      31.755  32.806  16.146  1.00  0.00    -0.246 OA
BRANCH  12  14
ATOM     14  O   UNL     1      32.946  33.904  14.569  1.00  0.00    -0.477 OA
ATOM     15  H   UNL     1      33.025  33.893  13.562  1.00  0.00     0.296 HD
ENDBRANCH  12  14
ENDBRANCH   5  12
BRANCH   8  16
ATOM     16  O   UNL     1      27.527  33.027  14.428  1.00  0.00    -0.391 OA
ATOM     17  H   UNL     1      26.545  33.007  14.607  1.00  0.00     0.211 HD
ENDBRANCH   8  16
BRANCH   9  18
ATOM     18  N   UNL     1      27.101  35.980  13.520  1.00  0.00    -0.348 N 
ATOM     19  C   UNL     1      26.104  35.939  12.540  1.00  0.00     0.217 C 
ATOM     20  H   UNL     1      27.041  36.678  14.294  1.00  0.00     0.163 HD
ATOM     21  C   UNL     1      24.951  36.876  12.570  1.00  0.00     0.114 C 
ATOM     22  O   UNL     1      26.158  35.108  11.610  1.00  0.00    -0.275 OA
ENDBRANCH   9  18
ENDBRANCH   3   4
BRANCH   3  23
ATOM     23  O   UNL     1      29.140  38.141  13.398  1.00  0.00    -0.388 OA
ATOM     24  H   UNL     1      28.203  37.936  13.636  1.00  0.00     0.211 HD
ENDBRANCH   3  23
ENDBRANCH   2   3
BRANCH   2  25
ATOM     25  O   UNL     1      31.775  37.974  13.661  1.00  0.00    -0.388 OA
ATOM     26  H   UNL     1      31.031  38.503  14.052  1.00  0.00     0.211 HD
ENDBRANCH   2  25
ENDBRANCH   1   2
BRANCH   1  27
ATOM     27  N   UNL     1      30.315  38.655  10.704  1.00  0.00    -0.319 N 
ATOM     28  C   UNL     1      30.205  38.611   9.260  1.00  0.00     0.407 C 
ATOM     29  H   UNL     1      29.513  39.100  11.198  1.00  0.00     0.167 HD
ATOM     30  O   UNL     1      31.135  38.080   8.603  1.00  0.00    -0.225 OA
BRANCH  28  31
ATOM     31  O   UNL     1      29.124  39.131   8.602  1.00  0.00    -0.443 OA
BRANCH  31  32
ATOM     32  C   UNL     1      28.620  38.525   7.439  1.00  0.00     0.294 C 
BRANCH  32  33
ATOM     33  C   UNL     1      27.117  38.499   7.471  1.00  0.00     0.121 A 
ATOM     34  C   UNL     1      26.299  37.489   7.958  1.00  0.00     0.144 A 
ATOM     35  N   UNL     1      26.273  39.450   7.034  1.00  0.00    -0.131 NA
ATOM     36  N   UNL     1      25.016  37.856   7.802  1.00  0.00    -0.220 N 
ATOM     37  N   UNL     1      25.020  39.051   7.238  1.00  0.00    -0.062 NA
BRANCH  36  38
ATOM     38  C   UNL     1      23.832  37.149   8.151  1.00  0.00     0.068 A 
ATOM     39  C   UNL     1      22.710  37.207   7.347  1.00  0.00     0.028 A 
ATOM     40  C   UNL     1      23.742  36.377   9.291  1.00  0.00     0.049 A 
ATOM     41  C   UNL     1      21.551  36.522   7.676  1.00  0.00     0.004 A 
ATOM     42  C   UNL     1      22.594  35.690   9.630  1.00  0.00     0.043 A 
ATOM     43  C   UNL     1      21.478  35.755   8.822  1.00  0.00     0.020 A 
ATOM     44  Cl  UNL     1      22.518  34.712  11.101  1.00  0.00    -0.084 Cl
ENDBRANCH  36  38
ENDBRANCH  32  33
ENDBRANCH  31  32
ENDBRANCH  28  31
ENDBRANCH   1  27
TORSDOF 15
BEGIN_RES LYS A 135
REMARK  4 active torsions:
REMARK  status: ('A' for Active; 'I' for Inactive)
REMARK    1  A    between atoms: CA   and  CB  
REMARK    2  A    between atoms: CB   and  CG  
REMARK    3  A    between atoms: CG   and  CD  
REMARK    4  A    between atoms: CD   and  CE  
ROOT
ATOM      1  CA  LYS A 135      33.193  34.663   9.290  1.00 25.02     0.186 C 
ENDROOT
BRANCH   1   2
ATOM      2  CB  LYS A 135      32.060  35.360  10.034  1.00 26.63     0.034 C 
BRANCH   2   3
ATOM      3  CG  LYS A 135      30.706  34.750   9.778  1.00 29.45     0.005 C 
BRANCH   3   4
ATOM      4  CD  LYS A 135      30.483  34.545   8.288  1.00 32.00     0.041 C 
BRANCH   4   5
ATOM      5  CE  LYS A 135      29.049  34.867   7.914  1.00 34.25     0.338 C 
ATOM      6  NZ  LYS A 135      28.091  34.214   8.850  1.00 35.99     0.618 N 
ENDBRANCH   4   5
ENDBRANCH   3   4
ENDBRANCH   2   3
ENDBRANCH   1   2
END_RES LYS A 135
BEGIN_RES ARG A 124
REMARK  4 active torsions:
REMARK  status: ('A' for Active; 'I' for Inactive)
REMARK    5  A    between atoms: CA   and  CB  
REMARK    6  A    between atoms: CB   and  CG  
REMARK    7  A    between atoms: CG   and  CD  
REMARK    8  A    between atoms: CD   and  NE  
REMARK       I    between atoms: NE   and  CZ  
ROOT
ATOM      7  CA  ARG A 124      31.045  26.515   9.594  1.00 17.84     0.186 C 
ENDROOT
BRANCH   7   8
ATOM      8  CB  ARG A 124      29.529  26.705   9.647  1.00 16.18     0.036 C 
BRANCH   8   9
ATOM      9  CG  ARG A 124      28.914  26.863  11.084  1.00 16.22     0.029 C 
BRANCH   9  10
ATOM     10  CD  ARG A 124      27.572  26.115  11.248  1.00 15.09     0.145 C 
BRANCH  10  11
ATOM     11  NE  ARG A 124      26.408  27.008  11.437  1.00 16.98    -0.083 NA
ATOM     12  CZ  ARG A 124      26.004  27.492  12.606  1.00 18.21     0.782 C 
ATOM     13  NH1 ARG A 124      26.650  27.209  13.731  1.00 21.11     0.063 N 
ATOM     14  NH2 ARG A 124      24.953  28.295  12.661  1.00 21.25     0.063 N 
ENDBRANCH  10  11
ENDBRANCH   9  10
ENDBRANCH   8   9
ENDBRANCH   7   8
END_RES ARG A 124
BEGIN_RES ASN A 133
REMARK  2 active torsions:
REMARK  status: ('A' for Active; 'I' for Inactive)
REMARK    9  A    between atoms: CA   and  CB  
REMARK   10  A    between atoms: CB   and  CG  
ROOT
ATOM     15  CA  ASN A 133      31.225  30.257  11.749  1.00 18.15     0.196 C 
ENDROOT
BRANCH  15  16
ATOM     16  CB  ASN A 133      30.092  31.240  11.460  1.00 18.27     0.126 C 
BRANCH  16  17
ATOM     17  CG  ASN A 133      28.732  30.621  11.557  1.00 18.94     0.276 C 
ATOM     18  OD1 ASN A 133      28.014  30.808  12.540  1.00 18.09    -0.269 OA
ATOM     19  ND2 ASN A 133      28.361  29.865  10.524  1.00 18.93    -0.107 N 
ENDBRANCH  16  17
ENDBRANCH  15  16
END_RES ASN A 133
BEGIN_RES LYS A 131
REMARK  4 active torsions:
REMARK  status: ('A' for Active; 'I' for Inactive)
REMARK   11  A    between atoms: CA   and  CB  
REMARK   12  A    between atoms: CB   and  CG  
REMARK   13  A    between atoms: CG   and  CD  
REMARK   14  A    between atoms: CD   and  CE  
ROOT
ATOM     20  CA  LYS A 131      29.867  25.555  16.977  1.00 20.52     0.186 C 
ENDROOT
BRANCH  20  21
ATOM     21  CB  LYS A 131      28.345  25.722  17.026  1.00 20.94     0.034 C 
BRANCH  21  22
ATOM     22  CG  LYS A 131      27.599  24.425  16.752  1.00 22.96     0.005 C 
BRANCH  22  23
ATOM     23  CD  LYS A 131      26.867  23.925  17.966  1.00 24.33     0.041 C 
BRANCH  23  24
ATOM     24  CE  LYS A 131      25.595  23.204  17.532  1.00 26.91     0.338 C 
ATOM     25  NZ  LYS A 131      24.631  24.163  16.942  1.00 27.40     0.618 N 
ENDBRANCH  23  24
ENDBRANCH  22  23
ENDBRANCH  21  22
ENDBRANCH  20  21
END_RES LYS A 131
