REMARK VINA RESULT:    -5.658      1.726      2.199
REMARK INTER + INTRA:         -20.429
REMARK INTER:                 -11.499
REMARK INTRA:                  -8.930
REMARK UNBOUND:                -8.816
REMARK SMILES CC(=O)N[C@@H]1[C@@H](O)C[C@](O)(C(=O)O)O[C@H]1C(O)[C@H](O)CNC(=O)OCc1cn(C[C@@H](C(=O)O)C(c2ccccc2)c2ccccc2)nn1
REMARK SMILES IDX 21 1 22 2 23 3 20 5 18 6 16 7 15 8 9 9 8 10 14 11 6 12 5 13
REMARK SMILES IDX 10 14 11 16 12 17 13 18 7 20 4 22 2 23 1 25 3 26 17 27 19 29
REMARK SMILES IDX 24 31 25 32 26 33 27 34 48 35 28 36 47 37 29 38 30 39 31 40
REMARK SMILES IDX 32 41 33 42 34 44 35 45 36 46 40 47 37 48 39 49 38 50 41 51
REMARK SMILES IDX 42 52 46 53 43 54 45 55 44 56
REMARK H PARENT 21 4 10 15 13 19 7 21 4 24 17 28 19 30 33 43
REMARK Flexibility Score: inf
ROOT
ATOM      1  N   UNL     1      28.659  31.317  15.626  1.00  0.00    -0.319 N 
ATOM      2  C   UNL     1      27.295  31.334  15.952  1.00  0.00     0.407 C 
ATOM      3  O   UNL     1      26.957  31.107  17.140  1.00  0.00    -0.225 OA
ATOM      4  H   UNL     1      28.991  31.498  14.666  1.00  0.00     0.167 HD
ENDROOT
BRANCH   1   5
ATOM      5  C   UNL     1      29.680  31.038  16.657  1.00  0.00     0.154 C 
BRANCH   5   6
ATOM      6  C   UNL     1      30.298  32.347  17.050  1.00  0.00     0.165 C 
BRANCH   6   7
ATOM      7  C   UNL     1      31.372  32.874  16.164  1.00  0.00     0.176 C 
BRANCH   7   8
ATOM      8  C   UNL     1      31.065  34.208  15.504  1.00  0.00     0.178 C 
ATOM      9  C   UNL     1      31.357  35.129  13.372  1.00  0.00     0.269 C 
ATOM     10  C   UNL     1      31.927  36.392  14.005  1.00  0.00     0.112 C 
ATOM     11  O   UNL     1      31.581  34.049  14.197  1.00  0.00    -0.332 OA
ATOM     12  C   UNL     1      32.744  36.016  15.232  1.00  0.00     0.145 C 
ATOM     13  C   UNL     1      31.748  35.328  16.206  1.00  0.00     0.142 C 
BRANCH   9  14
ATOM     14  O   UNL     1      32.142  34.872  12.215  1.00  0.00    -0.357 OA
ATOM     15  H   UNL     1      33.050  34.701  12.547  1.00  0.00     0.214 HD
ENDBRANCH   9  14
BRANCH   9  16
ATOM     16  C   UNL     1      29.966  35.292  12.922  1.00  0.00     0.364 C 
ATOM     17  O   UNL     1      29.371  36.375  13.093  1.00  0.00    -0.246 OA
BRANCH  16  18
ATOM     18  O   UNL     1      29.312  34.247  12.309  1.00  0.00    -0.477 OA
ATOM     19  H   UNL     1      29.053  34.233  11.326  1.00  0.00     0.296 HD
ENDBRANCH  16  18
ENDBRANCH   9  16
BRANCH  12  20
ATOM     20  O   UNL     1      33.718  35.097  14.950  1.00  0.00    -0.391 OA
ATOM     21  H   UNL     1      33.458  34.435  14.248  1.00  0.00     0.211 HD
ENDBRANCH  12  20
BRANCH  13  22
ATOM     22  N   UNL     1      30.850  36.350  16.721  1.00  0.00    -0.348 N 
ATOM     23  C   UNL     1      30.407  36.277  18.055  1.00  0.00     0.217 C 
ATOM     24  H   UNL     1      30.521  37.142  16.127  1.00  0.00     0.163 HD
ATOM     25  C   UNL     1      29.473  37.351  18.550  1.00  0.00     0.114 C 
ATOM     26  O   UNL     1      30.729  35.385  18.874  1.00  0.00    -0.275 OA
ENDBRANCH  13  22
ENDBRANCH   7   8
BRANCH   7  27
ATOM     27  O   UNL     1      31.479  31.950  15.042  1.00  0.00    -0.388 OA
ATOM     28  H   UNL     1      30.984  31.162  15.389  1.00  0.00     0.211 HD
ENDBRANCH   7  27
ENDBRANCH   6   7
BRANCH   6  29
ATOM     29  O   UNL     1      30.539  32.438  18.405  1.00  0.00    -0.388 OA
ATOM     30  H   UNL     1      30.105  31.711  18.927  1.00  0.00     0.211 HD
ENDBRANCH   6  29
ENDBRANCH   5   6
ENDBRANCH   1   5
BRANCH   2  31
ATOM     31  O   UNL     1      26.285  31.587  15.031  1.00  0.00    -0.443 OA
BRANCH  31  32
ATOM     32  C   UNL     1      25.339  32.606  15.309  1.00  0.00     0.294 C 
BRANCH  32  33
ATOM     33  C   UNL     1      25.443  33.671  14.277  1.00  0.00     0.120 A 
ATOM     34  C   UNL     1      24.509  34.587  13.850  1.00  0.00     0.138 A 
ATOM     35  N   UNL     1      26.536  33.930  13.544  1.00  0.00    -0.132 NA
ATOM     36  N   UNL     1      25.027  35.371  12.890  1.00  0.00    -0.251 N 
ATOM     37  N   UNL     1      26.281  34.940  12.724  1.00  0.00    -0.067 NA
BRANCH  36  38
ATOM     38  C   UNL     1      24.394  36.478  12.154  1.00  0.00     0.162 C 
BRANCH  38  39
ATOM     39  C   UNL     1      24.380  36.105  10.700  1.00  0.00     0.132 C 
BRANCH  39  40
ATOM     40  C   UNL     1      23.005  35.762  10.219  1.00  0.00     0.309 C 
ATOM     41  O   UNL     1      21.979  36.201  10.842  1.00  0.00    -0.252 OA
BRANCH  40  42
ATOM     42  O   UNL     1      22.738  34.982   9.115  1.00  0.00    -0.481 OA
ATOM     43  H   UNL     1      21.958  34.312   9.095  1.00  0.00     0.296 HD
ENDBRANCH  40  42
ENDBRANCH  39  40
BRANCH  39  44
ATOM     44  C   UNL     1      25.082  37.036   9.778  1.00  0.00     0.065 C 
BRANCH  44  45
ATOM     45  C   UNL     1      26.008  36.387   8.825  1.00  0.00    -0.040 A 
ATOM     46  C   UNL     1      26.522  35.161   9.079  1.00  0.00     0.004 A 
ATOM     47  C   UNL     1      26.366  37.045   7.660  1.00  0.00     0.004 A 
ATOM     48  C   UNL     1      27.407  34.582   8.160  1.00  0.00     0.000 A 
ATOM     49  C   UNL     1      27.234  36.494   6.743  1.00  0.00     0.000 A 
ATOM     50  C   UNL     1      27.756  35.246   7.005  1.00  0.00     0.000 A 
ENDBRANCH  44  45
BRANCH  44  51
ATOM     51  C   UNL     1      25.712  38.209  10.432  1.00  0.00    -0.040 A 
ATOM     52  C   UNL     1      26.951  38.180  11.027  1.00  0.00     0.004 A 
ATOM     53  C   UNL     1      25.061  39.441  10.487  1.00  0.00     0.004 A 
ATOM     54  C   UNL     1      27.505  39.286  11.632  1.00  0.00     0.000 A 
ATOM     55  C   UNL     1      25.600  40.554  11.087  1.00  0.00     0.000 A 
ATOM     56  C   UNL     1      26.844  40.480  11.671  1.00  0.00     0.000 A 
ENDBRANCH  44  51
ENDBRANCH  39  44
ENDBRANCH  38  39
ENDBRANCH  36  38
ENDBRANCH  32  33
ENDBRANCH  31  32
ENDBRANCH   2  31
TORSDOF 21
BEGIN_RES LYS A 135
REMARK  4 active torsions:
REMARK  status: ('A' for Active; 'I' for Inactive)
REMARK    1  A    between atoms: CA   and  CB  
REMARK    2  A    between atoms: CB   and  CG  
REMARK    3  A    between atoms: CG   and  CD  
REMARK    4  A    between atoms: CD   and  CE  
ROOT
ATOM      1  CA  LYS A 135      33.193  34.663   9.290  1.00 25.02     0.186 C 
ENDROOT
BRANCH   1   2
ATOM      2  CB  LYS A 135      32.060  35.360  10.034  1.00 26.63     0.034 C 
BRANCH   2   3
ATOM      3  CG  LYS A 135      30.818  35.546   9.202  1.00 29.45     0.005 C 
BRANCH   3   4
ATOM      4  CD  LYS A 135      30.085  36.816   9.608  1.00 32.00     0.041 C 
BRANCH   4   5
ATOM      5  CE  LYS A 135      30.188  37.863   8.516  1.00 34.25     0.338 C 
ATOM      6  NZ  LYS A 135      31.416  38.689   8.680  1.00 35.99     0.618 N 
ENDBRANCH   4   5
ENDBRANCH   3   4
ENDBRANCH   2   3
ENDBRANCH   1   2
END_RES LYS A 135
BEGIN_RES ARG A 124
REMARK  4 active torsions:
REMARK  status: ('A' for Active; 'I' for Inactive)
REMARK    5  A    between atoms: CA   and  CB  
REMARK    6  A    between atoms: CB   and  CG  
REMARK    7  A    between atoms: CG   and  CD  
REMARK    8  A    between atoms: CD   and  NE  
REMARK       I    between atoms: NE   and  CZ  
ROOT
ATOM      7  CA  ARG A 124      31.045  26.515   9.594  1.00 17.84     0.186 C 
ENDROOT
BRANCH   7   8
ATOM      8  CB  ARG A 124      29.529  26.705   9.647  1.00 16.18     0.036 C 
BRANCH   8   9
ATOM      9  CG  ARG A 124      28.821  26.158  10.938  1.00 16.22     0.029 C 
BRANCH   9  10
ATOM     10  CD  ARG A 124      27.365  26.657  11.080  1.00 15.09     0.145 C 
BRANCH  10  11
ATOM     11  NE  ARG A 124      27.104  27.391  12.337  1.00 16.98    -0.083 NA
ATOM     12  CZ  ARG A 124      25.900  27.742  12.777  1.00 18.21     0.782 C 
ATOM     13  NH1 ARG A 124      24.801  27.434  12.098  1.00 21.11     0.063 N 
ATOM     14  NH2 ARG A 124      25.778  28.390  13.925  1.00 21.25     0.063 N 
ENDBRANCH  10  11
ENDBRANCH   9  10
ENDBRANCH   8   9
ENDBRANCH   7   8
END_RES ARG A 124
BEGIN_RES ASN A 133
REMARK  2 active torsions:
REMARK  status: ('A' for Active; 'I' for Inactive)
REMARK    9  A    between atoms: CA   and  CB  
REMARK   10  A    between atoms: CB   and  CG  
ROOT
ATOM     15  CA  ASN A 133      31.225  30.257  11.749  1.00 18.15     0.196 C 
ENDROOT
BRANCH  15  16
ATOM     16  CB  ASN A 133      30.092  31.240  11.460  1.00 18.27     0.126 C 
BRANCH  16  17
ATOM     17  CG  ASN A 133      28.754  30.580  11.334  1.00 18.94     0.276 C 
ATOM     18  OD1 ASN A 133      28.533  29.748  10.452  1.00 18.09    -0.269 OA
ATOM     19  ND2 ASN A 133      27.835  30.950  12.226  1.00 18.93    -0.107 N 
ENDBRANCH  16  17
ENDBRANCH  15  16
END_RES ASN A 133
BEGIN_RES LYS A 131
REMARK  4 active torsions:
REMARK  status: ('A' for Active; 'I' for Inactive)
REMARK   11  A    between atoms: CA   and  CB  
REMARK   12  A    between atoms: CB   and  CG  
REMARK   13  A    between atoms: CG   and  CD  
REMARK   14  A    between atoms: CD   and  CE  
ROOT
ATOM     20  CA  LYS A 131      29.867  25.555  16.977  1.00 20.52     0.186 C 
ENDROOT
BRANCH  20  21
ATOM     21  CB  LYS A 131      28.345  25.722  17.026  1.00 20.94     0.034 C 
BRANCH  21  22
ATOM     22  CG  LYS A 131      27.603  24.395  16.973  1.00 22.96     0.005 C 
BRANCH  22  23
ATOM     23  CD  LYS A 131      26.116  24.572  17.107  1.00 24.33     0.041 C 
BRANCH  23  24
ATOM     24  CE  LYS A 131      25.708  25.915  16.510  1.00 26.91     0.338 C 
ATOM     25  NZ  LYS A 131      24.233  26.003  16.391  1.00 27.40     0.618 N 
ENDBRANCH  23  24
ENDBRANCH  22  23
ENDBRANCH  21  22
ENDBRANCH  20  21
END_RES LYS A 131
