REMARK VINA RESULT:    -4.081      3.889      8.912
REMARK INTER + INTRA:         -19.273
REMARK INTER:                  -9.520
REMARK INTRA:                  -9.753
REMARK UNBOUND:                -9.705
REMARK SMILES CC(=O)N[C@@H]1[C@@H](O)C[C@](O)(C(=O)O)O[C@H]1C(O)[C@H](O)CNC(=O)OCc1cn(CCCCCCCCCCC(=O)O)nn1
REMARK SMILES IDX 29 1 28 2 26 3 27 4 43 5 42 6 25 7 24 8 22 9 21 10 23 12
REMARK SMILES IDX 20 13 18 14 16 15 15 16 9 17 8 18 14 19 6 20 5 21 10 22
REMARK SMILES IDX 11 24 12 25 13 26 7 28 4 30 2 31 1 33 3 34 17 35 19 37 30 39
REMARK SMILES IDX 31 40 32 41 33 42 34 43 35 44 36 45 37 46 38 47 39 48 40 49
REMARK SMILES IDX 41 50
REMARK H PARENT 21 11 10 23 13 27 7 29 4 32 17 36 19 38 41 51
REMARK Flexibility Score: inf
ROOT
ATOM      1  C   UNL     1      26.844  36.426  12.211  1.00  0.00     0.146 C 
ENDROOT
BRANCH   1   2
ATOM      2  N   UNL     1      26.497  36.832  10.876  1.00  0.00    -0.252 N 
ATOM      3  C   UNL     1      25.478  37.236   8.947  1.00  0.00     0.120 A 
ATOM      4  C   UNL     1      25.338  36.697  10.208  1.00  0.00     0.138 A 
ATOM      5  N   UNL     1      26.760  37.683   8.922  1.00  0.00    -0.132 NA
ATOM      6  N   UNL     1      27.366  37.447  10.058  1.00  0.00    -0.067 NA
BRANCH   3   7
ATOM      7  C   UNL     1      24.527  37.346   7.838  1.00  0.00     0.294 C 
BRANCH   7   8
ATOM      8  O   UNL     1      24.024  38.632   7.612  1.00  0.00    -0.443 OA
BRANCH   8   9
ATOM      9  C   UNL     1      24.824  39.765   7.553  1.00  0.00     0.407 C 
ATOM     10  N   UNL     1      25.119  40.527   8.708  1.00  0.00    -0.319 N 
ATOM     11  H   UNL     1      24.733  40.244   9.628  1.00  0.00     0.167 HD
ATOM     12  O   UNL     1      25.277  40.075   6.406  1.00  0.00    -0.225 OA
BRANCH  10  13
ATOM     13  C   UNL     1      25.946  41.681   8.595  1.00  0.00     0.154 C 
BRANCH  13  14
ATOM     14  C   UNL     1      27.253  41.578   9.342  1.00  0.00     0.165 C 
BRANCH  14  15
ATOM     15  C   UNL     1      28.421  41.349   8.425  1.00  0.00     0.176 C 
BRANCH  15  16
ATOM     16  C   UNL     1      29.346  40.340   9.115  1.00  0.00     0.178 C 
ATOM     17  C   UNL     1      31.177  40.312  10.537  1.00  0.00     0.269 C 
ATOM     18  C   UNL     1      32.118  39.876   9.437  1.00  0.00     0.112 C 
ATOM     19  O   UNL     1      30.156  41.037   9.949  1.00  0.00    -0.332 OA
ATOM     20  C   UNL     1      31.389  38.997   8.485  1.00  0.00     0.145 C 
ATOM     21  C   UNL     1      30.040  39.530   8.062  1.00  0.00     0.142 C 
BRANCH  17  22
ATOM     22  O   UNL     1      31.904  41.200  11.329  1.00  0.00    -0.357 OA
ATOM     23  H   UNL     1      31.690  42.110  10.971  1.00  0.00     0.214 HD
ENDBRANCH  17  22
BRANCH  17  24
ATOM     24  C   UNL     1      30.732  39.194  11.368  1.00  0.00     0.364 C 
ATOM     25  O   UNL     1      29.593  39.211  11.886  1.00  0.00    -0.246 OA
BRANCH  24  26
ATOM     26  O   UNL     1      31.515  38.078  11.630  1.00  0.00    -0.477 OA
ATOM     27  H   UNL     1      32.465  38.245  11.948  1.00  0.00     0.296 HD
ENDBRANCH  24  26
ENDBRANCH  17  24
BRANCH  20  28
ATOM     28  O   UNL     1      32.196  38.783   7.352  1.00  0.00    -0.391 OA
ATOM     29  H   UNL     1      32.881  38.101   7.547  1.00  0.00     0.211 HD
ENDBRANCH  20  28
BRANCH  21  30
ATOM     30  N   UNL     1      29.209  38.454   7.558  1.00  0.00    -0.348 N 
ATOM     31  C   UNL     1      29.115  38.218   6.161  1.00  0.00     0.217 C 
ATOM     32  H   UNL     1      28.661  37.827   8.223  1.00  0.00     0.163 HD
ATOM     33  C   UNL     1      28.234  37.085   5.711  1.00  0.00     0.114 C 
ATOM     34  O   UNL     1      29.740  38.926   5.330  1.00  0.00    -0.275 OA
ENDBRANCH  21  30
ENDBRANCH  15  16
BRANCH  15  35
ATOM     35  O   UNL     1      28.045  40.901   7.174  1.00  0.00    -0.388 OA
ATOM     36  H   UNL     1      27.941  39.936   7.085  1.00  0.00     0.211 HD
ENDBRANCH  15  35
ENDBRANCH  14  15
BRANCH  14  37
ATOM     37  O   UNL     1      27.120  40.479  10.205  1.00  0.00    -0.388 OA
ATOM     38  H   UNL     1      27.403  40.711  11.129  1.00  0.00     0.211 HD
ENDBRANCH  14  37
ENDBRANCH  13  14
ENDBRANCH  10  13
ENDBRANCH   8   9
ENDBRANCH   7   8
ENDBRANCH   3   7
ENDBRANCH   1   2
BRANCH   1  39
ATOM     39  C   UNL     1      28.286  36.032  12.347  1.00  0.00     0.024 C 
BRANCH  39  40
ATOM     40  C   UNL     1      28.521  34.557  12.334  1.00  0.00     0.002 C 
BRANCH  40  41
ATOM     41  C   UNL     1      29.878  34.159  12.852  1.00  0.00     0.000 C 
BRANCH  41  42
ATOM     42  C   UNL     1      30.391  35.050  13.937  1.00  0.00     0.000 C 
BRANCH  42  43
ATOM     43  C   UNL     1      31.862  35.203  14.001  1.00  0.00     0.000 C 
BRANCH  43  44
ATOM     44  C   UNL     1      32.578  34.290  14.911  1.00  0.00     0.000 C 
BRANCH  44  45
ATOM     45  C   UNL     1      31.879  33.256  15.674  1.00  0.00     0.001 C 
BRANCH  45  46
ATOM     46  C   UNL     1      31.324  33.372  17.007  1.00  0.00     0.012 C 
BRANCH  46  47
ATOM     47  C   UNL     1      29.896  33.014  17.263  1.00  0.00     0.122 C 
BRANCH  47  48
ATOM     48  C   UNL     1      29.489  31.786  16.487  1.00  0.00     0.303 C 
ATOM     49  O   UNL     1      28.706  31.875  15.539  1.00  0.00    -0.252 OA
BRANCH  48  50
ATOM     50  O   UNL     1      29.985  30.543  16.824  1.00  0.00    -0.481 OA
ATOM     51  H   UNL     1      30.992  30.378  16.714  1.00  0.00     0.296 HD
ENDBRANCH  48  50
ENDBRANCH  47  48
ENDBRANCH  46  47
ENDBRANCH  45  46
ENDBRANCH  44  45
ENDBRANCH  43  44
ENDBRANCH  42  43
ENDBRANCH  41  42
ENDBRANCH  40  41
ENDBRANCH  39  40
ENDBRANCH   1  39
TORSDOF 26
BEGIN_RES LYS A 135
REMARK  4 active torsions:
REMARK  status: ('A' for Active; 'I' for Inactive)
REMARK    1  A    between atoms: CA   and  CB  
REMARK    2  A    between atoms: CB   and  CG  
REMARK    3  A    between atoms: CG   and  CD  
REMARK    4  A    between atoms: CD   and  CE  
ROOT
ATOM      1  CA  LYS A 135      33.193  34.663   9.290  1.00 25.02     0.186 C 
ENDROOT
BRANCH   1   2
ATOM      2  CB  LYS A 135      32.060  35.360  10.034  1.00 26.63     0.034 C 
BRANCH   2   3
ATOM      3  CG  LYS A 135      30.828  35.573   9.193  1.00 29.45     0.005 C 
BRANCH   3   4
ATOM      4  CD  LYS A 135      30.074  34.266   9.004  1.00 32.00     0.041 C 
BRANCH   4   5
ATOM      5  CE  LYS A 135      28.766  34.506   8.274  1.00 34.25     0.338 C 
ATOM      6  NZ  LYS A 135      27.609  34.015   9.072  1.00 35.99     0.618 N 
ENDBRANCH   4   5
ENDBRANCH   3   4
ENDBRANCH   2   3
ENDBRANCH   1   2
END_RES LYS A 135
BEGIN_RES ARG A 124
REMARK  4 active torsions:
REMARK  status: ('A' for Active; 'I' for Inactive)
REMARK    5  A    between atoms: CA   and  CB  
REMARK    6  A    between atoms: CB   and  CG  
REMARK    7  A    between atoms: CG   and  CD  
REMARK    8  A    between atoms: CD   and  NE  
REMARK       I    between atoms: NE   and  CZ  
ROOT
ATOM      7  CA  ARG A 124      31.045  26.515   9.594  1.00 17.84     0.186 C 
ENDROOT
BRANCH   7   8
ATOM      8  CB  ARG A 124      29.529  26.705   9.647  1.00 16.18     0.036 C 
BRANCH   8   9
ATOM      9  CG  ARG A 124      28.755  25.724  10.598  1.00 16.22     0.029 C 
BRANCH   9  10
ATOM     10  CD  ARG A 124      28.422  26.355  11.969  1.00 15.09     0.145 C 
BRANCH  10  11
ATOM     11  NE  ARG A 124      27.038  26.867  12.073  1.00 16.98    -0.083 NA
ATOM     12  CZ  ARG A 124      26.585  27.639  13.054  1.00 18.21     0.782 C 
ATOM     13  NH1 ARG A 124      27.376  28.032  14.044  1.00 21.11     0.063 N 
ATOM     14  NH2 ARG A 124      25.326  28.051  13.043  1.00 21.25     0.063 N 
ENDBRANCH  10  11
ENDBRANCH   9  10
ENDBRANCH   8   9
ENDBRANCH   7   8
END_RES ARG A 124
BEGIN_RES ASN A 133
REMARK  2 active torsions:
REMARK  status: ('A' for Active; 'I' for Inactive)
REMARK    9  A    between atoms: CA   and  CB  
REMARK   10  A    between atoms: CB   and  CG  
ROOT
ATOM     15  CA  ASN A 133      31.225  30.257  11.749  1.00 18.15     0.196 C 
ENDROOT
BRANCH  15  16
ATOM     16  CB  ASN A 133      30.092  31.240  11.460  1.00 18.27     0.126 C 
BRANCH  16  17
ATOM     17  CG  ASN A 133      28.732  30.625  11.574  1.00 18.94     0.276 C 
ATOM     18  OD1 ASN A 133      27.923  31.014  12.419  1.00 18.09    -0.269 OA
ATOM     19  ND2 ASN A 133      28.462  29.643  10.714  1.00 18.93    -0.107 N 
ENDBRANCH  16  17
ENDBRANCH  15  16
END_RES ASN A 133
BEGIN_RES LYS A 131
REMARK  4 active torsions:
REMARK  status: ('A' for Active; 'I' for Inactive)
REMARK   11  A    between atoms: CA   and  CB  
REMARK   12  A    between atoms: CB   and  CG  
REMARK   13  A    between atoms: CG   and  CD  
REMARK   14  A    between atoms: CD   and  CE  
ROOT
ATOM     20  CA  LYS A 131      29.867  25.555  16.977  1.00 20.52     0.186 C 
ENDROOT
BRANCH  20  21
ATOM     21  CB  LYS A 131      28.345  25.722  17.026  1.00 20.94     0.034 C 
BRANCH  21  22
ATOM     22  CG  LYS A 131      27.599  24.433  16.718  1.00 22.96     0.005 C 
BRANCH  22  23
ATOM     23  CD  LYS A 131      26.897  23.882  17.928  1.00 24.33     0.041 C 
BRANCH  23  24
ATOM     24  CE  LYS A 131      25.412  23.713  17.622  1.00 26.91     0.338 C 
ATOM     25  NZ  LYS A 131      25.049  22.276  17.591  1.00 27.40     0.618 N 
ENDBRANCH  23  24
ENDBRANCH  22  23
ENDBRANCH  21  22
ENDBRANCH  20  21
END_RES LYS A 131
