REMARK VINA RESULT:    -5.823      8.605     13.715
REMARK INTER + INTRA:         -17.819
REMARK INTER:                  -7.882
REMARK INTRA:                  -9.937
REMARK UNBOUND:                -6.721
REMARK SMILES CC(=O)N[C@@H]1[C@@H](O)C[C@](O)(C(=O)O)O[C@H]1C(O)[C@H](O)CNC(=O)OCc1cn(CC(=O)NCc2cccs2)nn1
REMARK SMILES IDX 21 1 22 2 23 3 20 5 18 6 16 7 15 8 9 9 8 10 14 11 6 12 5 13
REMARK SMILES IDX 10 14 11 16 12 17 13 18 7 20 4 22 2 23 1 25 3 26 17 27 19 29
REMARK SMILES IDX 24 31 25 32 26 33 27 34 40 35 28 36 39 37 29 38 30 39 31 40
REMARK SMILES IDX 32 41 33 43 34 44 35 45 38 46 36 47 37 48
REMARK H PARENT 21 4 10 15 13 19 7 21 4 24 17 28 19 30 32 42
REMARK Flexibility Score: inf
ROOT
ATOM      1  N   UNL     1      27.909  31.580  15.660  1.00  0.00    -0.319 N 
ATOM      2  C   UNL     1      27.117  31.056  16.690  1.00  0.00     0.407 C 
ATOM      3  O   UNL     1      27.649  30.278  17.539  1.00  0.00    -0.225 OA
ATOM      4  H   UNL     1      27.429  32.228  14.963  1.00  0.00     0.167 HD
ENDROOT
BRANCH   1   5
ATOM      5  C   UNL     1      29.313  31.270  15.517  1.00  0.00     0.154 C 
BRANCH   5   6
ATOM      6  C   UNL     1      30.075  32.502  15.168  1.00  0.00     0.165 C 
BRANCH   6   7
ATOM      7  C   UNL     1      29.537  33.285  14.023  1.00  0.00     0.176 C 
BRANCH   7   8
ATOM      8  C   UNL     1      29.033  34.636  14.402  1.00  0.00     0.178 C 
ATOM      9  C   UNL     1      26.728  34.633  14.061  1.00  0.00     0.269 C 
ATOM     10  C   UNL     1      26.797  35.695  12.983  1.00  0.00     0.112 C 
ATOM     11  O   UNL     1      27.783  34.685  14.951  1.00  0.00    -0.332 OA
ATOM     12  C   UNL     1      28.075  35.480  12.223  1.00  0.00     0.145 C 
ATOM     13  C   UNL     1      29.206  35.545  13.197  1.00  0.00     0.142 C 
BRANCH   9  14
ATOM     14  O   UNL     1      26.640  33.407  13.411  1.00  0.00    -0.357 OA
ATOM     15  H   UNL     1      27.284  32.806  13.892  1.00  0.00     0.214 HD
ENDBRANCH   9  14
BRANCH   9  16
ATOM     16  C   UNL     1      25.480  34.885  14.810  1.00  0.00     0.364 C 
ATOM     17  O   UNL     1      25.517  35.637  15.833  1.00  0.00    -0.246 OA
BRANCH  16  18
ATOM     18  O   UNL     1      24.259  34.349  14.466  1.00  0.00    -0.477 OA
ATOM     19  H   UNL     1      24.057  33.359  14.683  1.00  0.00     0.296 HD
ENDBRANCH  16  18
ENDBRANCH   9  16
BRANCH  12  20
ATOM     20  O   UNL     1      27.979  34.247  11.582  1.00  0.00    -0.391 OA
ATOM     21  H   UNL     1      28.088  34.312  10.607  1.00  0.00     0.211 HD
ENDBRANCH  12  20
BRANCH  13  22
ATOM     22  N   UNL     1      29.306  36.906  13.682  1.00  0.00    -0.348 N 
ATOM     23  C   UNL     1      30.481  37.665  13.404  1.00  0.00     0.217 C 
ATOM     24  H   UNL     1      28.557  37.371  14.234  1.00  0.00     0.163 HD
ATOM     25  C   UNL     1      30.574  39.047  13.900  1.00  0.00     0.114 C 
ATOM     26  O   UNL     1      31.430  37.189  12.754  1.00  0.00    -0.275 OA
ENDBRANCH  13  22
ENDBRANCH   7   8
BRANCH   7  27
ATOM     27  O   UNL     1      30.637  33.497  13.149  1.00  0.00    -0.388 OA
ATOM     28  H   UNL     1      31.489  33.376  13.648  1.00  0.00     0.211 HD
ENDBRANCH   7  27
ENDBRANCH   6   7
BRANCH   6  29
ATOM     29  O   UNL     1      31.424  32.192  14.939  1.00  0.00    -0.388 OA
ATOM     30  H   UNL     1      31.508  31.228  15.061  1.00  0.00     0.211 HD
ENDBRANCH   6  29
ENDBRANCH   5   6
ENDBRANCH   1   5
BRANCH   2  31
ATOM     31  O   UNL     1      25.761  31.301  16.896  1.00  0.00    -0.443 OA
BRANCH  31  32
ATOM     32  C   UNL     1      24.810  30.371  16.368  1.00  0.00     0.294 C 
BRANCH  32  33
ATOM     33  C   UNL     1      24.278  30.859  15.105  1.00  0.00     0.120 A 
ATOM     34  C   UNL     1      22.932  30.963  14.798  1.00  0.00     0.138 A 
ATOM     35  N   UNL     1      24.930  31.280  14.001  1.00  0.00    -0.132 NA
ATOM     36  N   UNL     1      22.846  31.428  13.557  1.00  0.00    -0.243 N 
ATOM     37  N   UNL     1      24.080  31.625  13.063  1.00  0.00    -0.067 NA
BRANCH  36  38
ATOM     38  C   UNL     1      21.599  31.682  12.852  1.00  0.00     0.245 C 
BRANCH  38  39
ATOM     39  C   UNL     1      21.480  33.151  12.657  1.00  0.00     0.242 C 
ATOM     40  O   UNL     1      20.800  33.807  13.479  1.00  0.00    -0.273 OA
ATOM     41  N   UNL     1      22.101  33.837  11.588  1.00  0.00    -0.350 N 
ATOM     42  H   UNL     1      22.670  33.331  10.880  1.00  0.00     0.163 HD
BRANCH  41  43
ATOM     43  C   UNL     1      21.940  35.267  11.471  1.00  0.00     0.162 C 
BRANCH  43  44
ATOM     44  C   UNL     1      23.154  35.834  10.776  1.00  0.00     0.024 A 
ATOM     45  C   UNL     1      23.910  35.340   9.803  1.00  0.00     0.017 A 
ATOM     46  S   UNL     1      23.882  37.369  11.128  1.00  0.00    -0.147 S 
ATOM     47  C   UNL     1      24.959  36.032   9.336  1.00  0.00     0.012 A 
ATOM     48  C   UNL     1      25.205  37.273   9.917  1.00  0.00     0.065 A 
ENDBRANCH  43  44
ENDBRANCH  41  43
ENDBRANCH  38  39
ENDBRANCH  36  38
ENDBRANCH  32  33
ENDBRANCH  31  32
ENDBRANCH   2  31
TORSDOF 18
BEGIN_RES LYS A 135
REMARK  4 active torsions:
REMARK  status: ('A' for Active; 'I' for Inactive)
REMARK    1  A    between atoms: CA   and  CB  
REMARK    2  A    between atoms: CB   and  CG  
REMARK    3  A    between atoms: CG   and  CD  
REMARK    4  A    between atoms: CD   and  CE  
ROOT
ATOM      1  CA  LYS A 135      33.193  34.663   9.290  1.00 25.02     0.186 C 
ENDROOT
BRANCH   1   2
ATOM      2  CB  LYS A 135      32.060  35.360  10.034  1.00 26.63     0.034 C 
BRANCH   2   3
ATOM      3  CG  LYS A 135      30.691  34.864   9.648  1.00 29.45     0.005 C 
BRANCH   3   4
ATOM      4  CD  LYS A 135      30.630  34.558   8.159  1.00 32.00     0.041 C 
BRANCH   4   5
ATOM      5  CE  LYS A 135      29.387  35.168   7.540  1.00 34.25     0.338 C 
ATOM      6  NZ  LYS A 135      28.154  34.655   8.197  1.00 35.99     0.618 N 
ENDBRANCH   4   5
ENDBRANCH   3   4
ENDBRANCH   2   3
ENDBRANCH   1   2
END_RES LYS A 135
BEGIN_RES ARG A 124
REMARK  4 active torsions:
REMARK  status: ('A' for Active; 'I' for Inactive)
REMARK    5  A    between atoms: CA   and  CB  
REMARK    6  A    between atoms: CB   and  CG  
REMARK    7  A    between atoms: CG   and  CD  
REMARK    8  A    between atoms: CD   and  NE  
REMARK       I    between atoms: NE   and  CZ  
ROOT
ATOM      7  CA  ARG A 124      31.045  26.515   9.594  1.00 17.84     0.186 C 
ENDROOT
BRANCH   7   8
ATOM      8  CB  ARG A 124      29.529  26.705   9.647  1.00 16.18     0.036 C 
BRANCH   8   9
ATOM      9  CG  ARG A 124      28.916  26.876  11.083  1.00 16.22     0.029 C 
BRANCH   9  10
ATOM     10  CD  ARG A 124      27.623  26.053  11.285  1.00 15.09     0.145 C 
BRANCH  10  11
ATOM     11  NE  ARG A 124      26.404  26.879  11.428  1.00 16.98    -0.083 NA
ATOM     12  CZ  ARG A 124      25.966  27.395  12.572  1.00 18.21     0.782 C 
ATOM     13  NH1 ARG A 124      26.623  27.207  13.710  1.00 21.11     0.063 N 
ATOM     14  NH2 ARG A 124      24.866  28.131  12.586  1.00 21.25     0.063 N 
ENDBRANCH  10  11
ENDBRANCH   9  10
ENDBRANCH   8   9
ENDBRANCH   7   8
END_RES ARG A 124
BEGIN_RES ASN A 133
REMARK  2 active torsions:
REMARK  status: ('A' for Active; 'I' for Inactive)
REMARK    9  A    between atoms: CA   and  CB  
REMARK   10  A    between atoms: CB   and  CG  
ROOT
ATOM     15  CA  ASN A 133      31.225  30.257  11.749  1.00 18.15     0.196 C 
ENDROOT
BRANCH  15  16
ATOM     16  CB  ASN A 133      30.092  31.240  11.460  1.00 18.27     0.126 C 
BRANCH  16  17
ATOM     17  CG  ASN A 133      28.733  30.614  11.531  1.00 18.94     0.276 C 
ATOM     18  OD1 ASN A 133      27.987  30.816  12.490  1.00 18.09    -0.269 OA
ATOM     19  ND2 ASN A 133      28.396  29.837  10.502  1.00 18.93    -0.107 N 
ENDBRANCH  16  17
ENDBRANCH  15  16
END_RES ASN A 133
BEGIN_RES LYS A 131
REMARK  4 active torsions:
REMARK  status: ('A' for Active; 'I' for Inactive)
REMARK   11  A    between atoms: CA   and  CB  
REMARK   12  A    between atoms: CB   and  CG  
REMARK   13  A    between atoms: CG   and  CD  
REMARK   14  A    between atoms: CD   and  CE  
ROOT
ATOM     20  CA  LYS A 131      29.867  25.555  16.977  1.00 20.52     0.186 C 
ENDROOT
BRANCH  20  21
ATOM     21  CB  LYS A 131      28.345  25.722  17.026  1.00 20.94     0.034 C 
BRANCH  21  22
ATOM     22  CG  LYS A 131      27.600  24.407  16.852  1.00 22.96     0.005 C 
BRANCH  22  23
ATOM     23  CD  LYS A 131      26.141  24.533  17.193  1.00 24.33     0.041 C 
BRANCH  23  24
ATOM     24  CE  LYS A 131      25.872  23.864  18.537  1.00 26.91     0.338 C 
ATOM     25  NZ  LYS A 131      25.645  24.885  19.587  1.00 27.40     0.618 N 
ENDBRANCH  23  24
ENDBRANCH  22  23
ENDBRANCH  21  22
ENDBRANCH  20  21
END_RES LYS A 131
