REMARK VINA RESULT:    -6.040      2.419      3.914
REMARK INTER + INTRA:         -21.213
REMARK INTER:                 -10.626
REMARK INTRA:                 -10.586
REMARK UNBOUND:                -8.816
REMARK SMILES CC(=O)N[C@@H]1[C@@H](O)C[C@](O)(C(=O)O)O[C@H]1C(O)[C@H](O)CNC(=O)OCc1cn(C[C@@H](C(=O)O)C(c2ccccc2)c2ccccc2)nn1
REMARK SMILES IDX 21 1 22 2 23 3 20 5 18 6 16 7 15 8 9 9 8 10 14 11 6 12 5 13
REMARK SMILES IDX 10 14 11 16 12 17 13 18 7 20 4 22 2 23 1 25 3 26 17 27 19 29
REMARK SMILES IDX 24 31 25 32 26 33 27 34 48 35 28 36 47 37 29 38 30 39 31 40
REMARK SMILES IDX 32 41 33 42 34 44 35 45 36 46 40 47 37 48 39 49 38 50 41 51
REMARK SMILES IDX 42 52 46 53 43 54 45 55 44 56
REMARK H PARENT 21 4 10 15 13 19 7 21 4 24 17 28 19 30 33 43
REMARK Flexibility Score: inf
ROOT
ATOM      1  N   UNL     1      29.427  32.909  16.248  1.00  0.00    -0.319 N 
ATOM      2  C   UNL     1      28.736  31.826  16.812  1.00  0.00     0.407 C 
ATOM      3  O   UNL     1      29.282  31.182  17.741  1.00  0.00    -0.225 OA
ATOM      4  H   UNL     1      29.024  33.472  15.484  1.00  0.00     0.167 HD
ENDROOT
BRANCH   1   5
ATOM      5  C   UNL     1      30.770  33.286  16.735  1.00  0.00     0.154 C 
BRANCH   5   6
ATOM      6  C   UNL     1      31.721  33.166  15.580  1.00  0.00     0.165 C 
BRANCH   6   7
ATOM      7  C   UNL     1      31.837  34.349  14.684  1.00  0.00     0.176 C 
BRANCH   7   8
ATOM      8  C   UNL     1      31.237  35.633  15.232  1.00  0.00     0.178 C 
ATOM      9  C   UNL     1      29.122  36.636  15.213  1.00  0.00     0.269 C 
ATOM     10  C   UNL     1      29.761  37.957  14.808  1.00  0.00     0.112 C 
ATOM     11  O   UNL     1      29.899  35.585  14.776  1.00  0.00    -0.332 OA
ATOM     12  C   UNL     1      30.929  37.686  13.871  1.00  0.00     0.145 C 
ATOM     13  C   UNL     1      31.934  36.830  14.689  1.00  0.00     0.142 C 
BRANCH   9  14
ATOM     14  O   UNL     1      27.915  36.531  14.469  1.00  0.00    -0.357 OA
ATOM     15  H   UNL     1      28.034  35.748  13.887  1.00  0.00     0.214 HD
ENDBRANCH   9  14
BRANCH   9  16
ATOM     16  C   UNL     1      28.755  36.590  16.637  1.00  0.00     0.364 C 
ATOM     17  O   UNL     1      29.026  37.548  17.389  1.00  0.00    -0.246 OA
BRANCH  16  18
ATOM     18  O   UNL     1      28.110  35.487  17.149  1.00  0.00    -0.477 OA
ATOM     19  H   UNL     1      28.573  34.741  17.661  1.00  0.00     0.296 HD
ENDBRANCH  16  18
ENDBRANCH   9  16
BRANCH  12  20
ATOM     20  O   UNL     1      30.565  36.937  12.785  1.00  0.00    -0.391 OA
ATOM     21  H   UNL     1      31.235  36.948  12.044  1.00  0.00     0.211 HD
ENDBRANCH  12  20
BRANCH  13  22
ATOM     22  N   UNL     1      32.531  37.688  15.702  1.00  0.00    -0.348 N 
ATOM     23  C   UNL     1      33.677  37.252  16.394  1.00  0.00     0.217 C 
ATOM     24  H   UNL     1      32.132  38.624  15.933  1.00  0.00     0.163 HD
ATOM     25  C   UNL     1      34.261  38.167  17.439  1.00  0.00     0.114 C 
ATOM     26  O   UNL     1      34.257  36.157  16.210  1.00  0.00    -0.275 OA
ENDBRANCH  13  22
ENDBRANCH   7   8
BRANCH   7  27
ATOM     27  O   UNL     1      31.025  34.063  13.507  1.00  0.00    -0.388 OA
ATOM     28  H   UNL     1      30.168  33.781  13.925  1.00  0.00     0.211 HD
ENDBRANCH   7  27
ENDBRANCH   6   7
BRANCH   6  29
ATOM     29  O   UNL     1      31.647  31.941  14.953  1.00  0.00    -0.388 OA
ATOM     30  H   UNL     1      32.531  31.492  14.870  1.00  0.00     0.211 HD
ENDBRANCH   6  29
ENDBRANCH   5   6
ENDBRANCH   1   5
BRANCH   2  31
ATOM     31  O   UNL     1      27.473  31.418  16.400  1.00  0.00    -0.443 OA
BRANCH  31  32
ATOM     32  C   UNL     1      26.346  32.201  16.755  1.00  0.00     0.294 C 
BRANCH  32  33
ATOM     33  C   UNL     1      25.999  33.107  15.629  1.00  0.00     0.120 A 
ATOM     34  C   UNL     1      25.778  32.828  14.300  1.00  0.00     0.138 A 
ATOM     35  N   UNL     1      25.835  34.435  15.731  1.00  0.00    -0.132 NA
ATOM     36  N   UNL     1      25.490  33.955  13.626  1.00  0.00    -0.251 N 
ATOM     37  N   UNL     1      25.533  34.929  14.539  1.00  0.00    -0.067 NA
BRANCH  36  38
ATOM     38  C   UNL     1      25.184  34.128  12.197  1.00  0.00     0.162 C 
BRANCH  38  39
ATOM     39  C   UNL     1      26.172  35.110  11.638  1.00  0.00     0.132 C 
BRANCH  39  40
ATOM     40  C   UNL     1      27.520  34.497  11.428  1.00  0.00     0.309 C 
ATOM     41  O   UNL     1      27.719  33.705  10.444  1.00  0.00    -0.252 OA
BRANCH  40  42
ATOM     42  O   UNL     1      28.613  34.722  12.237  1.00  0.00    -0.481 OA
ATOM     43  H   UNL     1      28.585  34.559  13.252  1.00  0.00     0.296 HD
ENDBRANCH  40  42
ENDBRANCH  39  40
BRANCH  39  44
ATOM     44  C   UNL     1      25.722  35.894  10.458  1.00  0.00     0.065 C 
BRANCH  44  45
ATOM     45  C   UNL     1      26.409  37.191  10.273  1.00  0.00    -0.040 A 
ATOM     46  C   UNL     1      26.974  37.835  11.321  1.00  0.00     0.004 A 
ATOM     47  C   UNL     1      26.467  37.762   9.013  1.00  0.00     0.004 A 
ATOM     48  C   UNL     1      27.604  39.069  11.110  1.00  0.00     0.000 A 
ATOM     49  C   UNL     1      27.083  38.973   8.784  1.00  0.00     0.000 A 
ATOM     50  C   UNL     1      27.656  39.627   9.854  1.00  0.00     0.000 A 
ENDBRANCH  44  45
BRANCH  44  51
ATOM     51  C   UNL     1      24.251  36.037  10.325  1.00  0.00    -0.040 A 
ATOM     52  C   UNL     1      23.512  35.453   9.324  1.00  0.00     0.004 A 
ATOM     53  C   UNL     1      23.514  36.799  11.232  1.00  0.00     0.004 A 
ATOM     54  C   UNL     1      22.147  35.611   9.226  1.00  0.00     0.000 A 
ATOM     55  C   UNL     1      22.153  36.967  11.148  1.00  0.00     0.000 A 
ATOM     56  C   UNL     1      21.453  36.364  10.128  1.00  0.00     0.000 A 
ENDBRANCH  44  51
ENDBRANCH  39  44
ENDBRANCH  38  39
ENDBRANCH  36  38
ENDBRANCH  32  33
ENDBRANCH  31  32
ENDBRANCH   2  31
TORSDOF 21
BEGIN_RES LYS A 135
REMARK  4 active torsions:
REMARK  status: ('A' for Active; 'I' for Inactive)
REMARK    1  A    between atoms: CA   and  CB  
REMARK    2  A    between atoms: CB   and  CG  
REMARK    3  A    between atoms: CG   and  CD  
REMARK    4  A    between atoms: CD   and  CE  
ROOT
ATOM      1  CA  LYS A 135      33.193  34.663   9.290  1.00 25.02     0.186 C 
ENDROOT
BRANCH   1   2
ATOM      2  CB  LYS A 135      32.060  35.360  10.034  1.00 26.63     0.034 C 
BRANCH   2   3
ATOM      3  CG  LYS A 135      30.717  35.207   9.367  1.00 29.45     0.005 C 
BRANCH   3   4
ATOM      4  CD  LYS A 135      29.929  36.506   9.443  1.00 32.00     0.041 C 
BRANCH   4   5
ATOM      5  CE  LYS A 135      30.647  37.609   8.689  1.00 34.25     0.338 C 
ATOM      6  NZ  LYS A 135      31.078  38.696   9.610  1.00 35.99     0.618 N 
ENDBRANCH   4   5
ENDBRANCH   3   4
ENDBRANCH   2   3
ENDBRANCH   1   2
END_RES LYS A 135
BEGIN_RES ARG A 124
REMARK  4 active torsions:
REMARK  status: ('A' for Active; 'I' for Inactive)
REMARK    5  A    between atoms: CA   and  CB  
REMARK    6  A    between atoms: CB   and  CG  
REMARK    7  A    between atoms: CG   and  CD  
REMARK    8  A    between atoms: CD   and  NE  
REMARK       I    between atoms: NE   and  CZ  
ROOT
ATOM      7  CA  ARG A 124      31.045  26.515   9.594  1.00 17.84     0.186 C 
ENDROOT
BRANCH   7   8
ATOM      8  CB  ARG A 124      29.529  26.705   9.647  1.00 16.18     0.036 C 
BRANCH   8   9
ATOM      9  CG  ARG A 124      28.971  27.350  10.966  1.00 16.22     0.029 C 
BRANCH   9  10
ATOM     10  CD  ARG A 124      28.419  26.303  11.959  1.00 15.09     0.145 C 
BRANCH  10  11
ATOM     11  NE  ARG A 124      28.006  26.872  13.261  1.00 16.98    -0.083 NA
ATOM     12  CZ  ARG A 124      26.778  27.288  13.552  1.00 18.21     0.782 C 
ATOM     13  NH1 ARG A 124      25.793  27.208  12.666  1.00 21.11     0.063 N 
ATOM     14  NH2 ARG A 124      26.513  27.773  14.756  1.00 21.25     0.063 N 
ENDBRANCH  10  11
ENDBRANCH   9  10
ENDBRANCH   8   9
ENDBRANCH   7   8
END_RES ARG A 124
BEGIN_RES ASN A 133
REMARK  2 active torsions:
REMARK  status: ('A' for Active; 'I' for Inactive)
REMARK    9  A    between atoms: CA   and  CB  
REMARK   10  A    between atoms: CB   and  CG  
ROOT
ATOM     15  CA  ASN A 133      31.225  30.257  11.749  1.00 18.15     0.196 C 
ENDROOT
BRANCH  15  16
ATOM     16  CB  ASN A 133      30.092  31.240  11.460  1.00 18.27     0.126 C 
BRANCH  16  17
ATOM     17  CG  ASN A 133      29.035  31.253  12.520  1.00 18.94     0.276 C 
ATOM     18  OD1 ASN A 133      29.119  32.000  13.497  1.00 18.09    -0.269 OA
ATOM     19  ND2 ASN A 133      28.016  30.413  12.338  1.00 18.93    -0.107 N 
ENDBRANCH  16  17
ENDBRANCH  15  16
END_RES ASN A 133
BEGIN_RES LYS A 131
REMARK  4 active torsions:
REMARK  status: ('A' for Active; 'I' for Inactive)
REMARK   11  A    between atoms: CA   and  CB  
REMARK   12  A    between atoms: CB   and  CG  
REMARK   13  A    between atoms: CG   and  CD  
REMARK   14  A    between atoms: CD   and  CE  
ROOT
ATOM     20  CA  LYS A 131      29.867  25.555  16.977  1.00 20.52     0.186 C 
ENDROOT
BRANCH  20  21
ATOM     21  CB  LYS A 131      28.345  25.722  17.026  1.00 20.94     0.034 C 
BRANCH  21  22
ATOM     22  CG  LYS A 131      27.600  24.412  16.818  1.00 22.96     0.005 C 
BRANCH  22  23
ATOM     23  CD  LYS A 131      26.743  24.054  18.001  1.00 24.33     0.041 C 
BRANCH  23  24
ATOM     24  CE  LYS A 131      25.570  25.025  18.092  1.00 26.91     0.338 C 
ATOM     25  NZ  LYS A 131      24.847  25.087  16.799  1.00 27.40     0.618 N 
ENDBRANCH  23  24
ENDBRANCH  22  23
ENDBRANCH  21  22
ENDBRANCH  20  21
END_RES LYS A 131
