REMARK VINA RESULT:    -6.028      1.755      2.742
REMARK INTER + INTRA:         -18.211
REMARK INTER:                  -8.928
REMARK INTRA:                  -9.284
REMARK UNBOUND:                -6.721
REMARK SMILES CC(=O)N[C@@H]1[C@@H](O)C[C@](O)(C(=O)O)O[C@H]1C(O)[C@H](O)CNC(=O)OCc1cn(CC(=O)NCc2cccs2)nn1
REMARK SMILES IDX 21 1 22 2 23 3 20 5 18 6 16 7 15 8 9 9 8 10 14 11 6 12 5 13
REMARK SMILES IDX 10 14 11 16 12 17 13 18 7 20 4 22 2 23 1 25 3 26 17 27 19 29
REMARK SMILES IDX 24 31 25 32 26 33 27 34 40 35 28 36 39 37 29 38 30 39 31 40
REMARK SMILES IDX 32 41 33 43 34 44 35 45 38 46 36 47 37 48
REMARK H PARENT 21 4 10 15 13 19 7 21 4 24 17 28 19 30 32 42
REMARK Flexibility Score: inf
ROOT
ATOM      1  N   UNL     1      25.126  17.177  15.032  1.00  0.00    -0.319 N 
ATOM      2  C   UNL     1      24.298  16.066  14.835  1.00  0.00     0.407 C 
ATOM      3  O   UNL     1      24.634  14.951  15.344  1.00  0.00    -0.225 OA
ATOM      4  H   UNL     1      24.816  18.096  14.589  1.00  0.00     0.167 HD
ENDROOT
BRANCH   1   5
ATOM      5  C   UNL     1      26.355  17.115  15.790  1.00  0.00     0.154 C 
BRANCH   5   6
ATOM      6  C   UNL     1      26.479  18.317  16.663  1.00  0.00     0.165 C 
BRANCH   6   7
ATOM      7  C   UNL     1      25.383  19.314  16.538  1.00  0.00     0.176 C 
BRANCH   7   8
ATOM      8  C   UNL     1      24.318  19.170  17.571  1.00  0.00     0.178 C 
ATOM      9  C   UNL     1      22.302  18.859  16.446  1.00  0.00     0.269 C 
ATOM     10  C   UNL     1      21.707  20.150  16.972  1.00  0.00     0.112 C 
ATOM     11  O   UNL     1      23.283  18.334  17.263  1.00  0.00    -0.332 OA
ATOM     12  C   UNL     1      22.825  21.147  17.080  1.00  0.00     0.145 C 
ATOM     13  C   UNL     1      23.875  20.568  17.971  1.00  0.00     0.142 C 
BRANCH   9  14
ATOM     14  O   UNL     1      22.764  19.126  15.162  1.00  0.00    -0.357 OA
ATOM     15  H   UNL     1      22.885  18.226  14.734  1.00  0.00     0.214 HD
ENDBRANCH   9  14
BRANCH   9  16
ATOM     16  C   UNL     1      21.189  17.889  16.378  1.00  0.00     0.364 C 
ATOM     17  O   UNL     1      20.774  17.353  17.452  1.00  0.00    -0.246 OA
BRANCH  16  18
ATOM     18  O   UNL     1      20.564  17.523  15.207  1.00  0.00    -0.477 OA
ATOM     19  H   UNL     1      19.960  18.204  14.717  1.00  0.00     0.296 HD
ENDBRANCH  16  18
ENDBRANCH   9  16
BRANCH  12  20
ATOM     20  O   UNL     1      23.286  21.401  15.791  1.00  0.00    -0.391 OA
ATOM     21  H   UNL     1      23.022  20.707  15.145  1.00  0.00     0.211 HD
ENDBRANCH  12  20
BRANCH  13  22
ATOM     22  N   UNL     1      23.336  20.491  19.313  1.00  0.00    -0.348 N 
ATOM     23  C   UNL     1      23.937  21.257  20.355  1.00  0.00     0.217 C 
ATOM     24  H   UNL     1      22.520  19.898  19.567  1.00  0.00     0.163 HD
ATOM     25  C   UNL     1      23.383  21.176  21.716  1.00  0.00     0.114 C 
ATOM     26  O   UNL     1      24.920  21.993  20.144  1.00  0.00    -0.275 OA
ENDBRANCH  13  22
ENDBRANCH   7   8
BRANCH   7  27
ATOM     27  O   UNL     1      25.986  20.582  16.757  1.00  0.00    -0.388 OA
ATOM     28  H   UNL     1      25.829  21.167  15.967  1.00  0.00     0.211 HD
ENDBRANCH   7  27
ENDBRANCH   6   7
BRANCH   6  29
ATOM     29  O   UNL     1      27.717  18.943  16.455  1.00  0.00    -0.388 OA
ATOM     30  H   UNL     1      28.365  18.229  16.309  1.00  0.00     0.211 HD
ENDBRANCH   6  29
ENDBRANCH   5   6
ENDBRANCH   1   5
BRANCH   2  31
ATOM     31  O   UNL     1      23.105  16.040  14.118  1.00  0.00    -0.443 OA
BRANCH  31  32
ATOM     32  C   UNL     1      23.144  16.314  12.714  1.00  0.00     0.294 C 
BRANCH  32  33
ATOM     33  C   UNL     1      21.960  17.059  12.315  1.00  0.00     0.120 A 
ATOM     34  C   UNL     1      20.915  16.546  11.564  1.00  0.00     0.138 A 
ATOM     35  N   UNL     1      21.631  18.346  12.550  1.00  0.00    -0.132 NA
ATOM     36  N   UNL     1      20.035  17.526  11.391  1.00  0.00    -0.243 N 
ATOM     37  N   UNL     1      20.477  18.640  12.000  1.00  0.00    -0.067 NA
BRANCH  36  38
ATOM     38  C   UNL     1      18.789  17.399  10.652  1.00  0.00     0.245 C 
BRANCH  38  39
ATOM     39  C   UNL     1      18.143  18.739  10.621  1.00  0.00     0.242 C 
ATOM     40  O   UNL     1      17.076  18.899  11.256  1.00  0.00    -0.273 OA
ATOM     41  N   UNL     1      18.682  19.835   9.909  1.00  0.00    -0.350 N 
ATOM     42  H   UNL     1      19.564  19.744   9.366  1.00  0.00     0.163 HD
BRANCH  41  43
ATOM     43  C   UNL     1      17.997  21.105   9.933  1.00  0.00     0.162 C 
BRANCH  43  44
ATOM     44  C   UNL     1      17.241  21.270   8.637  1.00  0.00     0.024 A 
ATOM     45  C   UNL     1      17.517  20.850   7.408  1.00  0.00     0.017 A 
ATOM     46  S   UNL     1      15.735  22.112   8.458  1.00  0.00    -0.147 S 
ATOM     47  C   UNL     1      16.686  21.120   6.391  1.00  0.00     0.012 A 
ATOM     48  C   UNL     1      15.541  21.852   6.691  1.00  0.00     0.065 A 
ENDBRANCH  43  44
ENDBRANCH  41  43
ENDBRANCH  38  39
ENDBRANCH  36  38
ENDBRANCH  32  33
ENDBRANCH  31  32
ENDBRANCH   2  31
TORSDOF 18
BEGIN_RES LYS A 135
REMARK  4 active torsions:
REMARK  status: ('A' for Active; 'I' for Inactive)
REMARK    1  A    between atoms: CA   and  CB  
REMARK    2  A    between atoms: CB   and  CG  
REMARK    3  A    between atoms: CG   and  CD  
REMARK    4  A    between atoms: CD   and  CE  
ROOT
ATOM      1  CA  LYS A 135      33.193  34.663   9.290  1.00 25.02     0.186 C 
ENDROOT
BRANCH   1   2
ATOM      2  CB  LYS A 135      32.060  35.360  10.034  1.00 26.63     0.034 C 
BRANCH   2   3
ATOM      3  CG  LYS A 135      30.796  35.487   9.224  1.00 29.45     0.005 C 
BRANCH   3   4
ATOM      4  CD  LYS A 135      30.021  34.178   9.230  1.00 32.00     0.041 C 
BRANCH   4   5
ATOM      5  CE  LYS A 135      28.574  34.414   8.841  1.00 34.25     0.338 C 
ATOM      6  NZ  LYS A 135      27.656  33.571   9.656  1.00 35.99     0.618 N 
ENDBRANCH   4   5
ENDBRANCH   3   4
ENDBRANCH   2   3
ENDBRANCH   1   2
END_RES LYS A 135
BEGIN_RES ARG A 124
REMARK  4 active torsions:
REMARK  status: ('A' for Active; 'I' for Inactive)
REMARK    5  A    between atoms: CA   and  CB  
REMARK    6  A    between atoms: CB   and  CG  
REMARK    7  A    between atoms: CG   and  CD  
REMARK    8  A    between atoms: CD   and  NE  
REMARK       I    between atoms: NE   and  CZ  
ROOT
ATOM      7  CA  ARG A 124      31.045  26.515   9.594  1.00 17.84     0.186 C 
ENDROOT
BRANCH   7   8
ATOM      8  CB  ARG A 124      29.529  26.705   9.647  1.00 16.18     0.036 C 
BRANCH   8   9
ATOM      9  CG  ARG A 124      28.899  26.736  11.085  1.00 16.22     0.029 C 
BRANCH   9  10
ATOM     10  CD  ARG A 124      27.511  26.058  11.147  1.00 15.09     0.145 C 
BRANCH  10  11
ATOM     11  NE  ARG A 124      26.395  26.999  11.386  1.00 16.98    -0.083 NA
ATOM     12  CZ  ARG A 124      26.023  27.449  12.579  1.00 18.21     0.782 C 
ATOM     13  NH1 ARG A 124      26.661  27.083  13.685  1.00 21.11     0.063 N 
ATOM     14  NH2 ARG A 124      25.014  28.301  12.680  1.00 21.25     0.063 N 
ENDBRANCH  10  11
ENDBRANCH   9  10
ENDBRANCH   8   9
ENDBRANCH   7   8
END_RES ARG A 124
BEGIN_RES ASN A 133
REMARK  2 active torsions:
REMARK  status: ('A' for Active; 'I' for Inactive)
REMARK    9  A    between atoms: CA   and  CB  
REMARK   10  A    between atoms: CB   and  CG  
ROOT
ATOM     15  CA  ASN A 133      31.225  30.257  11.749  1.00 18.15     0.196 C 
ENDROOT
BRANCH  15  16
ATOM     16  CB  ASN A 133      30.092  31.240  11.460  1.00 18.27     0.126 C 
BRANCH  16  17
ATOM     17  CG  ASN A 133      28.732  30.620  11.555  1.00 18.94     0.276 C 
ATOM     18  OD1 ASN A 133      28.352  29.787  10.730  1.00 18.09    -0.269 OA
ATOM     19  ND2 ASN A 133      27.976  31.026  12.574  1.00 18.93    -0.107 N 
ENDBRANCH  16  17
ENDBRANCH  15  16
END_RES ASN A 133
BEGIN_RES LYS A 131
REMARK  4 active torsions:
REMARK  status: ('A' for Active; 'I' for Inactive)
REMARK   11  A    between atoms: CA   and  CB  
REMARK   12  A    between atoms: CB   and  CG  
REMARK   13  A    between atoms: CG   and  CD  
REMARK   14  A    between atoms: CD   and  CE  
ROOT
ATOM     20  CA  LYS A 131      29.867  25.555  16.977  1.00 20.52     0.186 C 
ENDROOT
BRANCH  20  21
ATOM     21  CB  LYS A 131      28.345  25.722  17.026  1.00 20.94     0.034 C 
BRANCH  21  22
ATOM     22  CG  LYS A 131      27.600  24.408  16.846  1.00 22.96     0.005 C 
BRANCH  22  23
ATOM     23  CD  LYS A 131      26.521  24.223  17.877  1.00 24.33     0.041 C 
BRANCH  23  24
ATOM     24  CE  LYS A 131      25.167  24.116  17.182  1.00 26.91     0.338 C 
ATOM     25  NZ  LYS A 131      24.085  24.581  18.081  1.00 27.40     0.618 N 
ENDBRANCH  23  24
ENDBRANCH  22  23
ENDBRANCH  21  22
ENDBRANCH  20  21
END_RES LYS A 131
