REMARK VINA RESULT:    -5.198      6.105     11.987
REMARK INTER + INTRA:         -17.195
REMARK INTER:                  -8.702
REMARK INTRA:                  -8.492
REMARK UNBOUND:                -8.198
REMARK SMILES CC(=O)N[C@@H]1[C@@H](O)C[C@](O)(C(=O)O)O[C@H]1C(O)[C@H](O)CNC(=O)OCc1cn(C23CC4CC(CC(C4)C2)C3)nn1
REMARK SMILES IDX 20 1 18 2 16 3 15 4 9 5 8 6 14 7 6 8 5 9 10 10 11 12 12 13
REMARK SMILES IDX 13 14 7 16 4 18 2 19 1 21 3 22 17 23 19 25 21 27 22 28 23 30
REMARK SMILES IDX 24 31 25 32 26 33 27 34 40 35 28 36 39 37 29 38 38 39 37 40
REMARK SMILES IDX 30 41 33 42 35 43 31 44 32 45 34 46 36 47
REMARK H PARENT 10 11 13 15 7 17 4 20 17 24 19 26 21 29
REMARK Flexibility Score: inf
ROOT
ATOM      1  C   UNL     1      28.173  43.451  10.240  1.00  0.00     0.154 C 
ENDROOT
BRANCH   1   2
ATOM      2  C   UNL     1      28.777  42.895   8.953  1.00  0.00     0.165 C 
BRANCH   2   3
ATOM      3  C   UNL     1      27.854  42.012   8.195  1.00  0.00     0.176 C 
BRANCH   3   4
ATOM      4  C   UNL     1      28.440  40.915   7.394  1.00  0.00     0.178 C 
ATOM      5  C   UNL     1      30.342  40.286   6.206  1.00  0.00     0.269 C 
ATOM      6  C   UNL     1      29.648  39.069   5.706  1.00  0.00     0.112 C 
ATOM      7  O   UNL     1      29.544  41.311   6.647  1.00  0.00    -0.332 OA
ATOM      8  C   UNL     1      28.286  38.806   6.242  1.00  0.00     0.145 C 
ATOM      9  C   UNL     1      27.531  40.131   6.518  1.00  0.00     0.142 C 
BRANCH   5  10
ATOM     10  O   UNL     1      31.036  40.822   5.081  1.00  0.00    -0.357 OA
ATOM     11  H   UNL     1      30.499  41.607   4.800  1.00  0.00     0.214 HD
ENDBRANCH   5  10
BRANCH   5  12
ATOM     12  C   UNL     1      31.405  39.919   7.170  1.00  0.00     0.364 C 
ATOM     13  O   UNL     1      32.039  40.836   7.740  1.00  0.00    -0.246 OA
BRANCH  12  14
ATOM     14  O   UNL     1      31.732  38.612   7.469  1.00  0.00    -0.477 OA
ATOM     15  H   UNL     1      32.734  38.395   7.512  1.00  0.00     0.296 HD
ENDBRANCH  12  14
ENDBRANCH   5  12
BRANCH   8  16
ATOM     16  O   UNL     1      27.507  38.067   5.381  1.00  0.00    -0.391 OA
ATOM     17  H   UNL     1      27.915  38.081   4.475  1.00  0.00     0.211 HD
ENDBRANCH   8  16
BRANCH   9  18
ATOM     18  N   UNL     1      26.297  39.723   7.124  1.00  0.00    -0.348 N 
ATOM     19  C   UNL     1      25.072  40.200   6.604  1.00  0.00     0.217 C 
ATOM     20  H   UNL     1      26.313  39.086   7.933  1.00  0.00     0.163 HD
ATOM     21  C   UNL     1      23.755  39.823   7.179  1.00  0.00     0.114 C 
ATOM     22  O   UNL     1      25.084  40.979   5.609  1.00  0.00    -0.275 OA
ENDBRANCH   9  18
ENDBRANCH   3   4
BRANCH   3  23
ATOM     23  O   UNL     1      26.978  42.772   7.421  1.00  0.00    -0.388 OA
ATOM     24  H   UNL     1      27.294  43.702   7.315  1.00  0.00     0.211 HD
ENDBRANCH   3  23
ENDBRANCH   2   3
BRANCH   2  25
ATOM     25  O   UNL     1      29.823  42.039   9.417  1.00  0.00    -0.388 OA
ATOM     26  H   UNL     1      29.713  41.889  10.391  1.00  0.00     0.211 HD
ENDBRANCH   2  25
ENDBRANCH   1   2
BRANCH   1  27
ATOM     27  N   UNL     1      28.369  42.486  11.329  1.00  0.00    -0.319 N 
ATOM     28  C   UNL     1      27.297  41.736  11.858  1.00  0.00     0.407 C 
ATOM     29  H   UNL     1      29.314  42.354  11.715  1.00  0.00     0.167 HD
ATOM     30  O   UNL     1      26.157  41.952  11.330  1.00  0.00    -0.225 OA
BRANCH  28  31
ATOM     31  O   UNL     1      27.442  40.815  12.884  1.00  0.00    -0.443 OA
BRANCH  31  32
ATOM     32  C   UNL     1      28.649  40.129  13.090  1.00  0.00     0.294 C 
BRANCH  32  33
ATOM     33  C   UNL     1      28.941  39.326  11.878  1.00  0.00     0.120 A 
ATOM     34  C   UNL     1      28.409  38.103  11.519  1.00  0.00     0.138 A 
ATOM     35  N   UNL     1      29.785  39.662  10.908  1.00  0.00    -0.132 NA
ATOM     36  N   UNL     1      28.948  37.739  10.345  1.00  0.00    -0.246 N 
ATOM     37  N   UNL     1      29.794  38.714   9.985  1.00  0.00    -0.066 NA
BRANCH  36  38
ATOM     38  C   UNL     1      28.649  36.528   9.639  1.00  0.00     0.065 C 
ATOM     39  C   UNL     1      27.368  36.688   8.863  1.00  0.00     0.034 C 
ATOM     40  C   UNL     1      28.409  35.379  10.627  1.00  0.00     0.034 C 
ATOM     41  C   UNL     1      29.820  36.185   8.738  1.00  0.00     0.034 C 
ATOM     42  C   UNL     1      27.077  35.432   8.076  1.00  0.00    -0.008 C 
ATOM     43  C   UNL     1      28.132  34.125   9.852  1.00  0.00    -0.008 C 
ATOM     44  C   UNL     1      29.501  34.930   7.976  1.00  0.00    -0.008 C 
ATOM     45  C   UNL     1      28.260  35.181   7.163  1.00  0.00     0.007 C 
ATOM     46  C   UNL     1      26.921  34.229   8.959  1.00  0.00     0.007 C 
ATOM     47  C   UNL     1      29.319  33.811   8.969  1.00  0.00     0.007 C 
ENDBRANCH  36  38
ENDBRANCH  32  33
ENDBRANCH  31  32
ENDBRANCH  28  31
ENDBRANCH   1  27
TORSDOF 15
BEGIN_RES LYS A 135
REMARK  4 active torsions:
REMARK  status: ('A' for Active; 'I' for Inactive)
REMARK    1  A    between atoms: CA   and  CB  
REMARK    2  A    between atoms: CB   and  CG  
REMARK    3  A    between atoms: CG   and  CD  
REMARK    4  A    between atoms: CD   and  CE  
ROOT
ATOM      1  CA  LYS A 135      33.193  34.663   9.290  1.00 25.02     0.186 C 
ENDROOT
BRANCH   1   2
ATOM      2  CB  LYS A 135      32.060  35.360  10.034  1.00 26.63     0.034 C 
BRANCH   2   3
ATOM      3  CG  LYS A 135      32.531  36.440  10.973  1.00 29.45     0.005 C 
BRANCH   3   4
ATOM      4  CD  LYS A 135      31.734  36.411  12.268  1.00 32.00     0.041 C 
BRANCH   4   5
ATOM      5  CE  LYS A 135      31.344  34.988  12.621  1.00 34.25     0.338 C 
ATOM      6  NZ  LYS A 135      30.297  34.965  13.680  1.00 35.99     0.618 N 
ENDBRANCH   4   5
ENDBRANCH   3   4
ENDBRANCH   2   3
ENDBRANCH   1   2
END_RES LYS A 135
BEGIN_RES ARG A 124
REMARK  4 active torsions:
REMARK  status: ('A' for Active; 'I' for Inactive)
REMARK    5  A    between atoms: CA   and  CB  
REMARK    6  A    between atoms: CB   and  CG  
REMARK    7  A    between atoms: CG   and  CD  
REMARK    8  A    between atoms: CD   and  NE  
REMARK       I    between atoms: NE   and  CZ  
ROOT
ATOM      7  CA  ARG A 124      31.045  26.515   9.594  1.00 17.84     0.186 C 
ENDROOT
BRANCH   7   8
ATOM      8  CB  ARG A 124      29.529  26.705   9.647  1.00 16.18     0.036 C 
BRANCH   8   9
ATOM      9  CG  ARG A 124      28.979  27.417  10.934  1.00 16.22     0.029 C 
BRANCH   9  10
ATOM     10  CD  ARG A 124      28.421  26.422  11.978  1.00 15.09     0.145 C 
BRANCH  10  11
ATOM     11  NE  ARG A 124      28.069  27.047  13.272  1.00 16.98    -0.083 NA
ATOM     12  CZ  ARG A 124      26.850  27.448  13.615  1.00 18.21     0.782 C 
ATOM     13  NH1 ARG A 124      25.817  27.299  12.793  1.00 21.11     0.063 N 
ATOM     14  NH2 ARG A 124      26.642  27.987  14.806  1.00 21.25     0.063 N 
ENDBRANCH  10  11
ENDBRANCH   9  10
ENDBRANCH   8   9
ENDBRANCH   7   8
END_RES ARG A 124
BEGIN_RES ASN A 133
REMARK  2 active torsions:
REMARK  status: ('A' for Active; 'I' for Inactive)
REMARK    9  A    between atoms: CA   and  CB  
REMARK   10  A    between atoms: CB   and  CG  
ROOT
ATOM     15  CA  ASN A 133      31.225  30.257  11.749  1.00 18.15     0.196 C 
ENDROOT
BRANCH  15  16
ATOM     16  CB  ASN A 133      30.092  31.240  11.460  1.00 18.27     0.126 C 
BRANCH  16  17
ATOM     17  CG  ASN A 133      28.997  31.197  12.480  1.00 18.94     0.276 C 
ATOM     18  OD1 ASN A 133      29.109  31.775  13.563  1.00 18.09    -0.269 OA
ATOM     19  ND2 ASN A 133      27.912  30.500  12.141  1.00 18.93    -0.107 N 
ENDBRANCH  16  17
ENDBRANCH  15  16
END_RES ASN A 133
BEGIN_RES LYS A 131
REMARK  4 active torsions:
REMARK  status: ('A' for Active; 'I' for Inactive)
REMARK   11  A    between atoms: CA   and  CB  
REMARK   12  A    between atoms: CB   and  CG  
REMARK   13  A    between atoms: CG   and  CD  
REMARK   14  A    between atoms: CD   and  CE  
ROOT
ATOM     20  CA  LYS A 131      29.867  25.555  16.977  1.00 20.52     0.186 C 
ENDROOT
BRANCH  20  21
ATOM     21  CB  LYS A 131      28.345  25.722  17.026  1.00 20.94     0.034 C 
BRANCH  21  22
ATOM     22  CG  LYS A 131      27.600  24.416  16.797  1.00 22.96     0.005 C 
BRANCH  22  23
ATOM     23  CD  LYS A 131      26.820  23.989  18.009  1.00 24.33     0.041 C 
BRANCH  23  24
ATOM     24  CE  LYS A 131      25.491  23.380  17.571  1.00 26.91     0.338 C 
ATOM     25  NZ  LYS A 131      24.660  24.393  16.879  1.00 27.40     0.618 N 
ENDBRANCH  23  24
ENDBRANCH  22  23
ENDBRANCH  21  22
ENDBRANCH  20  21
END_RES LYS A 131
