REMARK VINA RESULT:    -7.034      4.587      8.574
REMARK INTER + INTRA:         -20.996
REMARK INTER:                 -11.908
REMARK INTRA:                  -9.088
REMARK UNBOUND:                -7.795
REMARK SMILES CC(=O)N[C@@H]1[C@@H](O)C[C@](O)(C(=O)O)O[C@H]1C(O)[C@H](O)CNC(=O)OCc1cn(-c2ccc(-c3c4ccc(=O)cc-4oc4cc(O)ccc34)c(C(=O)[O-])c2)nn1
REMARK SMILES IDX 21 1 22 2 23 3 20 5 18 6 16 7 15 8 9 9 8 10 14 11 6 12 5 13
REMARK SMILES IDX 10 14 11 16 12 17 13 18 7 20 4 22 2 23 1 25 3 26 17 27 19 29
REMARK SMILES IDX 24 31 25 32 26 33 27 34 55 35 28 36 54 37 29 38 53 39 30 40
REMARK SMILES IDX 49 41 31 42 32 43 50 44 51 45 52 46 33 47 48 48 34 49 47 50
REMARK SMILES IDX 42 51 40 52 35 53 46 54 43 55 41 56 39 57 36 58 44 59 37 60
REMARK SMILES IDX 38 61 45 62
REMARK H PARENT 21 4 10 15 13 19 7 21 4 24 17 28 19 30 45 63
REMARK Flexibility Score: inf
ROOT
ATOM      1  N   UNL     1      39.602  34.943  19.392  1.00  0.00    -0.319 N 
ATOM      2  C   UNL     1      39.155  34.136  20.449  1.00  0.00     0.407 C 
ATOM      3  O   UNL     1      39.427  32.931  20.478  1.00  0.00    -0.225 OA
ATOM      4  H   UNL     1      39.320  35.973  19.460  1.00  0.00     0.167 HD
ENDROOT
BRANCH   1   5
ATOM      5  C   UNL     1      40.383  34.530  18.259  1.00  0.00     0.154 C 
BRANCH   5   6
ATOM      6  C   UNL     1      39.630  33.925  17.129  1.00  0.00     0.165 C 
BRANCH   6   7
ATOM      7  C   UNL     1      38.550  34.771  16.537  1.00  0.00     0.176 C 
BRANCH   7   8
ATOM      8  C   UNL     1      38.608  34.818  15.027  1.00  0.00     0.178 C 
ATOM      9  C   UNL     1      38.398  33.589  13.120  1.00  0.00     0.269 C 
ATOM     10  C   UNL     1      39.229  34.666  12.410  1.00  0.00     0.112 C 
ATOM     11  O   UNL     1      38.608  33.562  14.484  1.00  0.00    -0.332 OA
ATOM     12  C   UNL     1      40.379  34.981  13.364  1.00  0.00     0.145 C 
ATOM     13  C   UNL     1      39.815  35.667  14.585  1.00  0.00     0.142 C 
BRANCH   9  14
ATOM     14  O   UNL     1      38.829  32.314  12.663  1.00  0.00    -0.357 OA
ATOM     15  H   UNL     1      39.347  32.445  11.826  1.00  0.00     0.214 HD
ENDBRANCH   9  14
BRANCH   9  16
ATOM     16  C   UNL     1      36.980  33.718  12.730  1.00  0.00     0.364 C 
ATOM     17  O   UNL     1      36.662  33.739  11.527  1.00  0.00    -0.246 OA
BRANCH  16  18
ATOM     18  O   UNL     1      35.931  33.820  13.640  1.00  0.00    -0.477 OA
ATOM     19  H   UNL     1      36.101  33.821  14.642  1.00  0.00     0.296 HD
ENDBRANCH  16  18
ENDBRANCH   9  16
BRANCH  12  20
ATOM     20  O   UNL     1      40.890  33.753  13.782  1.00  0.00    -0.391 OA
ATOM     21  H   UNL     1      40.212  33.040  13.781  1.00  0.00     0.211 HD
ENDBRANCH  12  20
BRANCH  13  22
ATOM     22  N   UNL     1      39.334  36.985  14.324  1.00  0.00    -0.348 N 
ATOM     23  C   UNL     1      39.784  38.164  14.984  1.00  0.00     0.217 C 
ATOM     24  H   UNL     1      38.585  37.080  13.582  1.00  0.00     0.163 HD
ATOM     25  C   UNL     1      39.186  39.450  14.600  1.00  0.00     0.114 C 
ATOM     26  O   UNL     1      40.670  38.030  15.860  1.00  0.00    -0.275 OA
ENDBRANCH  13  22
ENDBRANCH   7   8
BRANCH   7  27
ATOM     27  O   UNL     1      38.547  36.076  17.010  1.00  0.00    -0.388 OA
ATOM     28  H   UNL     1      37.970  36.099  17.818  1.00  0.00     0.211 HD
ENDBRANCH   7  27
ENDBRANCH   6   7
BRANCH   6  29
ATOM     29  O   UNL     1      39.124  32.644  17.436  1.00  0.00    -0.388 OA
ATOM     30  H   UNL     1      38.594  32.314  16.673  1.00  0.00     0.211 HD
ENDBRANCH   6  29
ENDBRANCH   5   6
ENDBRANCH   1   5
BRANCH   2  31
ATOM     31  O   UNL     1      38.391  34.642  21.505  1.00  0.00    -0.443 OA
BRANCH  31  32
ATOM     32  C   UNL     1      38.109  36.032  21.606  1.00  0.00     0.294 C 
BRANCH  32  33
ATOM     33  C   UNL     1      37.261  36.389  20.440  1.00  0.00     0.121 A 
ATOM     34  C   UNL     1      36.026  35.839  20.161  1.00  0.00     0.144 A 
ATOM     35  N   UNL     1      37.481  37.270  19.450  1.00  0.00    -0.131 NA
ATOM     36  N   UNL     1      35.562  36.403  19.030  1.00  0.00    -0.220 N 
ATOM     37  N   UNL     1      36.463  37.277  18.606  1.00  0.00    -0.062 NA
BRANCH  36  38
ATOM     38  C   UNL     1      34.306  36.075  18.433  1.00  0.00     0.067 A 
ATOM     39  C   UNL     1      34.127  35.991  17.070  1.00  0.00     0.039 A 
ATOM     40  C   UNL     1      33.195  35.820  19.225  1.00  0.00     0.029 A 
ATOM     41  C   UNL     1      32.894  35.667  16.508  1.00  0.00     0.007 A 
ATOM     42  C   UNL     1      31.972  35.499  18.673  1.00  0.00     0.012 A 
ATOM     43  C   UNL     1      31.801  35.416  17.309  1.00  0.00    -0.008 A 
BRANCH  41  44
ATOM     44  C   UNL     1      32.738  35.586  15.061  1.00  0.00     0.072 C 
ATOM     45  O   UNL     1      32.373  36.579  14.395  1.00  0.00    -0.545 OA
ATOM     46  O   UNL     1      33.004  34.381  14.434  1.00  0.00    -0.545 OA
ENDBRANCH  41  44
BRANCH  43  47
ATOM     47  C   UNL     1      30.523  35.077  16.700  1.00  0.00     0.004 A 
ATOM     48  C   UNL     1      30.177  33.764  16.436  1.00  0.00     0.026 A 
ATOM     49  C   UNL     1      29.589  36.036  16.351  1.00  0.00     0.026 A 
ATOM     50  C   UNL     1      31.047  32.731  16.750  1.00  0.00     0.016 A 
ATOM     51  C   UNL     1      28.948  33.472  15.854  1.00  0.00     0.139 A 
ATOM     52  C   UNL     1      28.312  35.678  15.741  1.00  0.00     0.139 A 
ATOM     53  C   UNL     1      29.877  37.363  16.591  1.00  0.00     0.016 A 
ATOM     54  C   UNL     1      30.712  31.415  16.490  1.00  0.00     0.047 A 
ATOM     55  C   UNL     1      28.614  32.160  15.596  1.00  0.00     0.093 A 
ATOM     56  O   UNL     1      28.074  34.410  15.531  1.00  0.00    -0.456 OA
ATOM     57  C   UNL     1      27.386  36.633  15.397  1.00  0.00     0.099 A 
ATOM     58  C   UNL     1      28.927  38.302  16.234  1.00  0.00     0.053 A 
ATOM     59  C   UNL     1      29.493  31.141  15.913  1.00  0.00     0.119 A 
ATOM     60  C   UNL     1      27.710  37.947  15.651  1.00  0.00     0.182 A 
ATOM     61  O   UNL     1      26.942  38.903  15.378  1.00  0.00    -0.290 OA
BRANCH  59  62
ATOM     62  O   UNL     1      29.126  29.824  15.639  1.00  0.00    -0.508 OA
ATOM     63  H   UNL     1      29.251  29.083  16.287  1.00  0.00     0.293 HD
ENDBRANCH  59  62
ENDBRANCH  43  47
ENDBRANCH  36  38
ENDBRANCH  32  33
ENDBRANCH  31  32
ENDBRANCH   2  31
TORSDOF 18
BEGIN_RES LYS A 135
REMARK  4 active torsions:
REMARK  status: ('A' for Active; 'I' for Inactive)
REMARK    1  A    between atoms: CA   and  CB  
REMARK    2  A    between atoms: CB   and  CG  
REMARK    3  A    between atoms: CG   and  CD  
REMARK    4  A    between atoms: CD   and  CE  
ROOT
ATOM      1  CA  LYS A 135      33.193  34.663   9.290  1.00 25.02     0.186 C 
ENDROOT
BRANCH   1   2
ATOM      2  CB  LYS A 135      32.060  35.360  10.034  1.00 26.63     0.034 C 
BRANCH   2   3
ATOM      3  CG  LYS A 135      30.694  35.049   9.479  1.00 29.45     0.005 C 
BRANCH   3   4
ATOM      4  CD  LYS A 135      29.608  35.480  10.453  1.00 32.00     0.041 C 
BRANCH   4   5
ATOM      5  CE  LYS A 135      30.189  35.695  11.838  1.00 34.25     0.338 C 
ATOM      6  NZ  LYS A 135      29.903  34.533  12.725  1.00 35.99     0.618 N 
ENDBRANCH   4   5
ENDBRANCH   3   4
ENDBRANCH   2   3
ENDBRANCH   1   2
END_RES LYS A 135
BEGIN_RES ARG A 124
REMARK  4 active torsions:
REMARK  status: ('A' for Active; 'I' for Inactive)
REMARK    5  A    between atoms: CA   and  CB  
REMARK    6  A    between atoms: CB   and  CG  
REMARK    7  A    between atoms: CG   and  CD  
REMARK    8  A    between atoms: CD   and  NE  
REMARK       I    between atoms: NE   and  CZ  
ROOT
ATOM      7  CA  ARG A 124      31.045  26.515   9.594  1.00 17.84     0.186 C 
ENDROOT
BRANCH   7   8
ATOM      8  CB  ARG A 124      29.529  26.705   9.647  1.00 16.18     0.036 C 
BRANCH   8   9
ATOM      9  CG  ARG A 124      28.910  26.828  11.085  1.00 16.22     0.029 C 
BRANCH   9  10
ATOM     10  CD  ARG A 124      27.543  26.118  11.213  1.00 15.09     0.145 C 
BRANCH  10  11
ATOM     11  NE  ARG A 124      26.410  27.040  11.446  1.00 16.98    -0.083 NA
ATOM     12  CZ  ARG A 124      26.039  27.504  12.634  1.00 18.21     0.782 C 
ATOM     13  NH1 ARG A 124      26.694  27.171  13.740  1.00 21.11     0.063 N 
ATOM     14  NH2 ARG A 124      25.013  28.336  12.728  1.00 21.25     0.063 N 
ENDBRANCH  10  11
ENDBRANCH   9  10
ENDBRANCH   8   9
ENDBRANCH   7   8
END_RES ARG A 124
BEGIN_RES ASN A 133
REMARK  2 active torsions:
REMARK  status: ('A' for Active; 'I' for Inactive)
REMARK    9  A    between atoms: CA   and  CB  
REMARK   10  A    between atoms: CB   and  CG  
ROOT
ATOM     15  CA  ASN A 133      31.225  30.257  11.749  1.00 18.15     0.196 C 
ENDROOT
BRANCH  15  16
ATOM     16  CB  ASN A 133      30.092  31.240  11.460  1.00 18.27     0.126 C 
BRANCH  16  17
ATOM     17  CG  ASN A 133      28.745  30.589  11.401  1.00 18.94     0.276 C 
ATOM     18  OD1 ASN A 133      28.416  29.887  10.444  1.00 18.09    -0.269 OA
ATOM     19  ND2 ASN A 133      27.940  30.821  12.438  1.00 18.93    -0.107 N 
ENDBRANCH  16  17
ENDBRANCH  15  16
END_RES ASN A 133
BEGIN_RES LYS A 131
REMARK  4 active torsions:
REMARK  status: ('A' for Active; 'I' for Inactive)
REMARK   11  A    between atoms: CA   and  CB  
REMARK   12  A    between atoms: CB   and  CG  
REMARK   13  A    between atoms: CG   and  CD  
REMARK   14  A    between atoms: CD   and  CE  
ROOT
ATOM     20  CA  LYS A 131      29.867  25.555  16.977  1.00 20.52     0.186 C 
ENDROOT
BRANCH  20  21
ATOM     21  CB  LYS A 131      28.345  25.722  17.026  1.00 20.94     0.034 C 
BRANCH  21  22
ATOM     22  CG  LYS A 131      27.600  24.415  16.804  1.00 22.96     0.005 C 
BRANCH  22  23
ATOM     23  CD  LYS A 131      26.667  24.095  17.939  1.00 24.33     0.041 C 
BRANCH  23  24
ATOM     24  CE  LYS A 131      25.273  23.811  17.389  1.00 26.91     0.338 C 
ATOM     25  NZ  LYS A 131      24.556  25.079  17.116  1.00 27.40     0.618 N 
ENDBRANCH  23  24
ENDBRANCH  22  23
ENDBRANCH  21  22
ENDBRANCH  20  21
END_RES LYS A 131
