REMARK VINA RESULT:    -5.453      5.290      8.707
REMARK INTER + INTRA:         -17.389
REMARK INTER:                 -11.091
REMARK INTRA:                  -6.298
REMARK UNBOUND:                -7.952
REMARK SMILES CC(=O)N[C@@H]1[C@@H](O)C[C@](O)(C(=O)O)O[C@H]1C(O)[C@H](O)CNC(=O)OCc1cn(-c2cccc(Cl)c2)nn1
REMARK SMILES IDX 20 1 18 2 16 3 15 4 9 5 8 6 14 7 6 8 5 9 10 10 11 12 12 13
REMARK SMILES IDX 13 14 7 16 4 18 2 19 1 21 3 22 17 23 19 25 21 27 22 28 23 30
REMARK SMILES IDX 24 31 25 32 26 33 27 34 37 35 28 36 36 37 29 38 30 39 35 40
REMARK SMILES IDX 31 41 33 42 32 43 34 44
REMARK H PARENT 10 11 13 15 7 17 4 20 17 24 19 26 21 29
REMARK Flexibility Score: inf
ROOT
ATOM      1  C   UNL     1      23.616  37.341   9.416  1.00  0.00     0.154 C 
ENDROOT
BRANCH   1   2
ATOM      2  C   UNL     1      24.586  37.396   8.287  1.00  0.00     0.165 C 
BRANCH   2   3
ATOM      3  C   UNL     1      26.013  37.666   8.674  1.00  0.00     0.176 C 
BRANCH   3   4
ATOM      4  C   UNL     1      27.028  37.069   7.758  1.00  0.00     0.178 C 
ATOM      5  C   UNL     1      29.049  35.924   7.789  1.00  0.00     0.269 C 
ATOM      6  C   UNL     1      28.732  35.759   6.311  1.00  0.00     0.112 C 
ATOM      7  O   UNL     1      27.951  36.361   8.502  1.00  0.00    -0.332 OA
ATOM      8  C   UNL     1      28.392  37.104   5.759  1.00  0.00     0.145 C 
ATOM      9  C   UNL     1      27.698  38.001   6.816  1.00  0.00     0.142 C 
BRANCH   5  10
ATOM     10  O   UNL     1      30.112  36.822   7.855  1.00  0.00    -0.357 OA
ATOM     11  H   UNL     1      29.820  37.725   7.646  1.00  0.00     0.214 HD
ENDBRANCH   5  10
BRANCH   5  12
ATOM     12  C   UNL     1      29.496  34.639   8.369  1.00  0.00     0.364 C 
ATOM     13  O   UNL     1      30.680  34.279   8.267  1.00  0.00    -0.246 OA
BRANCH  12  14
ATOM     14  O   UNL     1      28.610  33.802   9.041  1.00  0.00    -0.477 OA
ATOM     15  H   UNL     1      27.681  34.161   9.216  1.00  0.00     0.296 HD
ENDBRANCH  12  14
ENDBRANCH   5  12
BRANCH   8  16
ATOM     16  O   UNL     1      29.587  37.749   5.421  1.00  0.00    -0.391 OA
ATOM     17  H   UNL     1      29.924  38.272   6.202  1.00  0.00     0.211 HD
ENDBRANCH   8  16
BRANCH   9  18
ATOM     18  N   UNL     1      26.700  38.753   6.041  1.00  0.00    -0.348 N 
ATOM     19  C   UNL     1      26.710  40.140   5.870  1.00  0.00     0.217 C 
ATOM     20  H   UNL     1      25.944  38.180   5.604  1.00  0.00     0.163 HD
ATOM     21  C   UNL     1      25.661  40.829   5.075  1.00  0.00     0.114 C 
ATOM     22  O   UNL     1      27.608  40.839   6.383  1.00  0.00    -0.275 OA
ENDBRANCH   9  18
ENDBRANCH   3   4
BRANCH   3  23
ATOM     23  O   UNL     1      26.269  39.038   8.736  1.00  0.00    -0.388 OA
ATOM     24  H   UNL     1      26.720  39.340   7.910  1.00  0.00     0.211 HD
ENDBRANCH   3  23
ENDBRANCH   2   3
BRANCH   2  25
ATOM     25  O   UNL     1      24.150  38.425   7.410  1.00  0.00    -0.388 OA
ATOM     26  H   UNL     1      24.974  38.909   7.138  1.00  0.00     0.211 HD
ENDBRANCH   2  25
ENDBRANCH   1   2
BRANCH   1  27
ATOM     27  N   UNL     1      24.175  36.958  10.692  1.00  0.00    -0.319 N 
ATOM     28  C   UNL     1      23.782  35.697  11.288  1.00  0.00     0.407 C 
ATOM     29  H   UNL     1      24.862  37.516  11.241  1.00  0.00     0.167 HD
ATOM     30  O   UNL     1      22.962  34.972  10.672  1.00  0.00    -0.225 OA
BRANCH  28  31
ATOM     31  O   UNL     1      24.279  35.283  12.493  1.00  0.00    -0.443 OA
BRANCH  31  32
ATOM     32  C   UNL     1      24.810  33.993  12.657  1.00  0.00     0.294 C 
BRANCH  32  33
ATOM     33  C   UNL     1      26.312  34.039  12.644  1.00  0.00     0.121 A 
ATOM     34  C   UNL     1      27.172  33.884  13.722  1.00  0.00     0.144 A 
ATOM     35  N   UNL     1      27.114  34.242  11.584  1.00  0.00    -0.131 NA
ATOM     36  N   UNL     1      28.439  33.994  13.286  1.00  0.00    -0.220 N 
ATOM     37  N   UNL     1      28.384  34.213  11.984  1.00  0.00    -0.062 NA
BRANCH  36  38
ATOM     38  C   UNL     1      29.652  33.906  14.023  1.00  0.00     0.068 A 
ATOM     39  C   UNL     1      30.028  32.721  14.627  1.00  0.00     0.028 A 
ATOM     40  C   UNL     1      30.506  34.979  14.171  1.00  0.00     0.049 A 
ATOM     41  C   UNL     1      31.209  32.623  15.348  1.00  0.00     0.004 A 
ATOM     42  C   UNL     1      31.684  34.895  14.886  1.00  0.00     0.043 A 
ATOM     43  C   UNL     1      32.051  33.708  15.486  1.00  0.00     0.020 A 
ATOM     44  Cl  UNL     1      32.751  36.294  15.054  1.00  0.00    -0.084 Cl
ENDBRANCH  36  38
ENDBRANCH  32  33
ENDBRANCH  31  32
ENDBRANCH  28  31
ENDBRANCH   1  27
TORSDOF 15
BEGIN_RES LYS A 135
REMARK  4 active torsions:
REMARK  status: ('A' for Active; 'I' for Inactive)
REMARK    1  A    between atoms: CA   and  CB  
REMARK    2  A    between atoms: CB   and  CG  
REMARK    3  A    between atoms: CG   and  CD  
REMARK    4  A    between atoms: CD   and  CE  
ROOT
ATOM      1  CA  LYS A 135      33.193  34.663   9.290  1.00 25.02     0.186 C 
ENDROOT
BRANCH   1   2
ATOM      2  CB  LYS A 135      32.060  35.360  10.034  1.00 26.63     0.034 C 
BRANCH   2   3
ATOM      3  CG  LYS A 135      32.518  36.126  11.249  1.00 29.45     0.005 C 
BRANCH   3   4
ATOM      4  CD  LYS A 135      31.781  37.452  11.356  1.00 32.00     0.041 C 
BRANCH   4   5
ATOM      5  CE  LYS A 135      30.282  37.236  11.279  1.00 34.25     0.338 C 
ATOM      6  NZ  LYS A 135      29.584  38.476  10.841  1.00 35.99     0.618 N 
ENDBRANCH   4   5
ENDBRANCH   3   4
ENDBRANCH   2   3
ENDBRANCH   1   2
END_RES LYS A 135
BEGIN_RES ARG A 124
REMARK  4 active torsions:
REMARK  status: ('A' for Active; 'I' for Inactive)
REMARK    5  A    between atoms: CA   and  CB  
REMARK    6  A    between atoms: CB   and  CG  
REMARK    7  A    between atoms: CG   and  CD  
REMARK    8  A    between atoms: CD   and  NE  
REMARK       I    between atoms: NE   and  CZ  
ROOT
ATOM      7  CA  ARG A 124      31.045  26.515   9.594  1.00 17.84     0.186 C 
ENDROOT
BRANCH   7   8
ATOM      8  CB  ARG A 124      29.529  26.705   9.647  1.00 16.18     0.036 C 
BRANCH   8   9
ATOM      9  CG  ARG A 124      28.896  26.715  11.084  1.00 16.22     0.029 C 
BRANCH   9  10
ATOM     10  CD  ARG A 124      27.490  26.073  11.125  1.00 15.09     0.145 C 
BRANCH  10  11
ATOM     11  NE  ARG A 124      26.401  27.035  11.398  1.00 16.98    -0.083 NA
ATOM     12  CZ  ARG A 124      26.073  27.492  12.602  1.00 18.21     0.782 C 
ATOM     13  NH1 ARG A 124      26.736  27.112  13.688  1.00 21.11     0.063 N 
ATOM     14  NH2 ARG A 124      25.085  28.363  12.733  1.00 21.25     0.063 N 
ENDBRANCH  10  11
ENDBRANCH   9  10
ENDBRANCH   8   9
ENDBRANCH   7   8
END_RES ARG A 124
BEGIN_RES ASN A 133
REMARK  2 active torsions:
REMARK  status: ('A' for Active; 'I' for Inactive)
REMARK    9  A    between atoms: CA   and  CB  
REMARK   10  A    between atoms: CB   and  CG  
ROOT
ATOM     15  CA  ASN A 133      31.225  30.257  11.749  1.00 18.15     0.196 C 
ENDROOT
BRANCH  15  16
ATOM     16  CB  ASN A 133      30.092  31.240  11.460  1.00 18.27     0.126 C 
BRANCH  16  17
ATOM     17  CG  ASN A 133      28.734  30.611  11.516  1.00 18.94     0.276 C 
ATOM     18  OD1 ASN A 133      27.992  30.782  12.485  1.00 18.09    -0.269 OA
ATOM     19  ND2 ASN A 133      28.393  29.866  10.465  1.00 18.93    -0.107 N 
ENDBRANCH  16  17
ENDBRANCH  15  16
END_RES ASN A 133
BEGIN_RES LYS A 131
REMARK  4 active torsions:
REMARK  status: ('A' for Active; 'I' for Inactive)
REMARK   11  A    between atoms: CA   and  CB  
REMARK   12  A    between atoms: CB   and  CG  
REMARK   13  A    between atoms: CG   and  CD  
REMARK   14  A    between atoms: CD   and  CE  
ROOT
ATOM     20  CA  LYS A 131      29.867  25.555  16.977  1.00 20.52     0.186 C 
ENDROOT
BRANCH  20  21
ATOM     21  CB  LYS A 131      28.345  25.722  17.026  1.00 20.94     0.034 C 
BRANCH  21  22
ATOM     22  CG  LYS A 131      27.601  24.405  16.868  1.00 22.96     0.005 C 
BRANCH  22  23
ATOM     23  CD  LYS A 131      26.180  24.496  17.351  1.00 24.33     0.041 C 
BRANCH  23  24
ATOM     24  CE  LYS A 131      25.668  23.100  17.691  1.00 26.91     0.338 C 
ATOM     25  NZ  LYS A 131      25.284  23.022  19.121  1.00 27.40     0.618 N 
ENDBRANCH  23  24
ENDBRANCH  22  23
ENDBRANCH  21  22
ENDBRANCH  20  21
END_RES LYS A 131
