REMARK VINA RESULT:    -5.258      6.977     11.308
REMARK INTER + INTRA:         -17.460
REMARK INTER:                  -8.969
REMARK INTRA:                  -8.490
REMARK UNBOUND:                -8.360
REMARK SMILES CC(=O)N[C@@H]1[C@@H](O)C[C@](O)(C(=O)O)O[C@H]1C(O)[C@H](O)CNC(=O)OCc1cn(-c2ccc(C)cc2)nn1
REMARK SMILES IDX 20 1 18 2 16 3 15 4 9 5 8 6 14 7 6 8 5 9 10 10 11 12 12 13
REMARK SMILES IDX 13 14 7 16 4 18 2 19 1 21 3 22 17 23 19 25 21 27 22 28 23 30
REMARK SMILES IDX 24 31 25 32 26 33 27 34 37 35 28 36 36 37 29 38 30 39 35 40
REMARK SMILES IDX 31 41 34 42 32 43 33 44
REMARK H PARENT 10 11 13 15 7 17 4 20 17 24 19 26 21 29
REMARK Flexibility Score: inf
ROOT
ATOM      1  C   UNL     1      25.932  17.006  15.969  1.00  0.00     0.154 C 
ENDROOT
BRANCH   1   2
ATOM      2  C   UNL     1      26.419  18.195  16.725  1.00  0.00     0.165 C 
BRANCH   2   3
ATOM      3  C   UNL     1      25.476  19.360  16.460  1.00  0.00     0.176 C 
BRANCH   3   4
ATOM      4  C   UNL     1      24.240  19.299  17.328  1.00  0.00     0.178 C 
ATOM      5  C   UNL     1      22.495  19.561  15.796  1.00  0.00     0.269 C 
ATOM      6  C   UNL     1      21.991  20.808  16.475  1.00  0.00     0.112 C 
ATOM      7  O   UNL     1      23.149  18.775  16.685  1.00  0.00    -0.332 OA
ATOM      8  C   UNL     1      23.037  21.514  17.277  1.00  0.00     0.145 C 
ATOM      9  C   UNL     1      23.977  20.615  18.015  1.00  0.00     0.142 C 
BRANCH   5  10
ATOM     10  O   UNL     1      23.212  19.916  14.676  1.00  0.00    -0.357 OA
ATOM     11  H   UNL     1      23.345  20.901  14.694  1.00  0.00     0.214 HD
ENDBRANCH   5  10
BRANCH   5  12
ATOM     12  C   UNL     1      21.288  18.816  15.341  1.00  0.00     0.364 C 
ATOM     13  O   UNL     1      20.993  17.678  15.807  1.00  0.00    -0.246 OA
BRANCH  12  14
ATOM     14  O   UNL     1      20.443  19.344  14.390  1.00  0.00    -0.477 OA
ATOM     15  H   UNL     1      19.778  20.095  14.564  1.00  0.00     0.296 HD
ENDBRANCH  12  14
ENDBRANCH   5  12
BRANCH   8  16
ATOM     16  O   UNL     1      23.709  22.399  16.427  1.00  0.00    -0.391 OA
ATOM     17  H   UNL     1      24.640  22.479  16.738  1.00  0.00     0.211 HD
ENDBRANCH   8  16
BRANCH   9  18
ATOM     18  N   UNL     1      23.519  20.412  19.374  1.00  0.00    -0.348 N 
ATOM     19  C   UNL     1      24.054  21.201  20.414  1.00  0.00     0.217 C 
ATOM     20  H   UNL     1      22.783  19.675  19.603  1.00  0.00     0.163 HD
ATOM     21  C   UNL     1      23.600  21.006  21.795  1.00  0.00     0.114 C 
ATOM     22  O   UNL     1      24.919  22.074  20.165  1.00  0.00    -0.275 OA
ENDBRANCH   9  18
ENDBRANCH   3   4
BRANCH   3  23
ATOM     23  O   UNL     1      26.103  20.578  16.689  1.00  0.00    -0.388 OA
ATOM     24  H   UNL     1      25.970  21.230  15.959  1.00  0.00     0.211 HD
ENDBRANCH   3  23
ENDBRANCH   2   3
BRANCH   2  25
ATOM     25  O   UNL     1      27.704  18.610  16.469  1.00  0.00    -0.388 OA
ATOM     26  H   UNL     1      27.780  19.377  15.860  1.00  0.00     0.211 HD
ENDBRANCH   2  25
ENDBRANCH   1   2
BRANCH   1  27
ATOM     27  N   UNL     1      25.193  17.381  14.800  1.00  0.00    -0.319 N 
ATOM     28  C   UNL     1      24.127  16.645  14.229  1.00  0.00     0.407 C 
ATOM     29  H   UNL     1      25.435  18.295  14.280  1.00  0.00     0.167 HD
ATOM     30  O   UNL     1      23.741  15.572  14.743  1.00  0.00    -0.225 OA
BRANCH  28  31
ATOM     31  O   UNL     1      23.477  17.108  13.061  1.00  0.00    -0.443 OA
BRANCH  31  32
ATOM     32  C   UNL     1      22.647  16.191  12.376  1.00  0.00     0.294 C 
BRANCH  32  33
ATOM     33  C   UNL     1      21.328  16.864  12.104  1.00  0.00     0.121 A 
ATOM     34  C   UNL     1      21.075  17.845  11.166  1.00  0.00     0.144 A 
ATOM     35  N   UNL     1      20.143  16.648  12.709  1.00  0.00    -0.131 NA
ATOM     36  N   UNL     1      19.774  18.191  11.226  1.00  0.00    -0.220 N 
ATOM     37  N   UNL     1      19.241  17.446  12.171  1.00  0.00    -0.062 NA
BRANCH  36  38
ATOM     38  C   UNL     1      19.056  19.152  10.458  1.00  0.00     0.066 A 
ATOM     39  C   UNL     1      17.979  18.773   9.678  1.00  0.00     0.029 A 
ATOM     40  C   UNL     1      19.387  20.493  10.446  1.00  0.00     0.029 A 
ATOM     41  C   UNL     1      17.266  19.683   8.924  1.00  0.00     0.005 A 
ATOM     42  C   UNL     1      18.680  21.407   9.694  1.00  0.00     0.005 A 
ATOM     43  C   UNL     1      17.607  21.019   8.920  1.00  0.00    -0.051 A 
ATOM     44  C   UNL     1      16.817  21.983   8.094  1.00  0.00     0.044 C 
ENDBRANCH  36  38
ENDBRANCH  32  33
ENDBRANCH  31  32
ENDBRANCH  28  31
ENDBRANCH   1  27
TORSDOF 15
BEGIN_RES LYS A 135
REMARK  4 active torsions:
REMARK  status: ('A' for Active; 'I' for Inactive)
REMARK    1  A    between atoms: CA   and  CB  
REMARK    2  A    between atoms: CB   and  CG  
REMARK    3  A    between atoms: CG   and  CD  
REMARK    4  A    between atoms: CD   and  CE  
ROOT
ATOM      1  CA  LYS A 135      33.193  34.663   9.290  1.00 25.02     0.186 C 
ENDROOT
BRANCH   1   2
ATOM      2  CB  LYS A 135      32.060  35.360  10.034  1.00 26.63     0.034 C 
BRANCH   2   3
ATOM      3  CG  LYS A 135      30.698  34.796   9.723  1.00 29.45     0.005 C 
BRANCH   3   4
ATOM      4  CD  LYS A 135      30.566  34.499   8.237  1.00 32.00     0.041 C 
BRANCH   4   5
ATOM      5  CE  LYS A 135      29.229  34.985   7.713  1.00 34.25     0.338 C 
ATOM      6  NZ  LYS A 135      28.107  34.472   8.548  1.00 35.99     0.618 N 
ENDBRANCH   4   5
ENDBRANCH   3   4
ENDBRANCH   2   3
ENDBRANCH   1   2
END_RES LYS A 135
BEGIN_RES ARG A 124
REMARK  4 active torsions:
REMARK  status: ('A' for Active; 'I' for Inactive)
REMARK    5  A    between atoms: CA   and  CB  
REMARK    6  A    between atoms: CB   and  CG  
REMARK    7  A    between atoms: CG   and  CD  
REMARK    8  A    between atoms: CD   and  NE  
REMARK       I    between atoms: NE   and  CZ  
ROOT
ATOM      7  CA  ARG A 124      31.045  26.515   9.594  1.00 17.84     0.186 C 
ENDROOT
BRANCH   7   8
ATOM      8  CB  ARG A 124      29.529  26.705   9.647  1.00 16.18     0.036 C 
BRANCH   8   9
ATOM      9  CG  ARG A 124      28.755  25.728  10.603  1.00 16.22     0.029 C 
BRANCH   9  10
ATOM     10  CD  ARG A 124      28.413  26.369  11.967  1.00 15.09     0.145 C 
BRANCH  10  11
ATOM     11  NE  ARG A 124      27.007  26.813  12.083  1.00 16.98    -0.083 NA
ATOM     12  CZ  ARG A 124      26.533  27.592  13.050  1.00 18.21     0.782 C 
ATOM     13  NH1 ARG A 124      27.322  28.055  14.012  1.00 21.11     0.063 N 
ATOM     14  NH2 ARG A 124      25.255  27.939  13.053  1.00 21.25     0.063 N 
ENDBRANCH  10  11
ENDBRANCH   9  10
ENDBRANCH   8   9
ENDBRANCH   7   8
END_RES ARG A 124
BEGIN_RES ASN A 133
REMARK  2 active torsions:
REMARK  status: ('A' for Active; 'I' for Inactive)
REMARK    9  A    between atoms: CA   and  CB  
REMARK   10  A    between atoms: CB   and  CG  
ROOT
ATOM     15  CA  ASN A 133      31.225  30.257  11.749  1.00 18.15     0.196 C 
ENDROOT
BRANCH  15  16
ATOM     16  CB  ASN A 133      30.092  31.240  11.460  1.00 18.27     0.126 C 
BRANCH  16  17
ATOM     17  CG  ASN A 133      28.733  30.615  11.535  1.00 18.94     0.276 C 
ATOM     18  OD1 ASN A 133      28.430  29.660  10.819  1.00 18.09    -0.269 OA
ATOM     19  ND2 ASN A 133      27.891  31.157  12.414  1.00 18.93    -0.107 N 
ENDBRANCH  16  17
ENDBRANCH  15  16
END_RES ASN A 133
BEGIN_RES LYS A 131
REMARK  4 active torsions:
REMARK  status: ('A' for Active; 'I' for Inactive)
REMARK   11  A    between atoms: CA   and  CB  
REMARK   12  A    between atoms: CB   and  CG  
REMARK   13  A    between atoms: CG   and  CD  
REMARK   14  A    between atoms: CD   and  CE  
ROOT
ATOM     20  CA  LYS A 131      29.867  25.555  16.977  1.00 20.52     0.186 C 
ENDROOT
BRANCH  20  21
ATOM     21  CB  LYS A 131      28.345  25.722  17.026  1.00 20.94     0.034 C 
BRANCH  21  22
ATOM     22  CG  LYS A 131      27.599  24.428  16.739  1.00 22.96     0.005 C 
BRANCH  22  23
ATOM     23  CD  LYS A 131      26.861  23.920  17.946  1.00 24.33     0.041 C 
BRANCH  23  24
ATOM     24  CE  LYS A 131      26.201  25.090  18.669  1.00 26.91     0.338 C 
ATOM     25  NZ  LYS A 131      24.733  25.061  18.469  1.00 27.40     0.618 N 
ENDBRANCH  23  24
ENDBRANCH  22  23
ENDBRANCH  21  22
ENDBRANCH  20  21
END_RES LYS A 131
