REMARK VINA RESULT:    -5.410      5.212     10.852
REMARK INTER + INTRA:         -17.562
REMARK INTER:                 -10.664
REMARK INTRA:                  -6.898
REMARK UNBOUND:                -8.198
REMARK SMILES CC(=O)N[C@@H]1[C@@H](O)C[C@](O)(C(=O)O)O[C@H]1C(O)[C@H](O)CNC(=O)OCc1cn(C23CC4CC(CC(C4)C2)C3)nn1
REMARK SMILES IDX 20 1 18 2 16 3 15 4 9 5 8 6 14 7 6 8 5 9 10 10 11 12 12 13
REMARK SMILES IDX 13 14 7 16 4 18 2 19 1 21 3 22 17 23 19 25 21 27 22 28 23 30
REMARK SMILES IDX 24 31 25 32 26 33 27 34 40 35 28 36 39 37 29 38 38 39 37 40
REMARK SMILES IDX 30 41 33 42 35 43 31 44 32 45 34 46 36 47
REMARK H PARENT 10 11 13 15 7 17 4 20 17 24 19 26 21 29
REMARK Flexibility Score: inf
ROOT
ATOM      1  C   UNL     1      28.747  35.664   6.329  1.00  0.00     0.154 C 
ENDROOT
BRANCH   1   2
ATOM      2  C   UNL     1      28.252  37.108   6.343  1.00  0.00     0.165 C 
BRANCH   2   3
ATOM      3  C   UNL     1      27.160  37.355   7.319  1.00  0.00     0.176 C 
BRANCH   3   4
ATOM      4  C   UNL     1      26.200  38.443   7.031  1.00  0.00     0.178 C 
ATOM      5  C   UNL     1      26.045  40.631   6.248  1.00  0.00     0.269 C 
ATOM      6  C   UNL     1      24.603  40.676   6.609  1.00  0.00     0.112 C 
ATOM      7  O   UNL     1      26.809  39.685   6.883  1.00  0.00    -0.332 OA
ATOM      8  C   UNL     1      23.999  39.415   7.115  1.00  0.00     0.145 C 
ATOM      9  C   UNL     1      25.028  38.593   7.932  1.00  0.00     0.142 C 
BRANCH   5  10
ATOM     10  O   UNL     1      26.585  41.881   6.671  1.00  0.00    -0.357 OA
ATOM     11  H   UNL     1      27.550  41.832   6.444  1.00  0.00     0.214 HD
ENDBRANCH   5  10
BRANCH   5  12
ATOM     12  C   UNL     1      26.212  40.622   4.776  1.00  0.00     0.364 C 
ATOM     13  O   UNL     1      27.198  40.022   4.289  1.00  0.00    -0.246 OA
BRANCH  12  14
ATOM     14  O   UNL     1      25.332  41.244   3.914  1.00  0.00    -0.477 OA
ATOM     15  H   UNL     1      25.643  41.337   2.940  1.00  0.00     0.296 HD
ENDBRANCH  12  14
ENDBRANCH   5  12
BRANCH   8  16
ATOM     16  O   UNL     1      22.914  39.632   7.932  1.00  0.00    -0.391 OA
ATOM     17  H   UNL     1      22.341  38.820   7.940  1.00  0.00     0.211 HD
ENDBRANCH   8  16
BRANCH   9  18
ATOM     18  N   UNL     1      24.343  37.375   8.255  1.00  0.00    -0.348 N 
ATOM     19  C   UNL     1      24.457  36.832   9.555  1.00  0.00     0.217 C 
ATOM     20  H   UNL     1      23.774  36.905   7.535  1.00  0.00     0.163 HD
ATOM     21  C   UNL     1      23.778  35.575   9.962  1.00  0.00     0.114 C 
ATOM     22  O   UNL     1      25.160  37.433  10.416  1.00  0.00    -0.275 OA
ENDBRANCH   9  18
ENDBRANCH   3   4
BRANCH   3  23
ATOM     23  O   UNL     1      27.678  37.484   8.607  1.00  0.00    -0.388 OA
ATOM     24  H   UNL     1      28.563  37.923   8.606  1.00  0.00     0.211 HD
ENDBRANCH   3  23
ENDBRANCH   2   3
BRANCH   2  25
ATOM     25  O   UNL     1      27.652  37.269   5.057  1.00  0.00    -0.388 OA
ATOM     26  H   UNL     1      27.661  38.229   4.809  1.00  0.00     0.211 HD
ENDBRANCH   2  25
ENDBRANCH   1   2
BRANCH   1  27
ATOM     27  N   UNL     1      28.275  34.973   7.536  1.00  0.00    -0.319 N 
ATOM     28  C   UNL     1      29.171  34.397   8.460  1.00  0.00     0.407 C 
ATOM     29  H   UNL     1      27.262  34.910   7.710  1.00  0.00     0.167 HD
ATOM     30  O   UNL     1      30.409  34.516   8.178  1.00  0.00    -0.225 OA
BRANCH  28  31
ATOM     31  O   UNL     1      28.765  33.739   9.610  1.00  0.00    -0.443 OA
BRANCH  31  32
ATOM     32  C   UNL     1      27.622  34.140  10.321  1.00  0.00     0.294 C 
BRANCH  32  33
ATOM     33  C   UNL     1      28.055  34.688  11.629  1.00  0.00     0.120 A 
ATOM     34  C   UNL     1      29.092  34.256  12.430  1.00  0.00     0.138 A 
ATOM     35  N   UNL     1      27.501  35.718  12.262  1.00  0.00    -0.132 NA
ATOM     36  N   UNL     1      29.133  35.038  13.522  1.00  0.00    -0.246 N 
ATOM     37  N   UNL     1      28.144  35.933  13.398  1.00  0.00    -0.066 NA
BRANCH  36  38
ATOM     38  C   UNL     1      30.074  34.908  14.595  1.00  0.00     0.065 C 
ATOM     39  C   UNL     1      31.013  33.762  14.320  1.00  0.00     0.034 C 
ATOM     40  C   UNL     1      29.350  34.561  15.902  1.00  0.00     0.034 C 
ATOM     41  C   UNL     1      30.814  36.222  14.758  1.00  0.00     0.034 C 
ATOM     42  C   UNL     1      32.040  33.656  15.423  1.00  0.00    -0.008 C 
ATOM     43  C   UNL     1      30.362  34.466  17.005  1.00  0.00    -0.008 C 
ATOM     44  C   UNL     1      31.820  36.083  15.866  1.00  0.00    -0.008 C 
ATOM     45  C   UNL     1      32.773  34.980  15.493  1.00  0.00     0.007 C 
ATOM     46  C   UNL     1      31.412  33.412  16.764  1.00  0.00     0.007 C 
ATOM     47  C   UNL     1      31.075  35.792  17.143  1.00  0.00     0.007 C 
ENDBRANCH  36  38
ENDBRANCH  32  33
ENDBRANCH  31  32
ENDBRANCH  28  31
ENDBRANCH   1  27
TORSDOF 15
BEGIN_RES LYS A 135
REMARK  4 active torsions:
REMARK  status: ('A' for Active; 'I' for Inactive)
REMARK    1  A    between atoms: CA   and  CB  
REMARK    2  A    between atoms: CB   and  CG  
REMARK    3  A    between atoms: CG   and  CD  
REMARK    4  A    between atoms: CD   and  CE  
ROOT
ATOM      1  CA  LYS A 135      33.193  34.663   9.290  1.00 25.02     0.186 C 
ENDROOT
BRANCH   1   2
ATOM      2  CB  LYS A 135      32.060  35.360  10.034  1.00 26.63     0.034 C 
BRANCH   2   3
ATOM      3  CG  LYS A 135      32.462  35.886  11.388  1.00 29.45     0.005 C 
BRANCH   3   4
ATOM      4  CD  LYS A 135      31.928  37.295  11.596  1.00 32.00     0.041 C 
BRANCH   4   5
ATOM      5  CE  LYS A 135      30.560  37.446  10.959  1.00 34.25     0.338 C 
ATOM      6  NZ  LYS A 135      30.399  38.793  10.345  1.00 35.99     0.618 N 
ENDBRANCH   4   5
ENDBRANCH   3   4
ENDBRANCH   2   3
ENDBRANCH   1   2
END_RES LYS A 135
BEGIN_RES ARG A 124
REMARK  4 active torsions:
REMARK  status: ('A' for Active; 'I' for Inactive)
REMARK    5  A    between atoms: CA   and  CB  
REMARK    6  A    between atoms: CB   and  CG  
REMARK    7  A    between atoms: CG   and  CD  
REMARK    8  A    between atoms: CD   and  NE  
REMARK       I    between atoms: NE   and  CZ  
ROOT
ATOM      7  CA  ARG A 124      31.045  26.515   9.594  1.00 17.84     0.186 C 
ENDROOT
BRANCH   7   8
ATOM      8  CB  ARG A 124      29.529  26.705   9.647  1.00 16.18     0.036 C 
BRANCH   8   9
ATOM      9  CG  ARG A 124      28.911  26.835  11.085  1.00 16.22     0.029 C 
BRANCH   9  10
ATOM     10  CD  ARG A 124      27.547  26.120  11.219  1.00 15.09     0.145 C 
BRANCH  10  11
ATOM     11  NE  ARG A 124      26.407  27.039  11.428  1.00 16.98    -0.083 NA
ATOM     12  CZ  ARG A 124      26.033  27.529  12.605  1.00 18.21     0.782 C 
ATOM     13  NH1 ARG A 124      26.688  27.226  13.719  1.00 21.11     0.063 N 
ATOM     14  NH2 ARG A 124      25.001  28.356  12.679  1.00 21.25     0.063 N 
ENDBRANCH  10  11
ENDBRANCH   9  10
ENDBRANCH   8   9
ENDBRANCH   7   8
END_RES ARG A 124
BEGIN_RES ASN A 133
REMARK  2 active torsions:
REMARK  status: ('A' for Active; 'I' for Inactive)
REMARK    9  A    between atoms: CA   and  CB  
REMARK   10  A    between atoms: CB   and  CG  
ROOT
ATOM     15  CA  ASN A 133      31.225  30.257  11.749  1.00 18.15     0.196 C 
ENDROOT
BRANCH  15  16
ATOM     16  CB  ASN A 133      30.092  31.240  11.460  1.00 18.27     0.126 C 
BRANCH  16  17
ATOM     17  CG  ASN A 133      28.744  30.591  11.412  1.00 18.94     0.276 C 
ATOM     18  OD1 ASN A 133      28.409  29.884  10.459  1.00 18.09    -0.269 OA
ATOM     19  ND2 ASN A 133      27.945  30.829  12.452  1.00 18.93    -0.107 N 
ENDBRANCH  16  17
ENDBRANCH  15  16
END_RES ASN A 133
BEGIN_RES LYS A 131
REMARK  4 active torsions:
REMARK  status: ('A' for Active; 'I' for Inactive)
REMARK   11  A    between atoms: CA   and  CB  
REMARK   12  A    between atoms: CB   and  CG  
REMARK   13  A    between atoms: CG   and  CD  
REMARK   14  A    between atoms: CD   and  CE  
ROOT
ATOM     20  CA  LYS A 131      29.867  25.555  16.977  1.00 20.52     0.186 C 
ENDROOT
BRANCH  20  21
ATOM     21  CB  LYS A 131      28.345  25.722  17.026  1.00 20.94     0.034 C 
BRANCH  21  22
ATOM     22  CG  LYS A 131      27.605  24.393  17.056  1.00 22.96     0.005 C 
BRANCH  22  23
ATOM     23  CD  LYS A 131      26.120  24.575  17.204  1.00 24.33     0.041 C 
BRANCH  23  24
ATOM     24  CE  LYS A 131      25.466  23.222  17.465  1.00 26.91     0.338 C 
ATOM     25  NZ  LYS A 131      24.035  23.255  17.079  1.00 27.40     0.618 N 
ENDBRANCH  23  24
ENDBRANCH  22  23
ENDBRANCH  21  22
ENDBRANCH  20  21
END_RES LYS A 131
