REMARK VINA RESULT:    -4.839      0.000      0.000
REMARK INTER + INTRA:         -21.051
REMARK INTER:                 -12.095
REMARK INTRA:                  -8.956
REMARK UNBOUND:                -9.705
REMARK SMILES CC(=O)N[C@@H]1[C@@H](O)C[C@](O)(C(=O)O)O[C@H]1C(O)[C@H](O)CNC(=O)OCc1cn(CCCCCCCCCCC(=O)O)nn1
REMARK SMILES IDX 29 1 28 2 26 3 27 4 43 5 42 6 25 7 24 8 22 9 21 10 23 12
REMARK SMILES IDX 20 13 18 14 16 15 15 16 9 17 8 18 14 19 6 20 5 21 10 22
REMARK SMILES IDX 11 24 12 25 13 26 7 28 4 30 2 31 1 33 3 34 17 35 19 37 30 39
REMARK SMILES IDX 31 40 32 41 33 42 34 43 35 44 36 45 37 46 38 47 39 48 40 49
REMARK SMILES IDX 41 50
REMARK H PARENT 21 11 10 23 13 27 7 29 4 32 17 36 19 38 41 51
REMARK Flexibility Score: inf
ROOT
ATOM      1  C   UNL     1      27.591  34.501  12.495  1.00  0.00     0.146 C 
ENDROOT
BRANCH   1   2
ATOM      2  N   UNL     1      28.974  34.797  12.758  1.00  0.00    -0.252 N 
ATOM      3  C   UNL     1      30.936  35.771  13.110  1.00  0.00     0.120 A 
ATOM      4  C   UNL     1      29.599  35.984  12.847  1.00  0.00     0.138 A 
ATOM      5  N   UNL     1      31.048  34.419  13.168  1.00  0.00    -0.132 NA
ATOM      6  N   UNL     1      29.892  33.839  12.960  1.00  0.00    -0.067 NA
BRANCH   3   7
ATOM      7  C   UNL     1      32.040  36.716  13.300  1.00  0.00     0.294 C 
BRANCH   7   8
ATOM      8  O   UNL     1      32.196  37.194  14.605  1.00  0.00    -0.443 OA
BRANCH   8   9
ATOM      9  C   UNL     1      31.863  36.455  15.733  1.00  0.00     0.407 C 
ATOM     10  N   UNL     1      32.343  35.138  15.926  1.00  0.00    -0.319 N 
ATOM     11  H   UNL     1      32.959  34.701  15.214  1.00  0.00     0.167 HD
ATOM     12  O   UNL     1      31.107  37.029  16.579  1.00  0.00    -0.225 OA
BRANCH  10  13
ATOM     13  C   UNL     1      31.974  34.422  17.101  1.00  0.00     0.154 C 
BRANCH  13  14
ATOM     14  C   UNL     1      30.768  33.531  16.925  1.00  0.00     0.165 C 
BRANCH  14  15
ATOM     15  C   UNL     1      31.126  32.189  16.352  1.00  0.00     0.176 C 
BRANCH  15  16
ATOM     16  C   UNL     1      29.912  31.274  16.552  1.00  0.00     0.178 C 
ATOM     17  C   UNL     1      27.699  31.108  15.881  1.00  0.00     0.269 C 
ATOM     18  C   UNL     1      27.179  31.494  17.247  1.00  0.00     0.112 C 
ATOM     19  O   UNL     1      28.935  31.710  15.720  1.00  0.00    -0.332 OA
ATOM     20  C   UNL     1      28.105  30.979  18.289  1.00  0.00     0.145 C 
ATOM     21  C   UNL     1      29.564  31.253  18.009  1.00  0.00     0.142 C 
BRANCH  17  22
ATOM     22  O   UNL     1      26.834  31.703  14.963  1.00  0.00    -0.357 OA
ATOM     23  H   UNL     1      27.418  32.260  14.371  1.00  0.00     0.214 HD
ENDBRANCH  17  22
BRANCH  17  24
ATOM     24  C   UNL     1      27.692  29.662  15.667  1.00  0.00     0.364 C 
ATOM     25  O   UNL     1      26.921  28.934  16.331  1.00  0.00    -0.246 OA
BRANCH  24  26
ATOM     26  O   UNL     1      28.510  29.021  14.746  1.00  0.00    -0.477 OA
ATOM     27  H   UNL     1      28.231  28.090  14.452  1.00  0.00     0.296 HD
ENDBRANCH  24  26
ENDBRANCH  17  24
BRANCH  20  28
ATOM     28  O   UNL     1      27.743  31.531  19.533  1.00  0.00    -0.391 OA
ATOM     29  H   UNL     1      27.442  32.462  19.417  1.00  0.00     0.211 HD
ENDBRANCH  20  28
BRANCH  21  30
ATOM     30  N   UNL     1      30.401  30.340  18.763  1.00  0.00    -0.348 N 
ATOM     31  C   UNL     1      30.918  30.725  20.028  1.00  0.00     0.217 C 
ATOM     32  H   UNL     1      30.638  29.373  18.383  1.00  0.00     0.163 HD
ATOM     33  C   UNL     1      31.780  29.726  20.753  1.00  0.00     0.114 C 
ATOM     34  O   UNL     1      30.671  31.853  20.526  1.00  0.00    -0.275 OA
ENDBRANCH  21  30
ENDBRANCH  15  16
BRANCH  15  35
ATOM     35  O   UNL     1      31.485  32.250  15.020  1.00  0.00    -0.388 OA
ATOM     36  H   UNL     1      31.336  33.108  14.581  1.00  0.00     0.211 HD
ENDBRANCH  15  35
ENDBRANCH  14  15
BRANCH  14  37
ATOM     37  O   UNL     1      29.917  34.203  16.035  1.00  0.00    -0.388 OA
ATOM     38  H   UNL     1      30.356  34.345  15.155  1.00  0.00     0.211 HD
ENDBRANCH  14  37
ENDBRANCH  13  14
ENDBRANCH  10  13
ENDBRANCH   8   9
ENDBRANCH   7   8
ENDBRANCH   3   7
ENDBRANCH   1   2
BRANCH   1  39
ATOM     39  C   UNL     1      27.132  34.991  11.153  1.00  0.00     0.024 C 
BRANCH  39  40
ATOM     40  C   UNL     1      27.285  33.992  10.053  1.00  0.00     0.002 C 
BRANCH  40  41
ATOM     41  C   UNL     1      26.691  34.442   8.745  1.00  0.00     0.000 C 
BRANCH  41  42
ATOM     42  C   UNL     1      25.855  35.676   8.858  1.00  0.00     0.000 C 
BRANCH  42  43
ATOM     43  C   UNL     1      24.393  35.457   8.935  1.00  0.00     0.000 C 
BRANCH  43  44
ATOM     44  C   UNL     1      23.658  36.271   9.920  1.00  0.00     0.000 C 
BRANCH  44  45
ATOM     45  C   UNL     1      23.034  35.674  11.102  1.00  0.00     0.001 C 
BRANCH  45  46
ATOM     46  C   UNL     1      23.680  34.892  12.136  1.00  0.00     0.012 C 
BRANCH  46  47
ATOM     47  C   UNL     1      23.157  33.540  12.497  1.00  0.00     0.122 C 
BRANCH  47  48
ATOM     48  C   UNL     1      24.114  32.804  13.402  1.00  0.00     0.303 C 
ATOM     49  O   UNL     1      24.010  32.891  14.627  1.00  0.00    -0.252 OA
BRANCH  48  50
ATOM     50  O   UNL     1      25.122  32.022  12.875  1.00  0.00    -0.481 OA
ATOM     51  H   UNL     1      26.094  32.287  13.074  1.00  0.00     0.296 HD
ENDBRANCH  48  50
ENDBRANCH  47  48
ENDBRANCH  46  47
ENDBRANCH  45  46
ENDBRANCH  44  45
ENDBRANCH  43  44
ENDBRANCH  42  43
ENDBRANCH  41  42
ENDBRANCH  40  41
ENDBRANCH  39  40
ENDBRANCH   1  39
TORSDOF 26
BEGIN_RES LYS A 135
REMARK  4 active torsions:
REMARK  status: ('A' for Active; 'I' for Inactive)
REMARK    1  A    between atoms: CA   and  CB  
REMARK    2  A    between atoms: CB   and  CG  
REMARK    3  A    between atoms: CG   and  CD  
REMARK    4  A    between atoms: CD   and  CE  
ROOT
ATOM      1  CA  LYS A 135      33.193  34.663   9.290  1.00 25.02     0.186 C 
ENDROOT
BRANCH   1   2
ATOM      2  CB  LYS A 135      32.060  35.360  10.034  1.00 26.63     0.034 C 
BRANCH   2   3
ATOM      3  CG  LYS A 135      30.724  35.239   9.348  1.00 29.45     0.005 C 
BRANCH   3   4
ATOM      4  CD  LYS A 135      30.024  36.588   9.292  1.00 32.00     0.041 C 
BRANCH   4   5
ATOM      5  CE  LYS A 135      29.404  36.811   7.926  1.00 34.25     0.338 C 
ATOM      6  NZ  LYS A 135      29.501  38.240   7.520  1.00 35.99     0.618 N 
ENDBRANCH   4   5
ENDBRANCH   3   4
ENDBRANCH   2   3
ENDBRANCH   1   2
END_RES LYS A 135
BEGIN_RES ARG A 124
REMARK  4 active torsions:
REMARK  status: ('A' for Active; 'I' for Inactive)
REMARK    5  A    between atoms: CA   and  CB  
REMARK    6  A    between atoms: CB   and  CG  
REMARK    7  A    between atoms: CG   and  CD  
REMARK    8  A    between atoms: CD   and  NE  
REMARK       I    between atoms: NE   and  CZ  
ROOT
ATOM      7  CA  ARG A 124      31.045  26.515   9.594  1.00 17.84     0.186 C 
ENDROOT
BRANCH   7   8
ATOM      8  CB  ARG A 124      29.529  26.705   9.647  1.00 16.18     0.036 C 
BRANCH   8   9
ATOM      9  CG  ARG A 124      28.894  26.702  11.084  1.00 16.22     0.029 C 
BRANCH   9  10
ATOM     10  CD  ARG A 124      27.497  26.042  11.121  1.00 15.09     0.145 C 
BRANCH  10  11
ATOM     11  NE  ARG A 124      26.389  26.999  11.335  1.00 16.98    -0.083 NA
ATOM     12  CZ  ARG A 124      25.891  27.332  12.520  1.00 18.21     0.782 C 
ATOM     13  NH1 ARG A 124      26.381  26.820  13.643  1.00 21.11     0.063 N 
ATOM     14  NH2 ARG A 124      24.903  28.211  12.599  1.00 21.25     0.063 N 
ENDBRANCH  10  11
ENDBRANCH   9  10
ENDBRANCH   8   9
ENDBRANCH   7   8
END_RES ARG A 124
BEGIN_RES ASN A 133
REMARK  2 active torsions:
REMARK  status: ('A' for Active; 'I' for Inactive)
REMARK    9  A    between atoms: CA   and  CB  
REMARK   10  A    between atoms: CB   and  CG  
ROOT
ATOM     15  CA  ASN A 133      31.225  30.257  11.749  1.00 18.15     0.196 C 
ENDROOT
BRANCH  15  16
ATOM     16  CB  ASN A 133      30.092  31.240  11.460  1.00 18.27     0.126 C 
BRANCH  16  17
ATOM     17  CG  ASN A 133      28.732  30.619  11.551  1.00 18.94     0.276 C 
ATOM     18  OD1 ASN A 133      27.951  30.923  12.454  1.00 18.09    -0.269 OA
ATOM     19  ND2 ASN A 133      28.434  29.730  10.605  1.00 18.93    -0.107 N 
ENDBRANCH  16  17
ENDBRANCH  15  16
END_RES ASN A 133
BEGIN_RES LYS A 131
REMARK  4 active torsions:
REMARK  status: ('A' for Active; 'I' for Inactive)
REMARK   11  A    between atoms: CA   and  CB  
REMARK   12  A    between atoms: CB   and  CG  
REMARK   13  A    between atoms: CG   and  CD  
REMARK   14  A    between atoms: CD   and  CE  
ROOT
ATOM     20  CA  LYS A 131      29.867  25.555  16.977  1.00 20.52     0.186 C 
ENDROOT
BRANCH  20  21
ATOM     21  CB  LYS A 131      28.345  25.722  17.026  1.00 20.94     0.034 C 
BRANCH  21  22
ATOM     22  CG  LYS A 131      27.601  24.403  16.887  1.00 22.96     0.005 C 
BRANCH  22  23
ATOM     23  CD  LYS A 131      26.146  24.533  17.242  1.00 24.33     0.041 C 
BRANCH  23  24
ATOM     24  CE  LYS A 131      25.831  25.988  17.575  1.00 26.91     0.338 C 
ATOM     25  NZ  LYS A 131      24.671  26.462  16.784  1.00 27.40     0.618 N 
ENDBRANCH  23  24
ENDBRANCH  22  23
ENDBRANCH  21  22
ENDBRANCH  20  21
END_RES LYS A 131
