REMARK VINA RESULT:    -7.461      0.000      0.000
REMARK INTER + INTRA:         -21.798
REMARK INTER:                 -11.827
REMARK INTRA:                  -9.971
REMARK UNBOUND:                -7.795
REMARK SMILES CC(=O)N[C@@H]1[C@@H](O)C[C@](O)(C(=O)O)O[C@H]1C(O)[C@H](O)CNC(=O)OCc1cn(-c2ccc(-c3c4ccc(=O)cc-4oc4cc(O)ccc34)c(C(=O)[O-])c2)nn1
REMARK SMILES IDX 21 1 22 2 23 3 20 5 18 6 16 7 15 8 9 9 8 10 14 11 6 12 5 13
REMARK SMILES IDX 10 14 11 16 12 17 13 18 7 20 4 22 2 23 1 25 3 26 17 27 19 29
REMARK SMILES IDX 24 31 25 32 26 33 27 34 55 35 28 36 54 37 29 38 53 39 30 40
REMARK SMILES IDX 49 41 31 42 32 43 50 44 51 45 52 46 33 47 48 48 34 49 47 50
REMARK SMILES IDX 42 51 40 52 35 53 46 54 43 55 41 56 39 57 36 58 44 59 37 60
REMARK SMILES IDX 38 61 45 62
REMARK H PARENT 21 4 10 15 13 19 7 21 4 24 17 28 19 30 45 63
REMARK Flexibility Score: inf
ROOT
ATOM      1  N   UNL     1      28.953  30.632  16.370  1.00  0.00    -0.319 N 
ATOM      2  C   UNL     1      27.887  30.214  17.181  1.00  0.00     0.407 C 
ATOM      3  O   UNL     1      28.014  30.161  18.409  1.00  0.00    -0.225 OA
ATOM      4  H   UNL     1      28.742  30.649  15.321  1.00  0.00     0.167 HD
ENDROOT
BRANCH   1   5
ATOM      5  C   UNL     1      30.265  31.027  16.803  1.00  0.00     0.154 C 
BRANCH   5   6
ATOM      6  C   UNL     1      30.863  32.194  16.103  1.00  0.00     0.165 C 
BRANCH   6   7
ATOM      7  C   UNL     1      29.934  33.329  15.815  1.00  0.00     0.176 C 
BRANCH   7   8
ATOM      8  C   UNL     1      30.636  34.511  15.188  1.00  0.00     0.178 C 
ATOM      9  C   UNL     1      31.367  35.412  13.227  1.00  0.00     0.269 C 
ATOM     10  C   UNL     1      32.338  36.265  14.054  1.00  0.00     0.112 C 
ATOM     11  O   UNL     1      30.967  34.266  13.882  1.00  0.00    -0.332 OA
ATOM     12  C   UNL     1      32.934  35.310  15.086  1.00  0.00     0.145 C 
ATOM     13  C   UNL     1      31.846  34.910  16.053  1.00  0.00     0.142 C 
BRANCH   9  14
ATOM     14  O   UNL     1      32.049  34.947  12.069  1.00  0.00    -0.357 OA
ATOM     15  H   UNL     1      31.869  35.586  11.329  1.00  0.00     0.214 HD
ENDBRANCH   9  14
BRANCH   9  16
ATOM     16  C   UNL     1      30.251  36.254  12.747  1.00  0.00     0.364 C 
ATOM     17  O   UNL     1      30.423  37.472  12.561  1.00  0.00    -0.246 OA
BRANCH  16  18
ATOM     18  O   UNL     1      28.974  35.768  12.477  1.00  0.00    -0.477 OA
ATOM     19  H   UNL     1      28.625  34.928  12.927  1.00  0.00     0.296 HD
ENDBRANCH  16  18
ENDBRANCH   9  16
BRANCH  12  20
ATOM     20  O   UNL     1      33.306  34.161  14.387  1.00  0.00    -0.391 OA
ATOM     21  H   UNL     1      33.305  34.293  13.413  1.00  0.00     0.211 HD
ENDBRANCH  12  20
BRANCH  13  22
ATOM     22  N   UNL     1      31.427  35.973  16.906  1.00  0.00    -0.348 N 
ATOM     23  C   UNL     1      31.251  35.869  18.316  1.00  0.00     0.217 C 
ATOM     24  H   UNL     1      31.233  36.905  16.444  1.00  0.00     0.163 HD
ATOM     25  C   UNL     1      30.812  37.060  19.055  1.00  0.00     0.114 C 
ATOM     26  O   UNL     1      31.485  34.756  18.843  1.00  0.00    -0.275 OA
ENDBRANCH  13  22
ENDBRANCH   7   8
BRANCH   7  27
ATOM     27  O   UNL     1      29.246  33.778  16.933  1.00  0.00    -0.388 OA
ATOM     28  H   UNL     1      29.062  34.746  16.802  1.00  0.00     0.211 HD
ENDBRANCH   7  27
ENDBRANCH   6   7
BRANCH   6  29
ATOM     29  O   UNL     1      31.554  31.828  14.929  1.00  0.00    -0.388 OA
ATOM     30  H   UNL     1      30.974  31.254  14.377  1.00  0.00     0.211 HD
ENDBRANCH   6  29
ENDBRANCH   5   6
ENDBRANCH   1   5
BRANCH   2  31
ATOM     31  O   UNL     1      26.647  29.841  16.653  1.00  0.00    -0.443 OA
BRANCH  31  32
ATOM     32  C   UNL     1      25.485  30.627  16.886  1.00  0.00     0.294 C 
BRANCH  32  33
ATOM     33  C   UNL     1      25.750  31.973  16.316  1.00  0.00     0.121 A 
ATOM     34  C   UNL     1      25.446  32.360  15.027  1.00  0.00     0.144 A 
ATOM     35  N   UNL     1      26.308  33.055  16.882  1.00  0.00    -0.131 NA
ATOM     36  N   UNL     1      25.831  33.641  14.872  1.00  0.00    -0.220 N 
ATOM     37  N   UNL     1      26.356  34.054  16.016  1.00  0.00    -0.062 NA
BRANCH  36  38
ATOM     38  C   UNL     1      25.675  34.379  13.659  1.00  0.00     0.067 A 
ATOM     39  C   UNL     1      25.222  35.680  13.629  1.00  0.00     0.039 A 
ATOM     40  C   UNL     1      25.986  33.799  12.437  1.00  0.00     0.029 A 
ATOM     41  C   UNL     1      25.079  36.383  12.435  1.00  0.00     0.007 A 
ATOM     42  C   UNL     1      25.846  34.492  11.252  1.00  0.00     0.012 A 
ATOM     43  C   UNL     1      25.393  35.791  11.230  1.00  0.00    -0.008 A 
BRANCH  41  44
ATOM     44  C   UNL     1      24.597  37.758  12.439  1.00  0.00     0.072 C 
ATOM     45  O   UNL     1      25.388  38.719  12.554  1.00  0.00    -0.545 OA
ATOM     46  O   UNL     1      23.236  37.981  12.311  1.00  0.00    -0.545 OA
ENDBRANCH  41  44
BRANCH  43  47
ATOM     47  C   UNL     1      25.238  36.546   9.995  1.00  0.00     0.004 A 
ATOM     48  C   UNL     1      24.057  36.514   9.275  1.00  0.00     0.026 A 
ATOM     49  C   UNL     1      26.251  37.329   9.471  1.00  0.00     0.026 A 
ATOM     50  C   UNL     1      22.984  35.758   9.720  1.00  0.00     0.016 A 
ATOM     51  C   UNL     1      23.940  37.246   8.099  1.00  0.00     0.139 A 
ATOM     52  C   UNL     1      26.078  38.079   8.230  1.00  0.00     0.139 A 
ATOM     53  C   UNL     1      27.452  37.400  10.144  1.00  0.00     0.016 A 
ATOM     54  C   UNL     1      21.798  35.719   9.008  1.00  0.00     0.047 A 
ATOM     55  C   UNL     1      22.758  37.207   7.391  1.00  0.00     0.093 A 
ATOM     56  O   UNL     1      24.925  37.987   7.621  1.00  0.00    -0.456 OA
ATOM     57  C   UNL     1      27.086  38.857   7.713  1.00  0.00     0.099 A 
ATOM     58  C   UNL     1      28.448  38.190   9.601  1.00  0.00     0.053 A 
ATOM     59  C   UNL     1      21.696  36.447   7.845  1.00  0.00     0.119 A 
ATOM     60  C   UNL     1      28.271  38.902   8.413  1.00  0.00     0.182 A 
ATOM     61  O   UNL     1      29.259  39.579   8.036  1.00  0.00    -0.290 OA
BRANCH  59  62
ATOM     62  O   UNL     1      20.514  36.429   7.106  1.00  0.00    -0.508 OA
ATOM     63  H   UNL     1      20.179  35.617   6.645  1.00  0.00     0.293 HD
ENDBRANCH  59  62
ENDBRANCH  43  47
ENDBRANCH  36  38
ENDBRANCH  32  33
ENDBRANCH  31  32
ENDBRANCH   2  31
TORSDOF 18
BEGIN_RES LYS A 135
REMARK  4 active torsions:
REMARK  status: ('A' for Active; 'I' for Inactive)
REMARK    1  A    between atoms: CA   and  CB  
REMARK    2  A    between atoms: CB   and  CG  
REMARK    3  A    between atoms: CG   and  CD  
REMARK    4  A    between atoms: CD   and  CE  
ROOT
ATOM      1  CA  LYS A 135      33.193  34.663   9.290  1.00 25.02     0.186 C 
ENDROOT
BRANCH   1   2
ATOM      2  CB  LYS A 135      32.060  35.360  10.034  1.00 26.63     0.034 C 
BRANCH   2   3
ATOM      3  CG  LYS A 135      30.811  35.529   9.208  1.00 29.45     0.005 C 
BRANCH   3   4
ATOM      4  CD  LYS A 135      30.265  34.176   8.777  1.00 32.00     0.041 C 
BRANCH   4   5
ATOM      5  CE  LYS A 135      28.832  34.007   9.244  1.00 34.25     0.338 C 
ATOM      6  NZ  LYS A 135      27.871  34.457   8.199  1.00 35.99     0.618 N 
ENDBRANCH   4   5
ENDBRANCH   3   4
ENDBRANCH   2   3
ENDBRANCH   1   2
END_RES LYS A 135
BEGIN_RES ARG A 124
REMARK  4 active torsions:
REMARK  status: ('A' for Active; 'I' for Inactive)
REMARK    5  A    between atoms: CA   and  CB  
REMARK    6  A    between atoms: CB   and  CG  
REMARK    7  A    between atoms: CG   and  CD  
REMARK    8  A    between atoms: CD   and  NE  
REMARK       I    between atoms: NE   and  CZ  
ROOT
ATOM      7  CA  ARG A 124      31.045  26.515   9.594  1.00 17.84     0.186 C 
ENDROOT
BRANCH   7   8
ATOM      8  CB  ARG A 124      29.529  26.705   9.647  1.00 16.18     0.036 C 
BRANCH   8   9
ATOM      9  CG  ARG A 124      28.942  27.090  11.052  1.00 16.22     0.029 C 
BRANCH   9  10
ATOM     10  CD  ARG A 124      27.787  26.161  11.494  1.00 15.09     0.145 C 
BRANCH  10  11
ATOM     11  NE  ARG A 124      26.465  26.824  11.524  1.00 16.98    -0.083 NA
ATOM     12  CZ  ARG A 124      25.902  27.348  12.607  1.00 18.21     0.782 C 
ATOM     13  NH1 ARG A 124      26.516  27.326  13.784  1.00 21.11     0.063 N 
ATOM     14  NH2 ARG A 124      24.716  27.930  12.520  1.00 21.25     0.063 N 
ENDBRANCH  10  11
ENDBRANCH   9  10
ENDBRANCH   8   9
ENDBRANCH   7   8
END_RES ARG A 124
BEGIN_RES ASN A 133
REMARK  2 active torsions:
REMARK  status: ('A' for Active; 'I' for Inactive)
REMARK    9  A    between atoms: CA   and  CB  
REMARK   10  A    between atoms: CB   and  CG  
ROOT
ATOM     15  CA  ASN A 133      31.225  30.257  11.749  1.00 18.15     0.196 C 
ENDROOT
BRANCH  15  16
ATOM     16  CB  ASN A 133      30.092  31.240  11.460  1.00 18.27     0.126 C 
BRANCH  16  17
ATOM     17  CG  ASN A 133      28.769  30.792  11.999  1.00 18.94     0.276 C 
ATOM     18  OD1 ASN A 133      28.082  29.964  11.398  1.00 18.09    -0.269 OA
ATOM     19  ND2 ASN A 133      28.392  31.344  13.152  1.00 18.93    -0.107 N 
ENDBRANCH  16  17
ENDBRANCH  15  16
END_RES ASN A 133
BEGIN_RES LYS A 131
REMARK  4 active torsions:
REMARK  status: ('A' for Active; 'I' for Inactive)
REMARK   11  A    between atoms: CA   and  CB  
REMARK   12  A    between atoms: CB   and  CG  
REMARK   13  A    between atoms: CG   and  CD  
REMARK   14  A    between atoms: CD   and  CE  
ROOT
ATOM     20  CA  LYS A 131      29.867  25.555  16.977  1.00 20.52     0.186 C 
ENDROOT
BRANCH  20  21
ATOM     21  CB  LYS A 131      28.345  25.722  17.026  1.00 20.94     0.034 C 
BRANCH  21  22
ATOM     22  CG  LYS A 131      27.601  24.405  16.868  1.00 22.96     0.005 C 
BRANCH  22  23
ATOM     23  CD  LYS A 131      26.581  24.197  17.954  1.00 24.33     0.041 C 
BRANCH  23  24
ATOM     24  CE  LYS A 131      25.189  24.122  17.336  1.00 26.91     0.338 C 
ATOM     25  NZ  LYS A 131      24.163  23.933  18.390  1.00 27.40     0.618 N 
ENDBRANCH  23  24
ENDBRANCH  22  23
ENDBRANCH  21  22
ENDBRANCH  20  21
END_RES LYS A 131
