REMARK VINA RESULT:    -4.138      2.113      5.138
REMARK INTER + INTRA:         -19.406
REMARK INTER:                 -11.166
REMARK INTRA:                  -8.240
REMARK UNBOUND:                -9.705
REMARK SMILES CC(=O)N[C@@H]1[C@@H](O)C[C@](O)(C(=O)O)O[C@H]1C(O)[C@H](O)CNC(=O)OCc1cn(CCCCCCCCCCC(=O)O)nn1
REMARK SMILES IDX 29 1 28 2 26 3 27 4 43 5 42 6 25 7 24 8 22 9 21 10 23 12
REMARK SMILES IDX 20 13 18 14 16 15 15 16 9 17 8 18 14 19 6 20 5 21 10 22
REMARK SMILES IDX 11 24 12 25 13 26 7 28 4 30 2 31 1 33 3 34 17 35 19 37 30 39
REMARK SMILES IDX 31 40 32 41 33 42 34 43 35 44 36 45 37 46 38 47 39 48 40 49
REMARK SMILES IDX 41 50
REMARK H PARENT 21 11 10 23 13 27 7 29 4 32 17 36 19 38 41 51
REMARK Flexibility Score: inf
ROOT
ATOM      1  C   UNL     1      23.925  35.368  12.273  1.00  0.00     0.146 C 
ENDROOT
BRANCH   1   2
ATOM      2  N   UNL     1      23.795  33.969  12.583  1.00  0.00    -0.252 N 
ATOM      3  C   UNL     1      23.060  31.920  13.009  1.00  0.00     0.120 A 
ATOM      4  C   UNL     1      22.691  33.209  12.688  1.00  0.00     0.138 A 
ATOM      5  N   UNL     1      24.415  31.975  13.082  1.00  0.00    -0.132 NA
ATOM      6  N   UNL     1      24.854  33.183  12.832  1.00  0.00    -0.067 NA
BRANCH   3   7
ATOM      7  C   UNL     1      22.254  30.717  13.233  1.00  0.00     0.294 C 
BRANCH   7   8
ATOM      8  O   UNL     1      22.074  30.364  14.574  1.00  0.00    -0.443 OA
BRANCH   8   9
ATOM      9  C   UNL     1      23.117  29.989  15.411  1.00  0.00     0.407 C 
ATOM     10  N   UNL     1      23.958  30.949  16.025  1.00  0.00    -0.319 N 
ATOM     11  H   UNL     1      23.801  31.959  15.854  1.00  0.00     0.167 HD
ATOM     12  O   UNL     1      23.272  28.740  15.593  1.00  0.00    -0.225 OA
BRANCH  10  13
ATOM     13  C   UNL     1      25.014  30.513  16.876  1.00  0.00     0.154 C 
BRANCH  13  14
ATOM     14  C   UNL     1      26.385  30.965  16.436  1.00  0.00     0.165 C 
BRANCH  14  15
ATOM     15  C   UNL     1      26.561  32.453  16.549  1.00  0.00     0.176 C 
BRANCH  15  16
ATOM     16  C   UNL     1      28.063  32.721  16.701  1.00  0.00     0.178 C 
ATOM     17  C   UNL     1      30.021  32.530  15.474  1.00  0.00     0.269 C 
ATOM     18  C   UNL     1      30.512  31.363  16.301  1.00  0.00     0.112 C 
ATOM     19  O   UNL     1      28.638  32.501  15.493  1.00  0.00    -0.332 OA
ATOM     20  C   UNL     1      30.046  31.524  17.704  1.00  0.00     0.145 C 
ATOM     21  C   UNL     1      28.585  31.887  17.831  1.00  0.00     0.142 C 
BRANCH  17  22
ATOM     22  O   UNL     1      30.416  32.259  14.164  1.00  0.00    -0.357 OA
ATOM     23  H   UNL     1      31.255  31.720  14.247  1.00  0.00     0.214 HD
ENDBRANCH  17  22
BRANCH  17  24
ATOM     24  C   UNL     1      30.611  33.800  15.892  1.00  0.00     0.364 C 
ATOM     25  O   UNL     1      30.057  34.880  15.587  1.00  0.00    -0.246 OA
BRANCH  24  26
ATOM     26  O   UNL     1      31.783  33.892  16.630  1.00  0.00    -0.477 OA
ATOM     27  H   UNL     1      31.702  34.232  17.584  1.00  0.00     0.296 HD
ENDBRANCH  24  26
ENDBRANCH  17  24
BRANCH  20  28
ATOM     28  O   UNL     1      30.308  30.335  18.410  1.00  0.00    -0.391 OA
ATOM     29  H   UNL     1      29.581  29.686  18.265  1.00  0.00     0.211 HD
ENDBRANCH  20  28
BRANCH  21  30
ATOM     30  N   UNL     1      28.328  32.489  19.125  1.00  0.00    -0.348 N 
ATOM     31  C   UNL     1      27.798  31.706  20.184  1.00  0.00     0.217 C 
ATOM     32  H   UNL     1      28.530  33.520  19.300  1.00  0.00     0.163 HD
ATOM     33  C   UNL     1      27.556  32.397  21.499  1.00  0.00     0.114 C 
ATOM     34  O   UNL     1      27.540  30.483  20.035  1.00  0.00    -0.275 OA
ENDBRANCH  21  30
ENDBRANCH  15  16
BRANCH  15  35
ATOM     35  O   UNL     1      26.042  33.142  15.470  1.00  0.00    -0.388 OA
ATOM     36  H   UNL     1      25.520  33.936  15.687  1.00  0.00     0.211 HD
ENDBRANCH  15  35
ENDBRANCH  14  15
BRANCH  14  37
ATOM     37  O   UNL     1      26.505  30.586  15.091  1.00  0.00    -0.388 OA
ATOM     38  H   UNL     1      25.621  30.586  14.636  1.00  0.00     0.211 HD
ENDBRANCH  14  37
ENDBRANCH  13  14
ENDBRANCH  10  13
ENDBRANCH   8   9
ENDBRANCH   7   8
ENDBRANCH   3   7
ENDBRANCH   1   2
BRANCH   1  39
ATOM     39  C   UNL     1      23.527  35.695  10.864  1.00  0.00     0.024 C 
BRANCH  39  40
ATOM     40  C   UNL     1      24.526  35.279   9.834  1.00  0.00     0.002 C 
BRANCH  40  41
ATOM     41  C   UNL     1      25.038  36.421   8.997  1.00  0.00     0.000 C 
BRANCH  41  42
ATOM     42  C   UNL     1      26.149  36.038   8.073  1.00  0.00     0.000 C 
BRANCH  42  43
ATOM     43  C   UNL     1      26.653  34.654   8.213  1.00  0.00     0.000 C 
BRANCH  43  44
ATOM     44  C   UNL     1      28.070  34.507   8.593  1.00  0.00     0.000 C 
BRANCH  44  45
ATOM     45  C   UNL     1      28.834  35.614   9.169  1.00  0.00     0.001 C 
BRANCH  45  46
ATOM     46  C   UNL     1      28.817  36.072  10.544  1.00  0.00     0.012 C 
BRANCH  46  47
ATOM     47  C   UNL     1      27.826  35.515  11.512  1.00  0.00     0.122 C 
BRANCH  47  48
ATOM     48  C   UNL     1      28.439  34.431  12.365  1.00  0.00     0.303 C 
ATOM     49  O   UNL     1      29.644  34.183  12.292  1.00  0.00    -0.252 OA
BRANCH  48  50
ATOM     50  O   UNL     1      27.663  33.700  13.241  1.00  0.00    -0.481 OA
ATOM     51  H   UNL     1      26.643  33.819  13.199  1.00  0.00     0.296 HD
ENDBRANCH  48  50
ENDBRANCH  47  48
ENDBRANCH  46  47
ENDBRANCH  45  46
ENDBRANCH  44  45
ENDBRANCH  43  44
ENDBRANCH  42  43
ENDBRANCH  41  42
ENDBRANCH  40  41
ENDBRANCH  39  40
ENDBRANCH   1  39
TORSDOF 26
BEGIN_RES LYS A 135
REMARK  4 active torsions:
REMARK  status: ('A' for Active; 'I' for Inactive)
REMARK    1  A    between atoms: CA   and  CB  
REMARK    2  A    between atoms: CB   and  CG  
REMARK    3  A    between atoms: CG   and  CD  
REMARK    4  A    between atoms: CD   and  CE  
ROOT
ATOM      1  CA  LYS A 135      33.193  34.663   9.290  1.00 25.02     0.186 C 
ENDROOT
BRANCH   1   2
ATOM      2  CB  LYS A 135      32.060  35.360  10.034  1.00 26.63     0.034 C 
BRANCH   2   3
ATOM      3  CG  LYS A 135      32.446  35.836  11.411  1.00 29.45     0.005 C 
BRANCH   3   4
ATOM      4  CD  LYS A 135      32.037  37.287  11.611  1.00 32.00     0.041 C 
BRANCH   4   5
ATOM      5  CE  LYS A 135      31.408  37.479  12.978  1.00 34.25     0.338 C 
ATOM      6  NZ  LYS A 135      30.268  38.435  12.913  1.00 35.99     0.618 N 
ENDBRANCH   4   5
ENDBRANCH   3   4
ENDBRANCH   2   3
ENDBRANCH   1   2
END_RES LYS A 135
BEGIN_RES ARG A 124
REMARK  4 active torsions:
REMARK  status: ('A' for Active; 'I' for Inactive)
REMARK    5  A    between atoms: CA   and  CB  
REMARK    6  A    between atoms: CB   and  CG  
REMARK    7  A    between atoms: CG   and  CD  
REMARK    8  A    between atoms: CD   and  NE  
REMARK       I    between atoms: NE   and  CZ  
ROOT
ATOM      7  CA  ARG A 124      31.045  26.515   9.594  1.00 17.84     0.186 C 
ENDROOT
BRANCH   7   8
ATOM      8  CB  ARG A 124      29.529  26.705   9.647  1.00 16.18     0.036 C 
BRANCH   8   9
ATOM      9  CG  ARG A 124      28.905  26.789  11.086  1.00 16.22     0.029 C 
BRANCH   9  10
ATOM     10  CD  ARG A 124      27.531  26.089  11.186  1.00 15.09     0.145 C 
BRANCH  10  11
ATOM     11  NE  ARG A 124      26.403  27.016  11.425  1.00 16.98    -0.083 NA
ATOM     12  CZ  ARG A 124      26.086  27.539  12.605  1.00 18.21     0.782 C 
ATOM     13  NH1 ARG A 124      26.795  27.265  13.694  1.00 21.11     0.063 N 
ATOM     14  NH2 ARG A 124      25.060  28.370  12.706  1.00 21.25     0.063 N 
ENDBRANCH  10  11
ENDBRANCH   9  10
ENDBRANCH   8   9
ENDBRANCH   7   8
END_RES ARG A 124
BEGIN_RES ASN A 133
REMARK  2 active torsions:
REMARK  status: ('A' for Active; 'I' for Inactive)
REMARK    9  A    between atoms: CA   and  CB  
REMARK   10  A    between atoms: CB   and  CG  
ROOT
ATOM     15  CA  ASN A 133      31.225  30.257  11.749  1.00 18.15     0.196 C 
ENDROOT
BRANCH  15  16
ATOM     16  CB  ASN A 133      30.092  31.240  11.460  1.00 18.27     0.126 C 
BRANCH  16  17
ATOM     17  CG  ASN A 133      28.731  30.650  11.663  1.00 18.94     0.276 C 
ATOM     18  OD1 ASN A 133      28.066  30.910  12.668  1.00 18.09    -0.269 OA
ATOM     19  ND2 ASN A 133      28.298  29.838  10.699  1.00 18.93    -0.107 N 
ENDBRANCH  16  17
ENDBRANCH  15  16
END_RES ASN A 133
BEGIN_RES LYS A 131
REMARK  4 active torsions:
REMARK  status: ('A' for Active; 'I' for Inactive)
REMARK   11  A    between atoms: CA   and  CB  
REMARK   12  A    between atoms: CB   and  CG  
REMARK   13  A    between atoms: CG   and  CD  
REMARK   14  A    between atoms: CD   and  CE  
ROOT
ATOM     20  CA  LYS A 131      29.867  25.555  16.977  1.00 20.52     0.186 C 
ENDROOT
BRANCH  20  21
ATOM     21  CB  LYS A 131      28.345  25.722  17.026  1.00 20.94     0.034 C 
BRANCH  21  22
ATOM     22  CG  LYS A 131      27.855  26.292  18.348  1.00 22.96     0.005 C 
BRANCH  22  23
ATOM     23  CD  LYS A 131      26.793  27.338  18.155  1.00 24.33     0.041 C 
BRANCH  23  24
ATOM     24  CE  LYS A 131      25.716  27.173  19.222  1.00 26.91     0.338 C 
ATOM     25  NZ  LYS A 131      24.373  27.427  18.648  1.00 27.40     0.618 N 
ENDBRANCH  23  24
ENDBRANCH  22  23
ENDBRANCH  21  22
ENDBRANCH  20  21
END_RES LYS A 131
