REMARK VINA RESULT:    -5.643      0.000      0.000
REMARK INTER + INTRA:         -17.719
REMARK INTER:                  -9.969
REMARK INTRA:                  -7.750
REMARK UNBOUND:                -7.952
REMARK SMILES CC(=O)N[C@@H]1[C@@H](O)C[C@](O)(C(=O)O)O[C@H]1C(O)[C@H](O)CNC(=O)OCc1cn(-c2cccc(Cl)c2)nn1
REMARK SMILES IDX 20 1 18 2 16 3 15 4 9 5 8 6 14 7 6 8 5 9 10 10 11 12 12 13
REMARK SMILES IDX 13 14 7 16 4 18 2 19 1 21 3 22 17 23 19 25 21 27 22 28 23 30
REMARK SMILES IDX 24 31 25 32 26 33 27 34 37 35 28 36 36 37 29 38 30 39 35 40
REMARK SMILES IDX 31 41 33 42 32 43 34 44
REMARK H PARENT 10 11 13 15 7 17 4 20 17 24 19 26 21 29
REMARK Flexibility Score: inf
ROOT
ATOM      1  C   UNL     1      32.930  37.573  18.031  1.00  0.00     0.154 C 
ENDROOT
BRANCH   1   2
ATOM      2  C   UNL     1      32.258  37.068  16.802  1.00  0.00     0.165 C 
BRANCH   2   3
ATOM      3  C   UNL     1      32.690  35.705  16.342  1.00  0.00     0.176 C 
BRANCH   3   4
ATOM      4  C   UNL     1      31.579  34.826  15.874  1.00  0.00     0.178 C 
ATOM      5  C   UNL     1      30.865  32.617  15.939  1.00  0.00     0.269 C 
ATOM      6  C   UNL     1      29.599  33.235  15.365  1.00  0.00     0.112 C 
ATOM      7  O   UNL     1      31.719  33.575  16.444  1.00  0.00    -0.332 OA
ATOM      8  C   UNL     1      29.987  34.091  14.206  1.00  0.00     0.145 C 
ATOM      9  C   UNL     1      31.387  34.729  14.405  1.00  0.00     0.142 C 
BRANCH   5  10
ATOM     10  O   UNL     1      31.442  31.892  14.898  1.00  0.00    -0.357 OA
ATOM     11  H   UNL     1      32.154  32.398  14.472  1.00  0.00     0.214 HD
ENDBRANCH   5  10
BRANCH   5  12
ATOM     12  C   UNL     1      30.532  31.672  17.028  1.00  0.00     0.364 C 
ATOM     13  O   UNL     1      30.690  31.998  18.215  1.00  0.00    -0.246 OA
BRANCH  12  14
ATOM     14  O   UNL     1      30.036  30.401  16.755  1.00  0.00    -0.477 OA
ATOM     15  H   UNL     1      29.693  30.232  15.819  1.00  0.00     0.296 HD
ENDBRANCH  12  14
ENDBRANCH   5  12
BRANCH   8  16
ATOM     16  O   UNL     1      30.087  33.272  13.076  1.00  0.00    -0.391 OA
ATOM     17  H   UNL     1      30.886  33.533  12.536  1.00  0.00     0.211 HD
ENDBRANCH   8  16
BRANCH   9  18
ATOM     18  N   UNL     1      31.251  36.069  13.816  1.00  0.00    -0.348 N 
ATOM     19  C   UNL     1      32.021  36.550  12.753  1.00  0.00     0.217 C 
ATOM     20  H   UNL     1      30.519  36.678  14.246  1.00  0.00     0.163 HD
ATOM     21  C   UNL     1      31.828  37.922  12.216  1.00  0.00     0.114 C 
ATOM     22  O   UNL     1      32.897  35.834  12.226  1.00  0.00    -0.275 OA
ENDBRANCH   9  18
ENDBRANCH   3   4
BRANCH   3  23
ATOM     23  O   UNL     1      33.614  35.794  15.297  1.00  0.00    -0.388 OA
ATOM     24  H   UNL     1      34.127  34.953  15.220  1.00  0.00     0.211 HD
ENDBRANCH   3  23
ENDBRANCH   2   3
BRANCH   2  25
ATOM     25  O   UNL     1      32.521  38.004  15.766  1.00  0.00    -0.388 OA
ATOM     26  H   UNL     1      33.423  37.770  15.420  1.00  0.00     0.211 HD
ENDBRANCH   2  25
ENDBRANCH   1   2
BRANCH   1  27
ATOM     27  N   UNL     1      34.145  36.883  18.397  1.00  0.00    -0.319 N 
ATOM     28  C   UNL     1      34.136  35.987  19.535  1.00  0.00     0.407 C 
ATOM     29  H   UNL     1      35.058  36.964  17.901  1.00  0.00     0.167 HD
ATOM     30  O   UNL     1      33.064  35.838  20.173  1.00  0.00    -0.225 OA
BRANCH  28  31
ATOM     31  O   UNL     1      35.257  35.307  19.927  1.00  0.00    -0.443 OA
BRANCH  31  32
ATOM     32  C   UNL     1      36.538  35.859  19.764  1.00  0.00     0.294 C 
BRANCH  32  33
ATOM     33  C   UNL     1      37.279  35.147  18.667  1.00  0.00     0.121 A 
ATOM     34  C   UNL     1      37.399  35.534  17.339  1.00  0.00     0.144 A 
ATOM     35  N   UNL     1      37.968  33.996  18.758  1.00  0.00    -0.131 NA
ATOM     36  N   UNL     1      38.142  34.623  16.687  1.00  0.00    -0.220 N 
ATOM     37  N   UNL     1      38.478  33.695  17.566  1.00  0.00    -0.062 NA
BRANCH  36  38
ATOM     38  C   UNL     1      38.531  34.596  15.320  1.00  0.00     0.068 A 
ATOM     39  C   UNL     1      39.734  35.145  14.915  1.00  0.00     0.028 A 
ATOM     40  C   UNL     1      37.744  34.029  14.338  1.00  0.00     0.049 A 
ATOM     41  C   UNL     1      40.124  35.124  13.584  1.00  0.00     0.004 A 
ATOM     42  C   UNL     1      38.121  34.001  13.011  1.00  0.00     0.043 A 
ATOM     43  C   UNL     1      39.322  34.552  12.616  1.00  0.00     0.020 A 
ATOM     44  Cl  UNL     1      37.083  33.266  11.784  1.00  0.00    -0.084 Cl
ENDBRANCH  36  38
ENDBRANCH  32  33
ENDBRANCH  31  32
ENDBRANCH  28  31
ENDBRANCH   1  27
TORSDOF 15
BEGIN_RES LYS A 135
REMARK  4 active torsions:
REMARK  status: ('A' for Active; 'I' for Inactive)
REMARK    1  A    between atoms: CA   and  CB  
REMARK    2  A    between atoms: CB   and  CG  
REMARK    3  A    between atoms: CG   and  CD  
REMARK    4  A    between atoms: CD   and  CE  
ROOT
ATOM      1  CA  LYS A 135      33.193  34.663   9.290  1.00 25.02     0.186 C 
ENDROOT
BRANCH   1   2
ATOM      2  CB  LYS A 135      32.060  35.360  10.034  1.00 26.63     0.034 C 
BRANCH   2   3
ATOM      3  CG  LYS A 135      30.715  34.714   9.825  1.00 29.45     0.005 C 
BRANCH   3   4
ATOM      4  CD  LYS A 135      30.404  34.588   8.342  1.00 32.00     0.041 C 
BRANCH   4   5
ATOM      5  CE  LYS A 135      29.081  35.254   8.016  1.00 34.25     0.338 C 
ATOM      6  NZ  LYS A 135      28.973  35.547   6.560  1.00 35.99     0.618 N 
ENDBRANCH   4   5
ENDBRANCH   3   4
ENDBRANCH   2   3
ENDBRANCH   1   2
END_RES LYS A 135
BEGIN_RES ARG A 124
REMARK  4 active torsions:
REMARK  status: ('A' for Active; 'I' for Inactive)
REMARK    5  A    between atoms: CA   and  CB  
REMARK    6  A    between atoms: CB   and  CG  
REMARK    7  A    between atoms: CG   and  CD  
REMARK    8  A    between atoms: CD   and  NE  
REMARK       I    between atoms: NE   and  CZ  
ROOT
ATOM      7  CA  ARG A 124      31.045  26.515   9.594  1.00 17.84     0.186 C 
ENDROOT
BRANCH   7   8
ATOM      8  CB  ARG A 124      29.529  26.705   9.647  1.00 16.18     0.036 C 
BRANCH   8   9
ATOM      9  CG  ARG A 124      28.913  26.848  11.084  1.00 16.22     0.029 C 
BRANCH   9  10
ATOM     10  CD  ARG A 124      27.528  26.172  11.213  1.00 15.09     0.145 C 
BRANCH  10  11
ATOM     11  NE  ARG A 124      26.452  27.090  11.645  1.00 16.98    -0.083 NA
ATOM     12  CZ  ARG A 124      26.232  27.466  12.901  1.00 18.21     0.782 C 
ATOM     13  NH1 ARG A 124      27.000  27.036  13.894  1.00 21.11     0.063 N 
ATOM     14  NH2 ARG A 124      25.244  28.304  13.176  1.00 21.25     0.063 N 
ENDBRANCH  10  11
ENDBRANCH   9  10
ENDBRANCH   8   9
ENDBRANCH   7   8
END_RES ARG A 124
BEGIN_RES ASN A 133
REMARK  2 active torsions:
REMARK  status: ('A' for Active; 'I' for Inactive)
REMARK    9  A    between atoms: CA   and  CB  
REMARK   10  A    between atoms: CB   and  CG  
ROOT
ATOM     15  CA  ASN A 133      31.225  30.257  11.749  1.00 18.15     0.196 C 
ENDROOT
BRANCH  15  16
ATOM     16  CB  ASN A 133      30.092  31.240  11.460  1.00 18.27     0.126 C 
BRANCH  16  17
ATOM     17  CG  ASN A 133      28.745  30.590  11.403  1.00 18.94     0.276 C 
ATOM     18  OD1 ASN A 133      28.415  29.886  10.446  1.00 18.09    -0.269 OA
ATOM     19  ND2 ASN A 133      27.941  30.822  12.440  1.00 18.93    -0.107 N 
ENDBRANCH  16  17
ENDBRANCH  15  16
END_RES ASN A 133
BEGIN_RES LYS A 131
REMARK  4 active torsions:
REMARK  status: ('A' for Active; 'I' for Inactive)
REMARK   11  A    between atoms: CA   and  CB  
REMARK   12  A    between atoms: CB   and  CG  
REMARK   13  A    between atoms: CG   and  CD  
REMARK   14  A    between atoms: CD   and  CE  
ROOT
ATOM     20  CA  LYS A 131      29.867  25.555  16.977  1.00 20.52     0.186 C 
ENDROOT
BRANCH  20  21
ATOM     21  CB  LYS A 131      28.345  25.722  17.026  1.00 20.94     0.034 C 
BRANCH  21  22
ATOM     22  CG  LYS A 131      27.600  24.409  16.837  1.00 22.96     0.005 C 
BRANCH  22  23
ATOM     23  CD  LYS A 131      26.214  24.456  17.418  1.00 24.33     0.041 C 
BRANCH  23  24
ATOM     24  CE  LYS A 131      25.664  25.874  17.310  1.00 26.91     0.338 C 
ATOM     25  NZ  LYS A 131      24.657  25.958  16.225  1.00 27.40     0.618 N 
ENDBRANCH  23  24
ENDBRANCH  22  23
ENDBRANCH  21  22
ENDBRANCH  20  21
END_RES LYS A 131
