REMARK VINA RESULT:    -5.233      5.931      9.496
REMARK INTER + INTRA:         -17.417
REMARK INTER:                 -10.221
REMARK INTRA:                  -7.197
REMARK UNBOUND:                -8.360
REMARK SMILES CC(=O)N[C@@H]1[C@@H](O)C[C@](O)(C(=O)O)O[C@H]1C(O)[C@H](O)CNC(=O)OCc1cn(-c2ccc(C)cc2)nn1
REMARK SMILES IDX 20 1 18 2 16 3 15 4 9 5 8 6 14 7 6 8 5 9 10 10 11 12 12 13
REMARK SMILES IDX 13 14 7 16 4 18 2 19 1 21 3 22 17 23 19 25 21 27 22 28 23 30
REMARK SMILES IDX 24 31 25 32 26 33 27 34 37 35 28 36 36 37 29 38 30 39 35 40
REMARK SMILES IDX 31 41 34 42 32 43 33 44
REMARK H PARENT 10 11 13 15 7 17 4 20 17 24 19 26 21 29
REMARK Flexibility Score: inf
ROOT
ATOM      1  C   UNL     1      37.163  36.348  17.439  1.00  0.00     0.154 C 
ENDROOT
BRANCH   1   2
ATOM      2  C   UNL     1      38.014  35.167  17.754  1.00  0.00     0.165 C 
BRANCH   2   3
ATOM      3  C   UNL     1      38.303  34.416  16.462  1.00  0.00     0.176 C 
BRANCH   3   4
ATOM      4  C   UNL     1      38.182  35.309  15.249  1.00  0.00     0.178 C 
ATOM      5  C   UNL     1      37.758  33.800  13.514  1.00  0.00     0.269 C 
ATOM      6  C   UNL     1      38.994  34.211  12.758  1.00  0.00     0.112 C 
ATOM      7  O   UNL     1      37.327  34.819  14.297  1.00  0.00    -0.332 OA
ATOM      8  C   UNL     1      40.050  34.819  13.627  1.00  0.00     0.145 C 
ATOM      9  C   UNL     1      39.535  35.707  14.714  1.00  0.00     0.142 C 
BRANCH   5  10
ATOM     10  O   UNL     1      38.002  32.612  14.167  1.00  0.00    -0.357 OA
ATOM     11  H   UNL     1      37.507  31.893  13.693  1.00  0.00     0.214 HD
ENDBRANCH   5  10
BRANCH   5  12
ATOM     12  C   UNL     1      36.708  33.544  12.490  1.00  0.00     0.364 C 
ATOM     13  O   UNL     1      36.999  33.319  11.280  1.00  0.00    -0.246 OA
BRANCH  12  14
ATOM     14  O   UNL     1      35.372  33.541  12.826  1.00  0.00    -0.477 OA
ATOM     15  H   UNL     1      34.618  33.800  12.193  1.00  0.00     0.296 HD
ENDBRANCH  12  14
ENDBRANCH   5  12
BRANCH   8  16
ATOM     16  O   UNL     1      40.849  33.783  14.123  1.00  0.00    -0.391 OA
ATOM     17  H   UNL     1      41.651  33.715  13.555  1.00  0.00     0.211 HD
ENDBRANCH   8  16
BRANCH   9  18
ATOM     18  N   UNL     1      39.539  37.089  14.282  1.00  0.00    -0.348 N 
ATOM     19  C   UNL     1      39.920  38.100  15.188  1.00  0.00     0.217 C 
ATOM     20  H   UNL     1      39.258  37.356  13.287  1.00  0.00     0.163 HD
ATOM     21  C   UNL     1      39.928  39.504  14.763  1.00  0.00     0.114 C 
ATOM     22  O   UNL     1      40.254  37.807  16.360  1.00  0.00    -0.275 OA
ENDBRANCH   9  18
ENDBRANCH   3   4
BRANCH   3  23
ATOM     23  O   UNL     1      39.581  33.871  16.471  1.00  0.00    -0.388 OA
ATOM     24  H   UNL     1      40.117  34.141  17.256  1.00  0.00     0.211 HD
ENDBRANCH   3  23
ENDBRANCH   2   3
BRANCH   2  25
ATOM     25  O   UNL     1      37.519  34.273  18.674  1.00  0.00    -0.388 OA
ATOM     26  H   UNL     1      38.164  33.604  18.993  1.00  0.00     0.211 HD
ENDBRANCH   2  25
ENDBRANCH   1   2
BRANCH   1  27
ATOM     27  N   UNL     1      35.769  36.066  17.615  1.00  0.00    -0.319 N 
ATOM     28  C   UNL     1      34.706  36.955  17.320  1.00  0.00     0.407 C 
ATOM     29  H   UNL     1      35.458  35.109  18.002  1.00  0.00     0.167 HD
ATOM     30  O   UNL     1      34.932  38.093  16.855  1.00  0.00    -0.225 OA
BRANCH  28  31
ATOM     31  O   UNL     1      33.364  36.570  17.547  1.00  0.00    -0.443 OA
BRANCH  31  32
ATOM     32  C   UNL     1      32.937  35.347  16.980  1.00  0.00     0.294 C 
BRANCH  32  33
ATOM     33  C   UNL     1      32.807  35.539  15.492  1.00  0.00     0.121 A 
ATOM     34  C   UNL     1      32.018  36.467  14.841  1.00  0.00     0.144 A 
ATOM     35  N   UNL     1      33.426  34.857  14.509  1.00  0.00    -0.131 NA
ATOM     36  N   UNL     1      32.176  36.325  13.511  1.00  0.00    -0.220 N 
ATOM     37  N   UNL     1      33.034  35.342  13.346  1.00  0.00    -0.062 NA
BRANCH  36  38
ATOM     38  C   UNL     1      31.573  37.054  12.445  1.00  0.00     0.066 A 
ATOM     39  C   UNL     1      30.216  37.322  12.451  1.00  0.00     0.029 A 
ATOM     40  C   UNL     1      32.293  37.525  11.365  1.00  0.00     0.029 A 
ATOM     41  C   UNL     1      29.606  38.025  11.432  1.00  0.00     0.005 A 
ATOM     42  C   UNL     1      31.689  38.228  10.343  1.00  0.00     0.005 A 
ATOM     43  C   UNL     1      30.336  38.490  10.358  1.00  0.00    -0.051 A 
ATOM     44  C   UNL     1      29.649  39.249   9.268  1.00  0.00     0.044 C 
ENDBRANCH  36  38
ENDBRANCH  32  33
ENDBRANCH  31  32
ENDBRANCH  28  31
ENDBRANCH   1  27
TORSDOF 15
BEGIN_RES LYS A 135
REMARK  4 active torsions:
REMARK  status: ('A' for Active; 'I' for Inactive)
REMARK    1  A    between atoms: CA   and  CB  
REMARK    2  A    between atoms: CB   and  CG  
REMARK    3  A    between atoms: CG   and  CD  
REMARK    4  A    between atoms: CD   and  CE  
ROOT
ATOM      1  CA  LYS A 135      33.193  34.663   9.290  1.00 25.02     0.186 C 
ENDROOT
BRANCH   1   2
ATOM      2  CB  LYS A 135      32.060  35.360  10.034  1.00 26.63     0.034 C 
BRANCH   2   3
ATOM      3  CG  LYS A 135      30.711  34.728   9.806  1.00 29.45     0.005 C 
BRANCH   3   4
ATOM      4  CD  LYS A 135      30.258  34.935   8.369  1.00 32.00     0.041 C 
BRANCH   4   5
ATOM      5  CE  LYS A 135      28.778  34.633   8.228  1.00 34.25     0.338 C 
ATOM      6  NZ  LYS A 135      28.271  33.874   9.405  1.00 35.99     0.618 N 
ENDBRANCH   4   5
ENDBRANCH   3   4
ENDBRANCH   2   3
ENDBRANCH   1   2
END_RES LYS A 135
BEGIN_RES ARG A 124
REMARK  4 active torsions:
REMARK  status: ('A' for Active; 'I' for Inactive)
REMARK    5  A    between atoms: CA   and  CB  
REMARK    6  A    between atoms: CB   and  CG  
REMARK    7  A    between atoms: CG   and  CD  
REMARK    8  A    between atoms: CD   and  NE  
REMARK       I    between atoms: NE   and  CZ  
ROOT
ATOM      7  CA  ARG A 124      31.045  26.515   9.594  1.00 17.84     0.186 C 
ENDROOT
BRANCH   7   8
ATOM      8  CB  ARG A 124      29.529  26.705   9.647  1.00 16.18     0.036 C 
BRANCH   8   9
ATOM      9  CG  ARG A 124      29.019  27.824  10.624  1.00 16.22     0.029 C 
BRANCH   9  10
ATOM     10  CD  ARG A 124      28.454  27.255  11.945  1.00 15.09     0.145 C 
BRANCH  10  11
ATOM     11  NE  ARG A 124      27.040  26.827  11.856  1.00 16.98    -0.083 NA
ATOM     12  CZ  ARG A 124      25.996  27.584  12.175  1.00 18.21     0.782 C 
ATOM     13  NH1 ARG A 124      26.152  28.831  12.600  1.00 21.11     0.063 N 
ATOM     14  NH2 ARG A 124      24.768  27.104  12.046  1.00 21.25     0.063 N 
ENDBRANCH  10  11
ENDBRANCH   9  10
ENDBRANCH   8   9
ENDBRANCH   7   8
END_RES ARG A 124
BEGIN_RES ASN A 133
REMARK  2 active torsions:
REMARK  status: ('A' for Active; 'I' for Inactive)
REMARK    9  A    between atoms: CA   and  CB  
REMARK   10  A    between atoms: CB   and  CG  
ROOT
ATOM     15  CA  ASN A 133      31.225  30.257  11.749  1.00 18.15     0.196 C 
ENDROOT
BRANCH  15  16
ATOM     16  CB  ASN A 133      30.092  31.240  11.460  1.00 18.27     0.126 C 
BRANCH  16  17
ATOM     17  CG  ASN A 133      29.450  31.783  12.699  1.00 18.94     0.276 C 
ATOM     18  OD1 ASN A 133      29.936  32.741  13.302  1.00 18.09    -0.269 OA
ATOM     19  ND2 ASN A 133      28.337  31.168  13.096  1.00 18.93    -0.107 N 
ENDBRANCH  16  17
ENDBRANCH  15  16
END_RES ASN A 133
BEGIN_RES LYS A 131
REMARK  4 active torsions:
REMARK  status: ('A' for Active; 'I' for Inactive)
REMARK   11  A    between atoms: CA   and  CB  
REMARK   12  A    between atoms: CB   and  CG  
REMARK   13  A    between atoms: CG   and  CD  
REMARK   14  A    between atoms: CD   and  CE  
ROOT
ATOM     20  CA  LYS A 131      29.867  25.555  16.977  1.00 20.52     0.186 C 
ENDROOT
BRANCH  20  21
ATOM     21  CB  LYS A 131      28.345  25.722  17.026  1.00 20.94     0.034 C 
BRANCH  21  22
ATOM     22  CG  LYS A 131      27.728  25.921  15.650  1.00 22.96     0.005 C 
BRANCH  22  23
ATOM     23  CD  LYS A 131      26.820  27.119  15.605  1.00 24.33     0.041 C 
BRANCH  23  24
ATOM     24  CE  LYS A 131      25.378  26.673  15.820  1.00 26.91     0.338 C 
ATOM     25  NZ  LYS A 131      24.779  27.389  16.972  1.00 27.40     0.618 N 
ENDBRANCH  23  24
ENDBRANCH  22  23
ENDBRANCH  21  22
ENDBRANCH  20  21
END_RES LYS A 131
