REMARK VINA RESULT:    -6.022      7.646     13.504
REMARK INTER + INTRA:         -18.199
REMARK INTER:                  -9.850
REMARK INTRA:                  -8.349
REMARK UNBOUND:                -6.721
REMARK SMILES CC(=O)N[C@@H]1[C@@H](O)C[C@](O)(C(=O)O)O[C@H]1C(O)[C@H](O)CNC(=O)OCc1cn(CC(=O)NCc2cccs2)nn1
REMARK SMILES IDX 21 1 22 2 23 3 20 5 18 6 16 7 15 8 9 9 8 10 14 11 6 12 5 13
REMARK SMILES IDX 10 14 11 16 12 17 13 18 7 20 4 22 2 23 1 25 3 26 17 27 19 29
REMARK SMILES IDX 24 31 25 32 26 33 27 34 40 35 28 36 39 37 29 38 30 39 31 40
REMARK SMILES IDX 32 41 33 43 34 44 35 45 38 46 36 47 37 48
REMARK H PARENT 21 4 10 15 13 19 7 21 4 24 17 28 19 30 32 42
REMARK Flexibility Score: inf
ROOT
ATOM      1  N   UNL     1      28.241  29.401  18.133  1.00  0.00    -0.319 N 
ATOM      2  C   UNL     1      27.844  30.605  17.540  1.00  0.00     0.407 C 
ATOM      3  O   UNL     1      26.608  30.809  17.331  1.00  0.00    -0.225 OA
ATOM      4  H   UNL     1      29.286  29.261  18.292  1.00  0.00     0.167 HD
ENDROOT
BRANCH   1   5
ATOM      5  C   UNL     1      27.304  28.371  18.520  1.00  0.00     0.154 C 
BRANCH   5   6
ATOM      6  C   UNL     1      27.680  27.810  19.848  1.00  0.00     0.165 C 
BRANCH   6   7
ATOM      7  C   UNL     1      29.130  27.857  20.176  1.00  0.00     0.176 C 
BRANCH   7   8
ATOM      8  C   UNL     1      29.465  28.787  21.291  1.00  0.00     0.178 C 
ATOM      9  C   UNL     1      30.739  30.517  20.389  1.00  0.00     0.269 C 
ATOM     10  C   UNL     1      31.964  30.160  21.207  1.00  0.00     0.112 C 
ATOM     11  O   UNL     1      29.554  30.112  20.970  1.00  0.00    -0.332 OA
ATOM     12  C   UNL     1      31.986  28.665  21.351  1.00  0.00     0.145 C 
ATOM     13  C   UNL     1      30.702  28.244  21.986  1.00  0.00     0.142 C 
BRANCH   9  14
ATOM     14  O   UNL     1      30.928  29.966  19.126  1.00  0.00    -0.357 OA
ATOM     15  H   UNL     1      30.787  28.980  19.244  1.00  0.00     0.214 HD
ENDBRANCH   9  14
BRANCH   9  16
ATOM     16  C   UNL     1      30.725  31.990  20.287  1.00  0.00     0.364 C 
ATOM     17  O   UNL     1      31.733  32.645  20.701  1.00  0.00    -0.246 OA
BRANCH  16  18
ATOM     18  O   UNL     1      29.675  32.712  19.766  1.00  0.00    -0.477 OA
ATOM     19  H   UNL     1      29.080  33.275  20.397  1.00  0.00     0.296 HD
ENDBRANCH  16  18
ENDBRANCH   9  16
BRANCH  12  20
ATOM     20  O   UNL     1      32.168  28.124  20.080  1.00  0.00    -0.391 OA
ATOM     21  H   UNL     1      32.521  27.206  20.100  1.00  0.00     0.211 HD
ENDBRANCH  12  20
BRANCH  13  22
ATOM     22  N   UNL     1      30.691  28.732  23.350  1.00  0.00    -0.348 N 
ATOM     23  C   UNL     1      31.007  27.839  24.416  1.00  0.00     0.217 C 
ATOM     24  H   UNL     1      30.462  29.714  23.602  1.00  0.00     0.163 HD
ATOM     25  C   UNL     1      30.996  28.343  25.799  1.00  0.00     0.114 C 
ATOM     26  O   UNL     1      31.292  26.645  24.209  1.00  0.00    -0.275 OA
ENDBRANCH  13  22
ENDBRANCH   7   8
BRANCH   7  27
ATOM     27  O   UNL     1      29.468  26.552  20.626  1.00  0.00    -0.388 OA
ATOM     28  H   UNL     1      30.388  26.558  21.005  1.00  0.00     0.211 HD
ENDBRANCH   7  27
ENDBRANCH   6   7
BRANCH   6  29
ATOM     29  O   UNL     1      27.208  26.495  19.973  1.00  0.00    -0.388 OA
ATOM     30  H   UNL     1      27.067  26.343  20.926  1.00  0.00     0.211 HD
ENDBRANCH   6  29
ENDBRANCH   5   6
ENDBRANCH   1   5
BRANCH   2  31
ATOM     31  O   UNL     1      28.679  31.643  17.136  1.00  0.00    -0.443 OA
BRANCH  31  32
ATOM     32  C   UNL     1      29.846  31.324  16.372  1.00  0.00     0.294 C 
BRANCH  32  33
ATOM     33  C   UNL     1      30.723  32.482  16.286  1.00  0.00     0.120 A 
ATOM     34  C   UNL     1      31.539  32.783  15.208  1.00  0.00     0.138 A 
ATOM     35  N   UNL     1      30.947  33.462  17.187  1.00  0.00    -0.132 NA
ATOM     36  N   UNL     1      32.194  33.899  15.508  1.00  0.00    -0.243 N 
ATOM     37  N   UNL     1      31.829  34.320  16.731  1.00  0.00    -0.067 NA
BRANCH  36  38
ATOM     38  C   UNL     1      33.157  34.554  14.637  1.00  0.00     0.245 C 
BRANCH  38  39
ATOM     39  C   UNL     1      32.402  35.458  13.729  1.00  0.00     0.242 C 
ATOM     40  O   UNL     1      32.889  35.712  12.603  1.00  0.00    -0.273 OA
ATOM     41  N   UNL     1      31.163  36.041  14.081  1.00  0.00    -0.350 N 
ATOM     42  H   UNL     1      30.726  35.862  15.007  1.00  0.00     0.163 HD
BRANCH  41  43
ATOM     43  C   UNL     1      30.491  36.906  13.141  1.00  0.00     0.162 C 
BRANCH  43  44
ATOM     44  C   UNL     1      29.307  36.168  12.566  1.00  0.00     0.024 A 
ATOM     45  C   UNL     1      28.278  36.599  11.846  1.00  0.00     0.017 A 
ATOM     46  S   UNL     1      29.010  34.467  12.737  1.00  0.00    -0.147 S 
ATOM     47  C   UNL     1      27.326  35.747  11.439  1.00  0.00     0.012 A 
ATOM     48  C   UNL     1      27.474  34.413  11.807  1.00  0.00     0.065 A 
ENDBRANCH  43  44
ENDBRANCH  41  43
ENDBRANCH  38  39
ENDBRANCH  36  38
ENDBRANCH  32  33
ENDBRANCH  31  32
ENDBRANCH   2  31
TORSDOF 18
BEGIN_RES LYS A 135
REMARK  4 active torsions:
REMARK  status: ('A' for Active; 'I' for Inactive)
REMARK    1  A    between atoms: CA   and  CB  
REMARK    2  A    between atoms: CB   and  CG  
REMARK    3  A    between atoms: CG   and  CD  
REMARK    4  A    between atoms: CD   and  CE  
ROOT
ATOM      1  CA  LYS A 135      33.193  34.663   9.290  1.00 25.02     0.186 C 
ENDROOT
BRANCH   1   2
ATOM      2  CB  LYS A 135      32.060  35.360  10.034  1.00 26.63     0.034 C 
BRANCH   2   3
ATOM      3  CG  LYS A 135      30.836  35.594   9.186  1.00 29.45     0.005 C 
BRANCH   3   4
ATOM      4  CD  LYS A 135      30.079  34.294   8.967  1.00 32.00     0.041 C 
BRANCH   4   5
ATOM      5  CE  LYS A 135      28.773  34.554   8.240  1.00 34.25     0.338 C 
ATOM      6  NZ  LYS A 135      28.993  35.385   7.024  1.00 35.99     0.618 N 
ENDBRANCH   4   5
ENDBRANCH   3   4
ENDBRANCH   2   3
ENDBRANCH   1   2
END_RES LYS A 135
BEGIN_RES ARG A 124
REMARK  4 active torsions:
REMARK  status: ('A' for Active; 'I' for Inactive)
REMARK    5  A    between atoms: CA   and  CB  
REMARK    6  A    between atoms: CB   and  CG  
REMARK    7  A    between atoms: CG   and  CD  
REMARK    8  A    between atoms: CD   and  NE  
REMARK       I    between atoms: NE   and  CZ  
ROOT
ATOM      7  CA  ARG A 124      31.045  26.515   9.594  1.00 17.84     0.186 C 
ENDROOT
BRANCH   7   8
ATOM      8  CB  ARG A 124      29.529  26.705   9.647  1.00 16.18     0.036 C 
BRANCH   8   9
ATOM      9  CG  ARG A 124      28.751  25.703  10.573  1.00 16.22     0.029 C 
BRANCH   9  10
ATOM     10  CD  ARG A 124      27.610  26.381  11.365  1.00 15.09     0.145 C 
BRANCH  10  11
ATOM     11  NE  ARG A 124      28.035  26.938  12.668  1.00 16.98    -0.083 NA
ATOM     12  CZ  ARG A 124      27.290  27.724  13.438  1.00 18.21     0.782 C 
ATOM     13  NH1 ARG A 124      26.057  28.068  13.086  1.00 21.11     0.063 N 
ATOM     14  NH2 ARG A 124      27.766  28.160  14.594  1.00 21.25     0.063 N 
ENDBRANCH  10  11
ENDBRANCH   9  10
ENDBRANCH   8   9
ENDBRANCH   7   8
END_RES ARG A 124
BEGIN_RES ASN A 133
REMARK  2 active torsions:
REMARK  status: ('A' for Active; 'I' for Inactive)
REMARK    9  A    between atoms: CA   and  CB  
REMARK   10  A    between atoms: CB   and  CG  
ROOT
ATOM     15  CA  ASN A 133      31.225  30.257  11.749  1.00 18.15     0.196 C 
ENDROOT
BRANCH  15  16
ATOM     16  CB  ASN A 133      30.092  31.240  11.460  1.00 18.27     0.126 C 
BRANCH  16  17
ATOM     17  CG  ASN A 133      28.731  30.631  11.598  1.00 18.94     0.276 C 
ATOM     18  OD1 ASN A 133      27.971  30.967  12.508  1.00 18.09    -0.269 OA
ATOM     19  ND2 ASN A 133      28.406  29.717  10.685  1.00 18.93    -0.107 N 
ENDBRANCH  16  17
ENDBRANCH  15  16
END_RES ASN A 133
BEGIN_RES LYS A 131
REMARK  4 active torsions:
REMARK  status: ('A' for Active; 'I' for Inactive)
REMARK   11  A    between atoms: CA   and  CB  
REMARK   12  A    between atoms: CB   and  CG  
REMARK   13  A    between atoms: CG   and  CD  
REMARK   14  A    between atoms: CD   and  CE  
ROOT
ATOM     20  CA  LYS A 131      29.867  25.555  16.977  1.00 20.52     0.186 C 
ENDROOT
BRANCH  20  21
ATOM     21  CB  LYS A 131      28.345  25.722  17.026  1.00 20.94     0.034 C 
BRANCH  21  22
ATOM     22  CG  LYS A 131      27.600  24.410  16.833  1.00 22.96     0.005 C 
BRANCH  22  23
ATOM     23  CD  LYS A 131      26.161  24.508  17.258  1.00 24.33     0.041 C 
BRANCH  23  24
ATOM     24  CE  LYS A 131      25.909  23.556  18.423  1.00 26.91     0.338 C 
ATOM     25  NZ  LYS A 131      24.808  22.619  18.099  1.00 27.40     0.618 N 
ENDBRANCH  23  24
ENDBRANCH  22  23
ENDBRANCH  21  22
ENDBRANCH  20  21
END_RES LYS A 131
