REMARK VINA RESULT:    -5.690      4.029      7.488
REMARK INTER + INTRA:         -20.495
REMARK INTER:                 -10.192
REMARK INTRA:                 -10.303
REMARK UNBOUND:                -8.816
REMARK SMILES CC(=O)N[C@@H]1[C@@H](O)C[C@](O)(C(=O)O)O[C@H]1C(O)[C@H](O)CNC(=O)OCc1cn(C[C@@H](C(=O)O)C(c2ccccc2)c2ccccc2)nn1
REMARK SMILES IDX 21 1 22 2 23 3 20 5 18 6 16 7 15 8 9 9 8 10 14 11 6 12 5 13
REMARK SMILES IDX 10 14 11 16 12 17 13 18 7 20 4 22 2 23 1 25 3 26 17 27 19 29
REMARK SMILES IDX 24 31 25 32 26 33 27 34 48 35 28 36 47 37 29 38 30 39 31 40
REMARK SMILES IDX 32 41 33 42 34 44 35 45 36 46 40 47 37 48 39 49 38 50 41 51
REMARK SMILES IDX 42 52 46 53 43 54 45 55 44 56
REMARK H PARENT 21 4 10 15 13 19 7 21 4 24 17 28 19 30 33 43
REMARK Flexibility Score: inf
ROOT
ATOM      1  N   UNL     1      27.675  28.093  18.459  1.00  0.00    -0.319 N 
ATOM      2  C   UNL     1      26.695  28.922  17.893  1.00  0.00     0.407 C 
ATOM      3  O   UNL     1      25.523  28.858  18.339  1.00  0.00    -0.225 OA
ATOM      4  H   UNL     1      28.653  28.106  18.130  1.00  0.00     0.167 HD
ENDROOT
BRANCH   1   5
ATOM      5  C   UNL     1      27.339  27.163  19.556  1.00  0.00     0.154 C 
BRANCH   5   6
ATOM      6  C   UNL     1      27.628  27.865  20.851  1.00  0.00     0.165 C 
BRANCH   6   7
ATOM      7  C   UNL     1      29.003  27.713  21.402  1.00  0.00     0.176 C 
BRANCH   7   8
ATOM      8  C   UNL     1      29.706  29.017  21.744  1.00  0.00     0.178 C 
ATOM      9  C   UNL     1      29.162  31.291  21.640  1.00  0.00     0.269 C 
ATOM     10  C   UNL     1      30.508  31.575  20.987  1.00  0.00     0.112 C 
ATOM     11  O   UNL     1      28.767  30.002  21.359  1.00  0.00    -0.332 OA
ATOM     12  C   UNL     1      30.873  30.421  20.063  1.00  0.00     0.145 C 
ATOM     13  C   UNL     1      30.970  29.167  20.974  1.00  0.00     0.142 C 
BRANCH   9  14
ATOM     14  O   UNL     1      28.214  32.116  20.975  1.00  0.00    -0.357 OA
ATOM     15  H   UNL     1      27.375  32.004  21.473  1.00  0.00     0.214 HD
ENDBRANCH   9  14
BRANCH   9  16
ATOM     16  C   UNL     1      29.129  31.658  23.064  1.00  0.00     0.364 C 
ATOM     17  O   UNL     1      28.038  31.811  23.650  1.00  0.00    -0.246 OA
BRANCH  16  18
ATOM     18  O   UNL     1      30.304  31.836  23.759  1.00  0.00    -0.477 OA
ATOM     19  H   UNL     1      30.757  31.112  24.311  1.00  0.00     0.296 HD
ENDBRANCH  16  18
ENDBRANCH   9  16
BRANCH  12  20
ATOM     20  O   UNL     1      29.897  30.163  19.139  1.00  0.00    -0.391 OA
ATOM     21  H   UNL     1      29.908  30.783  18.356  1.00  0.00     0.211 HD
ENDBRANCH  12  20
BRANCH  13  22
ATOM     22  N   UNL     1      32.161  29.305  21.798  1.00  0.00    -0.348 N 
ATOM     23  C   UNL     1      32.737  28.162  22.384  1.00  0.00     0.217 C 
ATOM     24  H   UNL     1      32.606  30.233  21.969  1.00  0.00     0.163 HD
ATOM     25  C   UNL     1      33.966  28.348  23.235  1.00  0.00     0.114 C 
ATOM     26  O   UNL     1      32.308  26.992  22.255  1.00  0.00    -0.275 OA
ENDBRANCH  13  22
ENDBRANCH   7   8
BRANCH   7  27
ATOM     27  O   UNL     1      29.822  27.150  20.336  1.00  0.00    -0.388 OA
ATOM     28  H   UNL     1      29.623  27.771  19.587  1.00  0.00     0.211 HD
ENDBRANCH   7  27
ENDBRANCH   6   7
BRANCH   6  29
ATOM     29  O   UNL     1      26.600  27.748  21.762  1.00  0.00    -0.388 OA
ATOM     30  H   UNL     1      25.752  27.428  21.353  1.00  0.00     0.211 HD
ENDBRANCH   6  29
ENDBRANCH   5   6
ENDBRANCH   1   5
BRANCH   2  31
ATOM     31  O   UNL     1      26.943  29.816  16.859  1.00  0.00    -0.443 OA
BRANCH  31  32
ATOM     32  C   UNL     1      26.355  31.104  16.906  1.00  0.00     0.294 C 
BRANCH  32  33
ATOM     33  C   UNL     1      27.420  32.129  17.061  1.00  0.00     0.120 A 
ATOM     34  C   UNL     1      27.943  33.013  16.144  1.00  0.00     0.138 A 
ATOM     35  N   UNL     1      28.093  32.376  18.196  1.00  0.00    -0.132 NA
ATOM     36  N   UNL     1      28.899  33.766  16.713  1.00  0.00    -0.251 N 
ATOM     37  N   UNL     1      28.968  33.348  17.980  1.00  0.00    -0.067 NA
BRANCH  36  38
ATOM     38  C   UNL     1      29.719  34.832  16.114  1.00  0.00     0.162 C 
BRANCH  38  39
ATOM     39  C   UNL     1      31.065  34.248  15.800  1.00  0.00     0.132 C 
BRANCH  39  40
ATOM     40  C   UNL     1      30.985  33.173  14.763  1.00  0.00     0.309 C 
ATOM     41  O   UNL     1      30.392  33.396  13.652  1.00  0.00    -0.252 OA
BRANCH  40  42
ATOM     42  O   UNL     1      31.517  31.910  14.905  1.00  0.00    -0.481 OA
ATOM     43  H   UNL     1      31.753  31.321  14.096  1.00  0.00     0.296 HD
ENDBRANCH  40  42
ENDBRANCH  39  40
BRANCH  39  44
ATOM     44  C   UNL     1      32.153  35.220  15.519  1.00  0.00     0.065 C 
BRANCH  44  45
ATOM     45  C   UNL     1      33.047  35.501  16.663  1.00  0.00    -0.040 A 
ATOM     46  C   UNL     1      32.634  35.300  17.936  1.00  0.00     0.004 A 
ATOM     47  C   UNL     1      34.323  35.989  16.433  1.00  0.00     0.004 A 
ATOM     48  C   UNL     1      33.503  35.591  18.995  1.00  0.00     0.000 A 
ATOM     49  C   UNL     1      35.194  36.280  17.459  1.00  0.00     0.000 A 
ATOM     50  C   UNL     1      34.769  36.075  18.755  1.00  0.00     0.000 A 
ENDBRANCH  44  45
BRANCH  44  51
ATOM     51  C   UNL     1      31.718  36.472  14.851  1.00  0.00    -0.040 A 
ATOM     52  C   UNL     1      31.255  37.577  15.524  1.00  0.00     0.004 A 
ATOM     53  C   UNL     1      31.749  36.598  13.463  1.00  0.00     0.004 A 
ATOM     54  C   UNL     1      30.852  38.722  14.873  1.00  0.00     0.000 A 
ATOM     55  C   UNL     1      31.351  37.733  12.798  1.00  0.00     0.000 A 
ATOM     56  C   UNL     1      30.893  38.817  13.512  1.00  0.00     0.000 A 
ENDBRANCH  44  51
ENDBRANCH  39  44
ENDBRANCH  38  39
ENDBRANCH  36  38
ENDBRANCH  32  33
ENDBRANCH  31  32
ENDBRANCH   2  31
TORSDOF 21
BEGIN_RES LYS A 135
REMARK  4 active torsions:
REMARK  status: ('A' for Active; 'I' for Inactive)
REMARK    1  A    between atoms: CA   and  CB  
REMARK    2  A    between atoms: CB   and  CG  
REMARK    3  A    between atoms: CG   and  CD  
REMARK    4  A    between atoms: CD   and  CE  
ROOT
ATOM      1  CA  LYS A 135      33.193  34.663   9.290  1.00 25.02     0.186 C 
ENDROOT
BRANCH   1   2
ATOM      2  CB  LYS A 135      32.060  35.360  10.034  1.00 26.63     0.034 C 
BRANCH   2   3
ATOM      3  CG  LYS A 135      30.812  35.532   9.207  1.00 29.45     0.005 C 
BRANCH   3   4
ATOM      4  CD  LYS A 135      30.259  34.180   8.783  1.00 32.00     0.041 C 
BRANCH   4   5
ATOM      5  CE  LYS A 135      28.757  34.130   8.988  1.00 34.25     0.338 C 
ATOM      6  NZ  LYS A 135      28.043  34.847   7.896  1.00 35.99     0.618 N 
ENDBRANCH   4   5
ENDBRANCH   3   4
ENDBRANCH   2   3
ENDBRANCH   1   2
END_RES LYS A 135
BEGIN_RES ARG A 124
REMARK  4 active torsions:
REMARK  status: ('A' for Active; 'I' for Inactive)
REMARK    5  A    between atoms: CA   and  CB  
REMARK    6  A    between atoms: CB   and  CG  
REMARK    7  A    between atoms: CG   and  CD  
REMARK    8  A    between atoms: CD   and  NE  
REMARK       I    between atoms: NE   and  CZ  
ROOT
ATOM      7  CA  ARG A 124      31.045  26.515   9.594  1.00 17.84     0.186 C 
ENDROOT
BRANCH   7   8
ATOM      8  CB  ARG A 124      29.529  26.705   9.647  1.00 16.18     0.036 C 
BRANCH   8   9
ATOM      9  CG  ARG A 124      28.919  26.904  11.081  1.00 16.22     0.029 C 
BRANCH   9  10
ATOM     10  CD  ARG A 124      27.618  26.098  11.296  1.00 15.09     0.145 C 
BRANCH  10  11
ATOM     11  NE  ARG A 124      26.412  26.941  11.454  1.00 16.98    -0.083 NA
ATOM     12  CZ  ARG A 124      25.962  27.415  12.610  1.00 18.21     0.782 C 
ATOM     13  NH1 ARG A 124      26.595  27.168  13.751  1.00 21.11     0.063 N 
ATOM     14  NH2 ARG A 124      24.875  28.172  12.636  1.00 21.25     0.063 N 
ENDBRANCH  10  11
ENDBRANCH   9  10
ENDBRANCH   8   9
ENDBRANCH   7   8
END_RES ARG A 124
BEGIN_RES ASN A 133
REMARK  2 active torsions:
REMARK  status: ('A' for Active; 'I' for Inactive)
REMARK    9  A    between atoms: CA   and  CB  
REMARK   10  A    between atoms: CB   and  CG  
ROOT
ATOM     15  CA  ASN A 133      31.225  30.257  11.749  1.00 18.15     0.196 C 
ENDROOT
BRANCH  15  16
ATOM     16  CB  ASN A 133      30.092  31.240  11.460  1.00 18.27     0.126 C 
BRANCH  16  17
ATOM     17  CG  ASN A 133      28.731  30.640  11.629  1.00 18.94     0.276 C 
ATOM     18  OD1 ASN A 133      28.276  29.845  10.804  1.00 18.09    -0.269 OA
ATOM     19  ND2 ASN A 133      28.057  31.020  12.714  1.00 18.93    -0.107 N 
ENDBRANCH  16  17
ENDBRANCH  15  16
END_RES ASN A 133
BEGIN_RES LYS A 131
REMARK  4 active torsions:
REMARK  status: ('A' for Active; 'I' for Inactive)
REMARK   11  A    between atoms: CA   and  CB  
REMARK   12  A    between atoms: CB   and  CG  
REMARK   13  A    between atoms: CG   and  CD  
REMARK   14  A    between atoms: CD   and  CE  
ROOT
ATOM     20  CA  LYS A 131      29.867  25.555  16.977  1.00 20.52     0.186 C 
ENDROOT
BRANCH  20  21
ATOM     21  CB  LYS A 131      28.345  25.722  17.026  1.00 20.94     0.034 C 
BRANCH  21  22
ATOM     22  CG  LYS A 131      27.599  24.420  16.775  1.00 22.96     0.005 C 
BRANCH  22  23
ATOM     23  CD  LYS A 131      26.218  24.435  17.369  1.00 24.33     0.041 C 
BRANCH  23  24
ATOM     24  CE  LYS A 131      25.393  25.536  16.711  1.00 26.91     0.338 C 
ATOM     25  NZ  LYS A 131      24.199  25.850  17.532  1.00 27.40     0.618 N 
ENDBRANCH  23  24
ENDBRANCH  22  23
ENDBRANCH  21  22
ENDBRANCH  20  21
END_RES LYS A 131
