REMARK VINA RESULT:    -5.239      4.548      7.373
REMARK INTER + INTRA:         -17.019
REMARK INTER:                  -8.283
REMARK INTRA:                  -8.735
REMARK UNBOUND:                -7.952
REMARK SMILES CC(=O)N[C@@H]1[C@@H](O)C[C@](O)(C(=O)O)O[C@H]1C(O)[C@H](O)CNC(=O)OCc1cn(-c2cccc(Cl)c2)nn1
REMARK SMILES IDX 20 1 18 2 16 3 15 4 9 5 8 6 14 7 6 8 5 9 10 10 11 12 12 13
REMARK SMILES IDX 13 14 7 16 4 18 2 19 1 21 3 22 17 23 19 25 21 27 22 28 23 30
REMARK SMILES IDX 24 31 25 32 26 33 27 34 37 35 28 36 36 37 29 38 30 39 35 40
REMARK SMILES IDX 31 41 33 42 32 43 34 44
REMARK H PARENT 10 11 13 15 7 17 4 20 17 24 19 26 21 29
REMARK Flexibility Score: inf
ROOT
ATOM      1  C   UNL     1      27.226  30.000  16.115  1.00  0.00     0.154 C 
ENDROOT
BRANCH   1   2
ATOM      2  C   UNL     1      27.895  31.275  16.497  1.00  0.00     0.165 C 
BRANCH   2   3
ATOM      3  C   UNL     1      29.358  31.361  16.167  1.00  0.00     0.176 C 
BRANCH   3   4
ATOM      4  C   UNL     1      29.874  32.750  15.992  1.00  0.00     0.178 C 
ATOM      5  C   UNL     1      31.179  34.032  14.561  1.00  0.00     0.269 C 
ATOM      6  C   UNL     1      30.620  35.162  15.413  1.00  0.00     0.112 C 
ATOM      7  O   UNL     1      30.492  32.853  14.761  1.00  0.00    -0.332 OA
ATOM      8  C   UNL     1      30.825  34.804  16.847  1.00  0.00     0.145 C 
ATOM      9  C   UNL     1      30.745  33.273  17.075  1.00  0.00     0.142 C 
BRANCH   5  10
ATOM     10  O   UNL     1      32.525  33.923  14.906  1.00  0.00    -0.357 OA
ATOM     11  H   UNL     1      32.985  34.771  14.796  1.00  0.00     0.214 HD
ENDBRANCH   5  10
BRANCH   5  12
ATOM     12  C   UNL     1      31.099  34.378  13.125  1.00  0.00     0.364 C 
ATOM     13  O   UNL     1      31.778  35.308  12.662  1.00  0.00    -0.246 OA
BRANCH  12  14
ATOM     14  O   UNL     1      30.268  33.675  12.258  1.00  0.00    -0.477 OA
ATOM     15  H   UNL     1      29.455  33.230  12.661  1.00  0.00     0.296 HD
ENDBRANCH  12  14
ENDBRANCH   5  12
BRANCH   8  16
ATOM     16  O   UNL     1      32.122  35.187  17.208  1.00  0.00    -0.391 OA
ATOM     17  H   UNL     1      32.788  34.568  16.795  1.00  0.00     0.211 HD
ENDBRANCH   8  16
BRANCH   9  18
ATOM     18  N   UNL     1      30.076  33.144  18.378  1.00  0.00    -0.348 N 
ATOM     19  C   UNL     1      30.720  33.252  19.614  1.00  0.00     0.217 C 
ATOM     20  H   UNL     1      29.049  32.959  18.341  1.00  0.00     0.163 HD
ATOM     21  C   UNL     1      29.974  33.104  20.891  1.00  0.00     0.114 C 
ATOM     22  O   UNL     1      31.946  33.477  19.676  1.00  0.00    -0.275 OA
ENDBRANCH   9  18
ENDBRANCH   3   4
BRANCH   3  23
ATOM     23  O   UNL     1      30.136  30.753  17.156  1.00  0.00    -0.388 OA
ATOM     24  H   UNL     1      30.987  30.429  16.773  1.00  0.00     0.211 HD
ENDBRANCH   3  23
ENDBRANCH   2   3
BRANCH   2  25
ATOM     25  O   UNL     1      27.735  31.427  17.899  1.00  0.00    -0.388 OA
ATOM     26  H   UNL     1      27.421  30.544  18.229  1.00  0.00     0.211 HD
ENDBRANCH   2  25
ENDBRANCH   1   2
BRANCH   1  27
ATOM     27  N   UNL     1      27.661  28.832  16.844  1.00  0.00    -0.319 N 
ATOM     28  C   UNL     1      26.827  28.309  17.907  1.00  0.00     0.407 C 
ATOM     29  H   UNL     1      28.543  28.306  16.670  1.00  0.00     0.167 HD
ATOM     30  O   UNL     1      25.744  28.892  18.162  1.00  0.00    -0.225 OA
BRANCH  28  31
ATOM     31  O   UNL     1      27.189  27.205  18.630  1.00  0.00    -0.443 OA
BRANCH  31  32
ATOM     32  C   UNL     1      27.459  27.293  20.006  1.00  0.00     0.294 C 
BRANCH  32  33
ATOM     33  C   UNL     1      28.691  28.120  20.245  1.00  0.00     0.121 A 
ATOM     34  C   UNL     1      29.782  27.801  21.042  1.00  0.00     0.144 A 
ATOM     35  N   UNL     1      28.975  29.331  19.734  1.00  0.00    -0.131 NA
ATOM     36  N   UNL     1      30.670  28.809  20.986  1.00  0.00    -0.220 N 
ATOM     37  N   UNL     1      30.161  29.730  20.186  1.00  0.00    -0.062 NA
BRANCH  36  38
ATOM     38  C   UNL     1      31.930  28.931  21.634  1.00  0.00     0.068 A 
ATOM     39  C   UNL     1      32.747  30.019  21.394  1.00  0.00     0.028 A 
ATOM     40  C   UNL     1      32.397  27.986  22.524  1.00  0.00     0.049 A 
ATOM     41  C   UNL     1      33.977  30.149  22.020  1.00  0.00     0.004 A 
ATOM     42  C   UNL     1      33.620  28.103  23.154  1.00  0.00     0.043 A 
ATOM     43  C   UNL     1      34.429  29.193  22.907  1.00  0.00     0.020 A 
ATOM     44  Cl  UNL     1      34.184  26.870  24.287  1.00  0.00    -0.084 Cl
ENDBRANCH  36  38
ENDBRANCH  32  33
ENDBRANCH  31  32
ENDBRANCH  28  31
ENDBRANCH   1  27
TORSDOF 15
BEGIN_RES LYS A 135
REMARK  4 active torsions:
REMARK  status: ('A' for Active; 'I' for Inactive)
REMARK    1  A    between atoms: CA   and  CB  
REMARK    2  A    between atoms: CB   and  CG  
REMARK    3  A    between atoms: CG   and  CD  
REMARK    4  A    between atoms: CD   and  CE  
ROOT
ATOM      1  CA  LYS A 135      33.193  34.663   9.290  1.00 25.02     0.186 C 
ENDROOT
BRANCH   1   2
ATOM      2  CB  LYS A 135      32.060  35.360  10.034  1.00 26.63     0.034 C 
BRANCH   2   3
ATOM      3  CG  LYS A 135      30.815  35.538   9.205  1.00 29.45     0.005 C 
BRANCH   3   4
ATOM      4  CD  LYS A 135      30.242  34.189   8.800  1.00 32.00     0.041 C 
BRANCH   4   5
ATOM      5  CE  LYS A 135      28.732  34.187   8.943  1.00 34.25     0.338 C 
ATOM      6  NZ  LYS A 135      28.087  34.956   7.843  1.00 35.99     0.618 N 
ENDBRANCH   4   5
ENDBRANCH   3   4
ENDBRANCH   2   3
ENDBRANCH   1   2
END_RES LYS A 135
BEGIN_RES ARG A 124
REMARK  4 active torsions:
REMARK  status: ('A' for Active; 'I' for Inactive)
REMARK    5  A    between atoms: CA   and  CB  
REMARK    6  A    between atoms: CB   and  CG  
REMARK    7  A    between atoms: CG   and  CD  
REMARK    8  A    between atoms: CD   and  NE  
REMARK       I    between atoms: NE   and  CZ  
ROOT
ATOM      7  CA  ARG A 124      31.045  26.515   9.594  1.00 17.84     0.186 C 
ENDROOT
BRANCH   7   8
ATOM      8  CB  ARG A 124      29.529  26.705   9.647  1.00 16.18     0.036 C 
BRANCH   8   9
ATOM      9  CG  ARG A 124      28.906  26.798  11.086  1.00 16.22     0.029 C 
BRANCH   9  10
ATOM     10  CD  ARG A 124      27.524  26.113  11.187  1.00 15.09     0.145 C 
BRANCH  10  11
ATOM     11  NE  ARG A 124      26.413  27.047  11.473  1.00 16.98    -0.083 NA
ATOM     12  CZ  ARG A 124      26.092  27.499  12.680  1.00 18.21     0.782 C 
ATOM     13  NH1 ARG A 124      26.780  27.140  13.757  1.00 21.11     0.063 N 
ATOM     14  NH2 ARG A 124      25.082  28.344  12.822  1.00 21.25     0.063 N 
ENDBRANCH  10  11
ENDBRANCH   9  10
ENDBRANCH   8   9
ENDBRANCH   7   8
END_RES ARG A 124
BEGIN_RES ASN A 133
REMARK  2 active torsions:
REMARK  status: ('A' for Active; 'I' for Inactive)
REMARK    9  A    between atoms: CA   and  CB  
REMARK   10  A    between atoms: CB   and  CG  
ROOT
ATOM     15  CA  ASN A 133      31.225  30.257  11.749  1.00 18.15     0.196 C 
ENDROOT
BRANCH  15  16
ATOM     16  CB  ASN A 133      30.092  31.240  11.460  1.00 18.27     0.126 C 
BRANCH  16  17
ATOM     17  CG  ASN A 133      28.731  30.632  11.602  1.00 18.94     0.276 C 
ATOM     18  OD1 ASN A 133      28.305  29.822  10.777  1.00 18.09    -0.269 OA
ATOM     19  ND2 ASN A 133      28.026  31.024  12.662  1.00 18.93    -0.107 N 
ENDBRANCH  16  17
ENDBRANCH  15  16
END_RES ASN A 133
BEGIN_RES LYS A 131
REMARK  4 active torsions:
REMARK  status: ('A' for Active; 'I' for Inactive)
REMARK   11  A    between atoms: CA   and  CB  
REMARK   12  A    between atoms: CB   and  CG  
REMARK   13  A    between atoms: CG   and  CD  
REMARK   14  A    between atoms: CD   and  CE  
ROOT
ATOM     20  CA  LYS A 131      29.867  25.555  16.977  1.00 20.52     0.186 C 
ENDROOT
BRANCH  20  21
ATOM     21  CB  LYS A 131      28.345  25.722  17.026  1.00 20.94     0.034 C 
BRANCH  21  22
ATOM     22  CG  LYS A 131      27.599  24.436  16.704  1.00 22.96     0.005 C 
BRANCH  22  23
ATOM     23  CD  LYS A 131      26.922  23.856  17.915  1.00 24.33     0.041 C 
BRANCH  23  24
ATOM     24  CE  LYS A 131      25.427  23.718  17.646  1.00 26.91     0.338 C 
ATOM     25  NZ  LYS A 131      25.047  22.289  17.546  1.00 27.40     0.618 N 
ENDBRANCH  23  24
ENDBRANCH  22  23
ENDBRANCH  21  22
ENDBRANCH  20  21
END_RES LYS A 131
