REMARK VINA RESULT:    -7.001      2.877      9.630
REMARK INTER + INTRA:         -20.935
REMARK INTER:                 -10.954
REMARK INTRA:                  -9.981
REMARK UNBOUND:                -7.795
REMARK SMILES CC(=O)N[C@@H]1[C@@H](O)C[C@](O)(C(=O)O)O[C@H]1C(O)[C@H](O)CNC(=O)OCc1cn(-c2ccc(-c3c4ccc(=O)cc-4oc4cc(O)ccc34)c(C(=O)[O-])c2)nn1
REMARK SMILES IDX 21 1 22 2 23 3 20 5 18 6 16 7 15 8 9 9 8 10 14 11 6 12 5 13
REMARK SMILES IDX 10 14 11 16 12 17 13 18 7 20 4 22 2 23 1 25 3 26 17 27 19 29
REMARK SMILES IDX 24 31 25 32 26 33 27 34 55 35 28 36 54 37 29 38 53 39 30 40
REMARK SMILES IDX 49 41 31 42 32 43 50 44 51 45 52 46 33 47 48 48 34 49 47 50
REMARK SMILES IDX 42 51 40 52 35 53 46 54 43 55 41 56 39 57 36 58 44 59 37 60
REMARK SMILES IDX 38 61 45 62
REMARK H PARENT 21 4 10 15 13 19 7 21 4 24 17 28 19 30 45 63
REMARK Flexibility Score: inf
ROOT
ATOM      1  N   UNL     1      29.892  41.079   6.233  1.00  0.00    -0.319 N 
ATOM      2  C   UNL     1      29.596  41.619   7.493  1.00  0.00     0.407 C 
ATOM      3  O   UNL     1      28.432  41.647   7.907  1.00  0.00    -0.225 OA
ATOM      4  H   UNL     1      30.929  41.095   5.967  1.00  0.00     0.167 HD
ENDROOT
BRANCH   1   5
ATOM      5  C   UNL     1      28.962  40.522   5.290  1.00  0.00     0.154 C 
BRANCH   5   6
ATOM      6  C   UNL     1      28.824  39.042   5.300  1.00  0.00     0.165 C 
BRANCH   6   7
ATOM      7  C   UNL     1      27.430  38.517   5.424  1.00  0.00     0.176 C 
BRANCH   7   8
ATOM      8  C   UNL     1      26.859  38.702   6.811  1.00  0.00     0.178 C 
ATOM      9  C   UNL     1      26.507  37.697   8.825  1.00  0.00     0.269 C 
ATOM     10  C   UNL     1      25.399  38.730   9.076  1.00  0.00     0.112 C 
ATOM     11  O   UNL     1      26.777  37.513   7.484  1.00  0.00    -0.332 OA
ATOM     12  C   UNL     1      24.621  38.810   7.764  1.00  0.00     0.145 C 
ATOM     13  C   UNL     1      25.509  39.438   6.718  1.00  0.00     0.142 C 
BRANCH   9  14
ATOM     14  O   UNL     1      26.052  36.429   9.279  1.00  0.00    -0.357 OA
ATOM     15  H   UNL     1      26.428  36.274  10.186  1.00  0.00     0.214 HD
ENDBRANCH   9  14
BRANCH   9  16
ATOM     16  C   UNL     1      27.693  38.033   9.639  1.00  0.00     0.364 C 
ATOM     17  O   UNL     1      28.158  37.201  10.439  1.00  0.00    -0.246 OA
BRANCH  16  18
ATOM     18  O   UNL     1      28.355  39.257   9.577  1.00  0.00    -0.477 OA
ATOM     19  H   UNL     1      29.228  39.409  10.074  1.00  0.00     0.296 HD
ENDBRANCH  16  18
ENDBRANCH   9  16
BRANCH  12  20
ATOM     20  O   UNL     1      24.385  37.494   7.367  1.00  0.00    -0.391 OA
ATOM     21  H   UNL     1      23.483  37.366   6.996  1.00  0.00     0.211 HD
ENDBRANCH  12  20
BRANCH  13  22
ATOM     22  N   UNL     1      25.763  40.823   6.946  1.00  0.00    -0.348 N 
ATOM     23  C   UNL     1      25.529  41.863   6.002  1.00  0.00     0.217 C 
ATOM     24  H   UNL     1      26.157  41.084   7.893  1.00  0.00     0.163 HD
ATOM     25  C   UNL     1      25.845  43.244   6.391  1.00  0.00     0.114 C 
ATOM     26  O   UNL     1      25.064  41.532   4.886  1.00  0.00    -0.275 OA
ENDBRANCH  13  22
ENDBRANCH   7   8
BRANCH   7  27
ATOM     27  O   UNL     1      27.310  37.178   5.082  1.00  0.00    -0.388 OA
ATOM     28  H   UNL     1      28.209  36.858   4.805  1.00  0.00     0.211 HD
ENDBRANCH   7  27
ENDBRANCH   6   7
BRANCH   6  29
ATOM     29  O   UNL     1      29.658  38.424   6.255  1.00  0.00    -0.388 OA
ATOM     30  H   UNL     1      30.573  38.781   6.166  1.00  0.00     0.211 HD
ENDBRANCH   6  29
ENDBRANCH   5   6
ENDBRANCH   1   5
BRANCH   2  31
ATOM     31  O   UNL     1      30.583  42.145   8.332  1.00  0.00    -0.443 OA
BRANCH  31  32
ATOM     32  C   UNL     1      31.871  41.547   8.414  1.00  0.00     0.294 C 
BRANCH  32  33
ATOM     33  C   UNL     1      31.679  40.174   8.947  1.00  0.00     0.121 A 
ATOM     34  C   UNL     1      31.845  39.808  10.267  1.00  0.00     0.144 A 
ATOM     35  N   UNL     1      31.325  39.044   8.315  1.00  0.00    -0.131 NA
ATOM     36  N   UNL     1      31.588  38.490  10.372  1.00  0.00    -0.220 N 
ATOM     37  N   UNL     1      31.271  38.036   9.169  1.00  0.00    -0.062 NA
BRANCH  36  38
ATOM     38  C   UNL     1      31.663  37.758  11.597  1.00  0.00     0.067 A 
ATOM     39  C   UNL     1      30.806  37.981  12.652  1.00  0.00     0.039 A 
ATOM     40  C   UNL     1      32.623  36.772  11.771  1.00  0.00     0.029 A 
ATOM     41  C   UNL     1      30.893  37.256  13.838  1.00  0.00     0.007 A 
ATOM     42  C   UNL     1      32.714  36.051  12.944  1.00  0.00     0.012 A 
ATOM     43  C   UNL     1      31.853  36.279  13.994  1.00  0.00    -0.008 A 
BRANCH  41  44
ATOM     44  C   UNL     1      29.971  37.516  14.936  1.00  0.00     0.072 C 
ATOM     45  O   UNL     1      30.180  38.442  15.749  1.00  0.00    -0.545 OA
ATOM     46  O   UNL     1      28.851  36.713  15.062  1.00  0.00    -0.545 OA
ENDBRANCH  41  44
BRANCH  43  47
ATOM     47  C   UNL     1      31.925  35.531  15.241  1.00  0.00     0.004 A 
ATOM     48  C   UNL     1      31.286  34.313  15.388  1.00  0.00     0.026 A 
ATOM     49  C   UNL     1      32.627  35.989  16.342  1.00  0.00     0.026 A 
ATOM     50  C   UNL     1      30.558  33.770  14.341  1.00  0.00     0.016 A 
ATOM     51  C   UNL     1      31.375  33.623  16.592  1.00  0.00     0.139 A 
ATOM     52  C   UNL     1      32.689  35.226  17.585  1.00  0.00     0.139 A 
ATOM     53  C   UNL     1      33.285  37.197  16.255  1.00  0.00     0.016 A 
ATOM     54  C   UNL     1      29.915  32.553  14.477  1.00  0.00     0.047 A 
ATOM     55  C   UNL     1      30.734  32.409  16.727  1.00  0.00     0.093 A 
ATOM     56  O   UNL     1      32.053  34.084  17.629  1.00  0.00    -0.456 OA
ATOM     57  C   UNL     1      33.388  35.683  18.676  1.00  0.00     0.099 A 
ATOM     58  C   UNL     1      33.980  37.633  17.368  1.00  0.00     0.053 A 
ATOM     59  C   UNL     1      30.010  31.881  15.674  1.00  0.00     0.119 A 
ATOM     60  C   UNL     1      34.031  36.894  18.552  1.00  0.00     0.182 A 
ATOM     61  O   UNL     1      34.699  37.409  19.482  1.00  0.00    -0.290 OA
BRANCH  59  62
ATOM     62  O   UNL     1      29.374  30.652  15.842  1.00  0.00    -0.508 OA
ATOM     63  H   UNL     1      29.445  30.117  16.674  1.00  0.00     0.293 HD
ENDBRANCH  59  62
ENDBRANCH  43  47
ENDBRANCH  36  38
ENDBRANCH  32  33
ENDBRANCH  31  32
ENDBRANCH   2  31
TORSDOF 18
BEGIN_RES LYS A 135
REMARK  4 active torsions:
REMARK  status: ('A' for Active; 'I' for Inactive)
REMARK    1  A    between atoms: CA   and  CB  
REMARK    2  A    between atoms: CB   and  CG  
REMARK    3  A    between atoms: CG   and  CD  
REMARK    4  A    between atoms: CD   and  CE  
ROOT
ATOM      1  CA  LYS A 135      33.193  34.663   9.290  1.00 25.02     0.186 C 
ENDROOT
BRANCH   1   2
ATOM      2  CB  LYS A 135      32.060  35.360  10.034  1.00 26.63     0.034 C 
BRANCH   2   3
ATOM      3  CG  LYS A 135      30.747  34.625   9.958  1.00 29.45     0.005 C 
BRANCH   3   4
ATOM      4  CD  LYS A 135      30.349  34.385   8.509  1.00 32.00     0.041 C 
BRANCH   4   5
ATOM      5  CE  LYS A 135      28.848  34.515   8.341  1.00 34.25     0.338 C 
ATOM      6  NZ  LYS A 135      28.122  33.755   9.395  1.00 35.99     0.618 N 
ENDBRANCH   4   5
ENDBRANCH   3   4
ENDBRANCH   2   3
ENDBRANCH   1   2
END_RES LYS A 135
BEGIN_RES ARG A 124
REMARK  4 active torsions:
REMARK  status: ('A' for Active; 'I' for Inactive)
REMARK    5  A    between atoms: CA   and  CB  
REMARK    6  A    between atoms: CB   and  CG  
REMARK    7  A    between atoms: CG   and  CD  
REMARK    8  A    between atoms: CD   and  NE  
REMARK       I    between atoms: NE   and  CZ  
ROOT
ATOM      7  CA  ARG A 124      31.045  26.515   9.594  1.00 17.84     0.186 C 
ENDROOT
BRANCH   7   8
ATOM      8  CB  ARG A 124      29.529  26.705   9.647  1.00 16.18     0.036 C 
BRANCH   8   9
ATOM      9  CG  ARG A 124      28.898  26.732  11.085  1.00 16.22     0.029 C 
BRANCH   9  10
ATOM     10  CD  ARG A 124      27.490  26.095  11.134  1.00 15.09     0.145 C 
BRANCH  10  11
ATOM     11  NE  ARG A 124      26.402  27.068  11.379  1.00 16.98    -0.083 NA
ATOM     12  CZ  ARG A 124      26.029  27.505  12.577  1.00 18.21     0.782 C 
ATOM     13  NH1 ARG A 124      26.639  27.094  13.682  1.00 21.11     0.063 N 
ATOM     14  NH2 ARG A 124      25.048  28.387  12.682  1.00 21.25     0.063 N 
ENDBRANCH  10  11
ENDBRANCH   9  10
ENDBRANCH   8   9
ENDBRANCH   7   8
END_RES ARG A 124
BEGIN_RES ASN A 133
REMARK  2 active torsions:
REMARK  status: ('A' for Active; 'I' for Inactive)
REMARK    9  A    between atoms: CA   and  CB  
REMARK   10  A    between atoms: CB   and  CG  
ROOT
ATOM     15  CA  ASN A 133      31.225  30.257  11.749  1.00 18.15     0.196 C 
ENDROOT
BRANCH  15  16
ATOM     16  CB  ASN A 133      30.092  31.240  11.460  1.00 18.27     0.126 C 
BRANCH  16  17
ATOM     17  CG  ASN A 133      28.749  30.585  11.370  1.00 18.94     0.276 C 
ATOM     18  OD1 ASN A 133      28.476  29.813  10.449  1.00 18.09    -0.269 OA
ATOM     19  ND2 ASN A 133      27.885  30.891  12.337  1.00 18.93    -0.107 N 
ENDBRANCH  16  17
ENDBRANCH  15  16
END_RES ASN A 133
BEGIN_RES LYS A 131
REMARK  4 active torsions:
REMARK  status: ('A' for Active; 'I' for Inactive)
REMARK   11  A    between atoms: CA   and  CB  
REMARK   12  A    between atoms: CB   and  CG  
REMARK   13  A    between atoms: CG   and  CD  
REMARK   14  A    between atoms: CD   and  CE  
ROOT
ATOM     20  CA  LYS A 131      29.867  25.555  16.977  1.00 20.52     0.186 C 
ENDROOT
BRANCH  20  21
ATOM     21  CB  LYS A 131      28.345  25.722  17.026  1.00 20.94     0.034 C 
BRANCH  21  22
ATOM     22  CG  LYS A 131      27.600  24.407  16.852  1.00 22.96     0.005 C 
BRANCH  22  23
ATOM     23  CD  LYS A 131      26.153  24.520  17.243  1.00 24.33     0.041 C 
BRANCH  23  24
ATOM     24  CE  LYS A 131      25.807  23.417  18.238  1.00 26.91     0.338 C 
ATOM     25  NZ  LYS A 131      24.337  23.284  18.375  1.00 27.40     0.618 N 
ENDBRANCH  23  24
ENDBRANCH  22  23
ENDBRANCH  21  22
ENDBRANCH  20  21
END_RES LYS A 131
