REMARK VINA RESULT:    -6.758      1.972      4.167
REMARK INTER + INTRA:         -20.479
REMARK INTER:                 -10.602
REMARK INTRA:                  -9.877
REMARK UNBOUND:                -7.795
REMARK SMILES CC(=O)N[C@@H]1[C@@H](O)C[C@](O)(C(=O)O)O[C@H]1C(O)[C@H](O)CNC(=O)OCc1cn(-c2ccc(-c3c4ccc(=O)cc-4oc4cc(O)ccc34)c(C(=O)[O-])c2)nn1
REMARK SMILES IDX 21 1 22 2 23 3 20 5 18 6 16 7 15 8 9 9 8 10 14 11 6 12 5 13
REMARK SMILES IDX 10 14 11 16 12 17 13 18 7 20 4 22 2 23 1 25 3 26 17 27 19 29
REMARK SMILES IDX 24 31 25 32 26 33 27 34 55 35 28 36 54 37 29 38 53 39 30 40
REMARK SMILES IDX 49 41 31 42 32 43 50 44 51 45 52 46 33 47 48 48 34 49 47 50
REMARK SMILES IDX 42 51 40 52 35 53 46 54 43 55 41 56 39 57 36 58 44 59 37 60
REMARK SMILES IDX 38 61 45 62
REMARK H PARENT 21 4 10 15 13 19 7 21 4 24 17 28 19 30 45 63
REMARK Flexibility Score: inf
ROOT
ATOM      1  N   UNL     1      31.703  33.749  16.520  1.00  0.00    -0.319 N 
ATOM      2  C   UNL     1      31.117  34.012  17.768  1.00  0.00     0.407 C 
ATOM      3  O   UNL     1      30.303  33.223  18.259  1.00  0.00    -0.225 OA
ATOM      4  H   UNL     1      32.399  34.489  16.183  1.00  0.00     0.167 HD
ENDROOT
BRANCH   1   5
ATOM      5  C   UNL     1      31.462  32.612  15.675  1.00  0.00     0.154 C 
BRANCH   5   6
ATOM      6  C   UNL     1      30.144  32.570  14.990  1.00  0.00     0.165 C 
BRANCH   6   7
ATOM      7  C   UNL     1      29.231  31.460  15.400  1.00  0.00     0.176 C 
BRANCH   7   8
ATOM      8  C   UNL     1      27.810  31.926  15.622  1.00  0.00     0.178 C 
ATOM      9  C   UNL     1      26.326  33.612  15.242  1.00  0.00     0.269 C 
ATOM     10  C   UNL     1      25.513  33.080  16.429  1.00  0.00     0.112 C 
ATOM     11  O   UNL     1      27.656  33.245  15.293  1.00  0.00    -0.332 OA
ATOM     12  C   UNL     1      26.542  32.779  17.518  1.00  0.00     0.145 C 
ATOM     13  C   UNL     1      27.386  31.611  17.069  1.00  0.00     0.142 C 
BRANCH   9  14
ATOM     14  O   UNL     1      26.340  35.032  15.305  1.00  0.00    -0.357 OA
ATOM     15  H   UNL     1      26.218  35.299  16.254  1.00  0.00     0.214 HD
ENDBRANCH   9  14
BRANCH   9  16
ATOM     16  C   UNL     1      25.650  33.255  13.977  1.00  0.00     0.364 C 
ATOM     17  O   UNL     1      24.428  33.019  13.967  1.00  0.00    -0.246 OA
BRANCH  16  18
ATOM     18  O   UNL     1      26.301  33.161  12.750  1.00  0.00    -0.477 OA
ATOM     19  H   UNL     1      26.430  33.976  12.158  1.00  0.00     0.296 HD
ENDBRANCH  16  18
ENDBRANCH   9  16
BRANCH  12  20
ATOM     20  O   UNL     1      27.380  33.891  17.583  1.00  0.00    -0.391 OA
ATOM     21  H   UNL     1      26.888  34.730  17.729  1.00  0.00     0.211 HD
ENDBRANCH  12  20
BRANCH  13  22
ATOM     22  N   UNL     1      26.676  30.374  17.044  1.00  0.00    -0.348 N 
ATOM     23  C   UNL     1      26.995  29.232  17.833  1.00  0.00     0.217 C 
ATOM     24  H   UNL     1      25.851  30.313  16.383  1.00  0.00     0.163 HD
ATOM     25  C   UNL     1      26.163  28.029  17.689  1.00  0.00     0.114 C 
ATOM     26  O   UNL     1      27.976  29.325  18.608  1.00  0.00    -0.275 OA
ENDBRANCH  13  22
ENDBRANCH   7   8
BRANCH   7  27
ATOM     27  O   UNL     1      29.650  30.791  16.542  1.00  0.00    -0.388 OA
ATOM     28  H   UNL     1      30.076  29.942  16.251  1.00  0.00     0.211 HD
ENDBRANCH   7  27
ENDBRANCH   6   7
BRANCH   6  29
ATOM     29  O   UNL     1      30.259  32.604  13.585  1.00  0.00    -0.388 OA
ATOM     30  H   UNL     1      30.787  33.394  13.322  1.00  0.00     0.211 HD
ENDBRANCH   6  29
ENDBRANCH   5   6
ENDBRANCH   1   5
BRANCH   2  31
ATOM     31  O   UNL     1      31.418  35.160  18.508  1.00  0.00    -0.443 OA
BRANCH  31  32
ATOM     32  C   UNL     1      30.448  36.180  18.706  1.00  0.00     0.294 C 
BRANCH  32  33
ATOM     33  C   UNL     1      30.295  36.891  17.411  1.00  0.00     0.121 A 
ATOM     34  C   UNL     1      29.473  36.487  16.379  1.00  0.00     0.144 A 
ATOM     35  N   UNL     1      30.880  38.016  16.969  1.00  0.00    -0.131 NA
ATOM     36  N   UNL     1      29.597  37.373  15.372  1.00  0.00    -0.220 N 
ATOM     37  N   UNL     1      30.462  38.304  15.748  1.00  0.00    -0.062 NA
BRANCH  36  38
ATOM     38  C   UNL     1      28.893  37.274  14.133  1.00  0.00     0.067 A 
ATOM     39  C   UNL     1      28.093  38.286  13.646  1.00  0.00     0.039 A 
ATOM     40  C   UNL     1      28.994  36.130  13.354  1.00  0.00     0.029 A 
ATOM     41  C   UNL     1      27.417  38.171  12.434  1.00  0.00     0.007 A 
ATOM     42  C   UNL     1      28.326  36.013  12.153  1.00  0.00     0.012 A 
ATOM     43  C   UNL     1      27.529  37.028  11.673  1.00  0.00    -0.008 A 
BRANCH  41  44
ATOM     44  C   UNL     1      26.579  39.260  11.948  1.00  0.00     0.072 C 
ATOM     45  O   UNL     1      27.053  40.170  11.233  1.00  0.00    -0.545 OA
ATOM     46  O   UNL     1      25.239  39.268  12.295  1.00  0.00    -0.545 OA
ENDBRANCH  41  44
BRANCH  43  47
ATOM     47  C   UNL     1      26.815  36.931  10.408  1.00  0.00     0.004 A 
ATOM     48  C   UNL     1      25.534  36.411  10.343  1.00  0.00     0.026 A 
ATOM     49  C   UNL     1      27.367  37.345   9.210  1.00  0.00     0.026 A 
ATOM     50  C   UNL     1      24.896  35.969  11.491  1.00  0.00     0.016 A 
ATOM     51  C   UNL     1      24.878  36.332   9.120  1.00  0.00     0.139 A 
ATOM     52  C   UNL     1      26.636  37.240   7.950  1.00  0.00     0.139 A 
ATOM     53  C   UNL     1      28.641  37.872   9.212  1.00  0.00     0.016 A 
ATOM     54  C   UNL     1      23.616  35.448  11.438  1.00  0.00     0.047 A 
ATOM     55  C   UNL     1      23.602  35.813   9.067  1.00  0.00     0.093 A 
ATOM     56  O   UNL     1      25.430  36.736   7.988  1.00  0.00    -0.456 OA
ATOM     57  C   UNL     1      27.187  37.654   6.761  1.00  0.00     0.099 A 
ATOM     58  C   UNL     1      29.171  38.280   8.001  1.00  0.00     0.053 A 
ATOM     59  C   UNL     1      22.978  35.375  10.220  1.00  0.00     0.119 A 
ATOM     60  C   UNL     1      28.461  38.174   6.803  1.00  0.00     0.182 A 
ATOM     61  O   UNL     1      29.064  38.583   5.780  1.00  0.00    -0.290 OA
BRANCH  59  62
ATOM     62  O   UNL     1      21.687  34.854  10.133  1.00  0.00    -0.508 OA
ATOM     63  H   UNL     1      20.968  35.282   9.602  1.00  0.00     0.293 HD
ENDBRANCH  59  62
ENDBRANCH  43  47
ENDBRANCH  36  38
ENDBRANCH  32  33
ENDBRANCH  31  32
ENDBRANCH   2  31
TORSDOF 18
BEGIN_RES LYS A 135
REMARK  4 active torsions:
REMARK  status: ('A' for Active; 'I' for Inactive)
REMARK    1  A    between atoms: CA   and  CB  
REMARK    2  A    between atoms: CB   and  CG  
REMARK    3  A    between atoms: CG   and  CD  
REMARK    4  A    between atoms: CD   and  CE  
ROOT
ATOM      1  CA  LYS A 135      33.193  34.663   9.290  1.00 25.02     0.186 C 
ENDROOT
BRANCH   1   2
ATOM      2  CB  LYS A 135      32.060  35.360  10.034  1.00 26.63     0.034 C 
BRANCH   2   3
ATOM      3  CG  LYS A 135      30.723  34.686   9.864  1.00 29.45     0.005 C 
BRANCH   3   4
ATOM      4  CD  LYS A 135      30.327  34.642   8.396  1.00 32.00     0.041 C 
BRANCH   4   5
ATOM      5  CE  LYS A 135      28.843  34.361   8.253  1.00 34.25     0.338 C 
ATOM      6  NZ  LYS A 135      28.291  33.748   9.493  1.00 35.99     0.618 N 
ENDBRANCH   4   5
ENDBRANCH   3   4
ENDBRANCH   2   3
ENDBRANCH   1   2
END_RES LYS A 135
BEGIN_RES ARG A 124
REMARK  4 active torsions:
REMARK  status: ('A' for Active; 'I' for Inactive)
REMARK    5  A    between atoms: CA   and  CB  
REMARK    6  A    between atoms: CB   and  CG  
REMARK    7  A    between atoms: CG   and  CD  
REMARK    8  A    between atoms: CD   and  NE  
REMARK       I    between atoms: NE   and  CZ  
ROOT
ATOM      7  CA  ARG A 124      31.045  26.515   9.594  1.00 17.84     0.186 C 
ENDROOT
BRANCH   7   8
ATOM      8  CB  ARG A 124      29.529  26.705   9.647  1.00 16.18     0.036 C 
BRANCH   8   9
ATOM      9  CG  ARG A 124      28.773  25.835  10.714  1.00 16.22     0.029 C 
BRANCH   9  10
ATOM     10  CD  ARG A 124      28.631  26.548  12.078  1.00 15.09     0.145 C 
BRANCH  10  11
ATOM     11  NE  ARG A 124      27.244  26.943  12.406  1.00 16.98    -0.083 NA
ATOM     12  CZ  ARG A 124      26.892  27.688  13.448  1.00 18.21     0.782 C 
ATOM     13  NH1 ARG A 124      27.798  28.162  14.295  1.00 21.11     0.063 N 
ATOM     14  NH2 ARG A 124      25.618  27.993  13.643  1.00 21.25     0.063 N 
ENDBRANCH  10  11
ENDBRANCH   9  10
ENDBRANCH   8   9
ENDBRANCH   7   8
END_RES ARG A 124
BEGIN_RES ASN A 133
REMARK  2 active torsions:
REMARK  status: ('A' for Active; 'I' for Inactive)
REMARK    9  A    between atoms: CA   and  CB  
REMARK   10  A    between atoms: CB   and  CG  
ROOT
ATOM     15  CA  ASN A 133      31.225  30.257  11.749  1.00 18.15     0.196 C 
ENDROOT
BRANCH  15  16
ATOM     16  CB  ASN A 133      30.092  31.240  11.460  1.00 18.27     0.126 C 
BRANCH  16  17
ATOM     17  CG  ASN A 133      28.738  30.601  11.467  1.00 18.94     0.276 C 
ATOM     18  OD1 ASN A 133      27.867  30.960  12.261  1.00 18.09    -0.269 OA
ATOM     19  ND2 ASN A 133      28.546  29.633  10.572  1.00 18.93    -0.107 N 
ENDBRANCH  16  17
ENDBRANCH  15  16
END_RES ASN A 133
BEGIN_RES LYS A 131
REMARK  4 active torsions:
REMARK  status: ('A' for Active; 'I' for Inactive)
REMARK   11  A    between atoms: CA   and  CB  
REMARK   12  A    between atoms: CB   and  CG  
REMARK   13  A    between atoms: CG   and  CD  
REMARK   14  A    between atoms: CD   and  CE  
ROOT
ATOM     20  CA  LYS A 131      29.867  25.555  16.977  1.00 20.52     0.186 C 
ENDROOT
BRANCH  20  21
ATOM     21  CB  LYS A 131      28.345  25.722  17.026  1.00 20.94     0.034 C 
BRANCH  21  22
ATOM     22  CG  LYS A 131      27.599  24.420  16.778  1.00 22.96     0.005 C 
BRANCH  22  23
ATOM     23  CD  LYS A 131      26.180  24.478  17.270  1.00 24.33     0.041 C 
BRANCH  23  24
ATOM     24  CE  LYS A 131      26.115  23.957  18.702  1.00 26.91     0.338 C 
ATOM     25  NZ  LYS A 131      25.583  25.001  19.610  1.00 27.40     0.618 N 
ENDBRANCH  23  24
ENDBRANCH  22  23
ENDBRANCH  21  22
ENDBRANCH  20  21
END_RES LYS A 131
