REMARK VINA RESULT:    -5.182      8.824     17.170
REMARK INTER + INTRA:         -16.921
REMARK INTER:                  -7.579
REMARK INTRA:                  -9.343
REMARK UNBOUND:                -7.952
REMARK SMILES CC(=O)N[C@@H]1[C@@H](O)C[C@](O)(C(=O)O)O[C@H]1C(O)[C@H](O)CNC(=O)OCc1cn(-c2cccc(Cl)c2)nn1
REMARK SMILES IDX 20 1 18 2 16 3 15 4 9 5 8 6 14 7 6 8 5 9 10 10 11 12 12 13
REMARK SMILES IDX 13 14 7 16 4 18 2 19 1 21 3 22 17 23 19 25 21 27 22 28 23 30
REMARK SMILES IDX 24 31 25 32 26 33 27 34 37 35 28 36 36 37 29 38 30 39 35 40
REMARK SMILES IDX 31 41 33 42 32 43 34 44
REMARK H PARENT 10 11 13 15 7 17 4 20 17 24 19 26 21 29
REMARK Flexibility Score: inf
ROOT
ATOM      1  C   UNL     1      27.840  17.803  15.719  1.00  0.00     0.154 C 
ENDROOT
BRANCH   1   2
ATOM      2  C   UNL     1      26.494  18.316  15.340  1.00  0.00     0.165 C 
BRANCH   2   3
ATOM      3  C   UNL     1      25.777  19.095  16.405  1.00  0.00     0.176 C 
BRANCH   3   4
ATOM      4  C   UNL     1      24.316  19.280  16.161  1.00  0.00     0.178 C 
ATOM      5  C   UNL     1      22.804  19.708  14.451  1.00  0.00     0.269 C 
ATOM      6  C   UNL     1      21.802  19.358  15.540  1.00  0.00     0.112 C 
ATOM      7  O   UNL     1      24.089  19.344  14.800  1.00  0.00    -0.332 OA
ATOM      8  C   UNL     1      22.141  20.159  16.753  1.00  0.00     0.145 C 
ATOM      9  C   UNL     1      23.666  20.413  16.869  1.00  0.00     0.142 C 
BRANCH   5  10
ATOM     10  O   UNL     1      22.683  21.081  14.246  1.00  0.00    -0.357 OA
ATOM     11  H   UNL     1      21.782  21.315  13.965  1.00  0.00     0.214 HD
ENDBRANCH   5  10
BRANCH   5  12
ATOM     12  C   UNL     1      22.456  19.022  13.187  1.00  0.00     0.364 C 
ATOM     13  O   UNL     1      21.269  18.872  12.858  1.00  0.00    -0.246 OA
BRANCH  12  14
ATOM     14  O   UNL     1      23.442  18.529  12.338  1.00  0.00    -0.477 OA
ATOM     15  H   UNL     1      23.326  18.700  11.349  1.00  0.00     0.296 HD
ENDBRANCH  12  14
ENDBRANCH   5  12
BRANCH   8  16
ATOM     16  O   UNL     1      21.543  21.418  16.622  1.00  0.00    -0.391 OA
ATOM     17  H   UNL     1      21.611  21.730  15.676  1.00  0.00     0.211 HD
ENDBRANCH   8  16
BRANCH   9  18
ATOM     18  N   UNL     1      23.929  20.333  18.313  1.00  0.00    -0.348 N 
ATOM     19  C   UNL     1      23.895  21.424  19.186  1.00  0.00     0.217 C 
ATOM     20  H   UNL     1      24.154  19.381  18.678  1.00  0.00     0.163 HD
ATOM     21  C   UNL     1      24.179  21.264  20.636  1.00  0.00     0.114 C 
ATOM     22  O   UNL     1      23.624  22.568  18.766  1.00  0.00    -0.275 OA
ENDBRANCH   9  18
ENDBRANCH   3   4
BRANCH   3  23
ATOM     23  O   UNL     1      25.912  18.486  17.655  1.00  0.00    -0.388 OA
ATOM     24  H   UNL     1      25.689  19.126  18.375  1.00  0.00     0.211 HD
ENDBRANCH   3  23
ENDBRANCH   2   3
BRANCH   2  25
ATOM     25  O   UNL     1      25.702  17.191  14.987  1.00  0.00    -0.388 OA
ATOM     26  H   UNL     1      25.968  16.960  14.058  1.00  0.00     0.211 HD
ENDBRANCH   2  25
ENDBRANCH   1   2
BRANCH   1  27
ATOM     27  N   UNL     1      27.866  16.929  16.869  1.00  0.00    -0.319 N 
ATOM     28  C   UNL     1      27.929  15.495  16.667  1.00  0.00     0.407 C 
ATOM     29  H   UNL     1      27.851  17.239  17.863  1.00  0.00     0.167 HD
ATOM     30  O   UNL     1      27.959  15.055  15.491  1.00  0.00    -0.225 OA
BRANCH  28  31
ATOM     31  O   UNL     1      27.957  14.619  17.719  1.00  0.00    -0.443 OA
BRANCH  31  32
ATOM     32  C   UNL     1      26.806  13.917  18.111  1.00  0.00     0.294 C 
BRANCH  32  33
ATOM     33  C   UNL     1      25.570  14.684  17.734  1.00  0.00     0.121 A 
ATOM     34  C   UNL     1      24.676  14.398  16.711  1.00  0.00     0.144 A 
ATOM     35  N   UNL     1      25.090  15.798  18.315  1.00  0.00    -0.131 NA
ATOM     36  N   UNL     1      23.707  15.329  16.708  1.00  0.00    -0.220 N 
ATOM     37  N   UNL     1      23.976  16.172  17.690  1.00  0.00    -0.062 NA
BRANCH  36  38
ATOM     38  C   UNL     1      22.581  15.449  15.848  1.00  0.00     0.068 A 
ATOM     39  C   UNL     1      21.313  15.642  16.364  1.00  0.00     0.028 A 
ATOM     40  C   UNL     1      22.690  15.382  14.474  1.00  0.00     0.049 A 
ATOM     41  C   UNL     1      20.208  15.761  15.535  1.00  0.00     0.004 A 
ATOM     42  C   UNL     1      21.599  15.499  13.638  1.00  0.00     0.043 A 
ATOM     43  C   UNL     1      20.337  15.690  14.162  1.00  0.00     0.020 A 
ATOM     44  Cl  UNL     1      21.781  15.407  11.882  1.00  0.00    -0.084 Cl
ENDBRANCH  36  38
ENDBRANCH  32  33
ENDBRANCH  31  32
ENDBRANCH  28  31
ENDBRANCH   1  27
TORSDOF 15
BEGIN_RES LYS A 135
REMARK  4 active torsions:
REMARK  status: ('A' for Active; 'I' for Inactive)
REMARK    1  A    between atoms: CA   and  CB  
REMARK    2  A    between atoms: CB   and  CG  
REMARK    3  A    between atoms: CG   and  CD  
REMARK    4  A    between atoms: CD   and  CE  
ROOT
ATOM      1  CA  LYS A 135      33.193  34.663   9.290  1.00 25.02     0.186 C 
ENDROOT
BRANCH   1   2
ATOM      2  CB  LYS A 135      32.060  35.360  10.034  1.00 26.63     0.034 C 
BRANCH   2   3
ATOM      3  CG  LYS A 135      30.805  35.512   9.214  1.00 29.45     0.005 C 
BRANCH   3   4
ATOM      4  CD  LYS A 135      30.180  34.155   8.932  1.00 32.00     0.041 C 
BRANCH   4   5
ATOM      5  CE  LYS A 135      28.692  34.297   8.673  1.00 34.25     0.338 C 
ATOM      6  NZ  LYS A 135      27.896  33.605   9.725  1.00 35.99     0.618 N 
ENDBRANCH   4   5
ENDBRANCH   3   4
ENDBRANCH   2   3
ENDBRANCH   1   2
END_RES LYS A 135
BEGIN_RES ARG A 124
REMARK  4 active torsions:
REMARK  status: ('A' for Active; 'I' for Inactive)
REMARK    5  A    between atoms: CA   and  CB  
REMARK    6  A    between atoms: CB   and  CG  
REMARK    7  A    between atoms: CG   and  CD  
REMARK    8  A    between atoms: CD   and  NE  
REMARK       I    between atoms: NE   and  CZ  
ROOT
ATOM      7  CA  ARG A 124      31.045  26.515   9.594  1.00 17.84     0.186 C 
ENDROOT
BRANCH   7   8
ATOM      8  CB  ARG A 124      29.529  26.705   9.647  1.00 16.18     0.036 C 
BRANCH   8   9
ATOM      9  CG  ARG A 124      28.960  27.245  11.008  1.00 16.22     0.029 C 
BRANCH   9  10
ATOM     10  CD  ARG A 124      28.241  26.153  11.832  1.00 15.09     0.145 C 
BRANCH  10  11
ATOM     11  NE  ARG A 124      27.792  26.609  13.166  1.00 16.98    -0.083 NA
ATOM     12  CZ  ARG A 124      26.609  27.156  13.425  1.00 18.21     0.782 C 
ATOM     13  NH1 ARG A 124      25.704  27.327  12.468  1.00 21.11     0.063 N 
ATOM     14  NH2 ARG A 124      26.305  27.520  14.661  1.00 21.25     0.063 N 
ENDBRANCH  10  11
ENDBRANCH   9  10
ENDBRANCH   8   9
ENDBRANCH   7   8
END_RES ARG A 124
BEGIN_RES ASN A 133
REMARK  2 active torsions:
REMARK  status: ('A' for Active; 'I' for Inactive)
REMARK    9  A    between atoms: CA   and  CB  
REMARK   10  A    between atoms: CB   and  CG  
ROOT
ATOM     15  CA  ASN A 133      31.225  30.257  11.749  1.00 18.15     0.196 C 
ENDROOT
BRANCH  15  16
ATOM     16  CB  ASN A 133      30.092  31.240  11.460  1.00 18.27     0.126 C 
BRANCH  16  17
ATOM     17  CG  ASN A 133      28.759  30.769  11.954  1.00 18.94     0.276 C 
ATOM     18  OD1 ASN A 133      28.055  30.021  11.275  1.00 18.09    -0.269 OA
ATOM     19  ND2 ASN A 133      28.396  31.209  13.158  1.00 18.93    -0.107 N 
ENDBRANCH  16  17
ENDBRANCH  15  16
END_RES ASN A 133
BEGIN_RES LYS A 131
REMARK  4 active torsions:
REMARK  status: ('A' for Active; 'I' for Inactive)
REMARK   11  A    between atoms: CA   and  CB  
REMARK   12  A    between atoms: CB   and  CG  
REMARK   13  A    between atoms: CG   and  CD  
REMARK   14  A    between atoms: CD   and  CE  
ROOT
ATOM     20  CA  LYS A 131      29.867  25.555  16.977  1.00 20.52     0.186 C 
ENDROOT
BRANCH  20  21
ATOM     21  CB  LYS A 131      28.345  25.722  17.026  1.00 20.94     0.034 C 
BRANCH  21  22
ATOM     22  CG  LYS A 131      27.600  24.408  16.849  1.00 22.96     0.005 C 
BRANCH  22  23
ATOM     23  CD  LYS A 131      26.148  24.525  17.220  1.00 24.33     0.041 C 
BRANCH  23  24
ATOM     24  CE  LYS A 131      25.963  25.688  18.190  1.00 26.91     0.338 C 
ATOM     25  NZ  LYS A 131      25.711  25.185  19.561  1.00 27.40     0.618 N 
ENDBRANCH  23  24
ENDBRANCH  22  23
ENDBRANCH  21  22
ENDBRANCH  20  21
END_RES LYS A 131
