REMARK VINA RESULT:    -5.545      3.763      7.285
REMARK INTER + INTRA:         -17.796
REMARK INTER:                  -9.597
REMARK INTRA:                  -8.199
REMARK UNBOUND:                -8.198
REMARK SMILES CC(=O)N[C@@H]1[C@@H](O)C[C@](O)(C(=O)O)O[C@H]1C(O)[C@H](O)CNC(=O)OCc1cn(C23CC4CC(CC(C4)C2)C3)nn1
REMARK SMILES IDX 20 1 18 2 16 3 15 4 9 5 8 6 14 7 6 8 5 9 10 10 11 12 12 13
REMARK SMILES IDX 13 14 7 16 4 18 2 19 1 21 3 22 17 23 19 25 21 27 22 28 23 30
REMARK SMILES IDX 24 31 25 32 26 33 27 34 40 35 28 36 39 37 29 38 38 39 37 40
REMARK SMILES IDX 30 41 33 42 35 43 31 44 32 45 34 46 36 47
REMARK H PARENT 10 11 13 15 7 17 4 20 17 24 19 26 21 29
REMARK Flexibility Score: inf
ROOT
ATOM      1  C   UNL     1      30.352  31.320  16.901  1.00  0.00     0.154 C 
ENDROOT
BRANCH   1   2
ATOM      2  C   UNL     1      30.768  32.487  16.008  1.00  0.00     0.165 C 
BRANCH   2   3
ATOM      3  C   UNL     1      29.625  33.174  15.354  1.00  0.00     0.176 C 
BRANCH   3   4
ATOM      4  C   UNL     1      29.921  34.262  14.397  1.00  0.00     0.178 C 
ATOM      5  C   UNL     1      31.372  36.037  13.984  1.00  0.00     0.269 C 
ATOM      6  C   UNL     1      30.531  36.480  12.840  1.00  0.00     0.112 C 
ATOM      7  O   UNL     1      30.766  35.236  14.919  1.00  0.00    -0.332 OA
ATOM      8  C   UNL     1      29.382  35.610  12.476  1.00  0.00     0.145 C 
ATOM      9  C   UNL     1      28.775  34.934  13.732  1.00  0.00     0.142 C 
BRANCH   5  10
ATOM     10  O   UNL     1      31.716  37.226  14.691  1.00  0.00    -0.357 OA
ATOM     11  H   UNL     1      31.682  37.947  14.011  1.00  0.00     0.214 HD
ENDBRANCH   5  10
BRANCH   5  12
ATOM     12  C   UNL     1      32.663  35.493  13.501  1.00  0.00     0.364 C 
ATOM     13  O   UNL     1      33.408  34.906  14.318  1.00  0.00    -0.246 OA
BRANCH  12  14
ATOM     14  O   UNL     1      33.083  35.603  12.191  1.00  0.00    -0.477 OA
ATOM     15  H   UNL     1      32.346  35.754  11.492  1.00  0.00     0.296 HD
ENDBRANCH  12  14
ENDBRANCH   5  12
BRANCH   8  16
ATOM     16  O   UNL     1      28.366  36.299  11.855  1.00  0.00    -0.391 OA
ATOM     17  H   UNL     1      27.848  35.674  11.282  1.00  0.00     0.211 HD
ENDBRANCH   8  16
BRANCH   9  18
ATOM     18  N   UNL     1      27.764  34.057  13.217  1.00  0.00    -0.348 N 
ATOM     19  C   UNL     1      26.477  34.053  13.803  1.00  0.00     0.217 C 
ATOM     20  H   UNL     1      27.985  33.436  12.424  1.00  0.00     0.163 HD
ATOM     21  C   UNL     1      25.381  33.172  13.324  1.00  0.00     0.114 C 
ATOM     22  O   UNL     1      26.237  34.827  14.772  1.00  0.00    -0.275 OA
ENDBRANCH   9  18
ENDBRANCH   3   4
BRANCH   3  23
ATOM     23  O   UNL     1      28.700  33.597  16.308  1.00  0.00    -0.388 OA
ATOM     24  H   UNL     1      28.434  34.538  16.171  1.00  0.00     0.211 HD
ENDBRANCH   3  23
ENDBRANCH   2   3
BRANCH   2  25
ATOM     25  O   UNL     1      31.487  31.857  14.948  1.00  0.00    -0.388 OA
ATOM     26  H   UNL     1      32.059  31.138  15.323  1.00  0.00     0.211 HD
ENDBRANCH   2  25
ENDBRANCH   1   2
BRANCH   1  27
ATOM     27  N   UNL     1      29.334  30.517  16.212  1.00  0.00    -0.319 N 
ATOM     28  C   UNL     1      28.042  30.337  16.749  1.00  0.00     0.407 C 
ATOM     29  H   UNL     1      29.572  30.075  15.313  1.00  0.00     0.167 HD
ATOM     30  O   UNL     1      27.820  30.914  17.863  1.00  0.00    -0.225 OA
BRANCH  28  31
ATOM     31  O   UNL     1      27.055  29.587  16.129  1.00  0.00    -0.443 OA
BRANCH  31  32
ATOM     32  C   UNL     1      26.199  28.749  16.861  1.00  0.00     0.294 C 
BRANCH  32  33
ATOM     33  C   UNL     1      24.845  28.829  16.263  1.00  0.00     0.120 A 
ATOM     34  C   UNL     1      24.248  29.913  15.652  1.00  0.00     0.138 A 
ATOM     35  N   UNL     1      23.958  27.840  16.213  1.00  0.00    -0.132 NA
ATOM     36  N   UNL     1      23.020  29.546  15.252  1.00  0.00    -0.246 N 
ATOM     37  N   UNL     1      22.860  28.264  15.607  1.00  0.00    -0.066 NA
BRANCH  36  38
ATOM     38  C   UNL     1      22.084  30.394  14.574  1.00  0.00     0.065 C 
ATOM     39  C   UNL     1      22.267  31.822  15.021  1.00  0.00     0.034 C 
ATOM     40  C   UNL     1      20.647  30.011  14.948  1.00  0.00     0.034 C 
ATOM     41  C   UNL     1      22.278  30.239  13.078  1.00  0.00     0.034 C 
ATOM     42  C   UNL     1      21.319  32.726  14.269  1.00  0.00    -0.008 C 
ATOM     43  C   UNL     1      19.699  30.898  14.196  1.00  0.00    -0.008 C 
ATOM     44  C   UNL     1      21.316  31.146  12.363  1.00  0.00    -0.008 C 
ATOM     45  C   UNL     1      21.604  32.559  12.791  1.00  0.00     0.007 C 
ATOM     46  C   UNL     1      19.881  32.363  14.500  1.00  0.00     0.007 C 
ATOM     47  C   UNL     1      19.915  30.714  12.711  1.00  0.00     0.007 C 
ENDBRANCH  36  38
ENDBRANCH  32  33
ENDBRANCH  31  32
ENDBRANCH  28  31
ENDBRANCH   1  27
TORSDOF 15
BEGIN_RES LYS A 135
REMARK  4 active torsions:
REMARK  status: ('A' for Active; 'I' for Inactive)
REMARK    1  A    between atoms: CA   and  CB  
REMARK    2  A    between atoms: CB   and  CG  
REMARK    3  A    between atoms: CG   and  CD  
REMARK    4  A    between atoms: CD   and  CE  
ROOT
ATOM      1  CA  LYS A 135      33.193  34.663   9.290  1.00 25.02     0.186 C 
ENDROOT
BRANCH   1   2
ATOM      2  CB  LYS A 135      32.060  35.360  10.034  1.00 26.63     0.034 C 
BRANCH   2   3
ATOM      3  CG  LYS A 135      30.809  35.523   9.210  1.00 29.45     0.005 C 
BRANCH   3   4
ATOM      4  CD  LYS A 135      30.168  34.172   8.934  1.00 32.00     0.041 C 
BRANCH   4   5
ATOM      5  CE  LYS A 135      28.679  34.328   8.691  1.00 34.25     0.338 C 
ATOM      6  NZ  LYS A 135      27.887  33.607   9.726  1.00 35.99     0.618 N 
ENDBRANCH   4   5
ENDBRANCH   3   4
ENDBRANCH   2   3
ENDBRANCH   1   2
END_RES LYS A 135
BEGIN_RES ARG A 124
REMARK  4 active torsions:
REMARK  status: ('A' for Active; 'I' for Inactive)
REMARK    5  A    between atoms: CA   and  CB  
REMARK    6  A    between atoms: CB   and  CG  
REMARK    7  A    between atoms: CG   and  CD  
REMARK    8  A    between atoms: CD   and  NE  
REMARK       I    between atoms: NE   and  CZ  
ROOT
ATOM      7  CA  ARG A 124      31.045  26.515   9.594  1.00 17.84     0.186 C 
ENDROOT
BRANCH   7   8
ATOM      8  CB  ARG A 124      29.529  26.705   9.647  1.00 16.18     0.036 C 
BRANCH   8   9
ATOM      9  CG  ARG A 124      28.911  26.834  11.085  1.00 16.22     0.029 C 
BRANCH   9  10
ATOM     10  CD  ARG A 124      27.646  25.966  11.275  1.00 15.09     0.145 C 
BRANCH  10  11
ATOM     11  NE  ARG A 124      26.401  26.750  11.431  1.00 16.98    -0.083 NA
ATOM     12  CZ  ARG A 124      25.966  27.265  12.576  1.00 18.21     0.782 C 
ATOM     13  NH1 ARG A 124      26.652  27.119  13.703  1.00 21.11     0.063 N 
ATOM     14  NH2 ARG A 124      24.840  27.961  12.602  1.00 21.25     0.063 N 
ENDBRANCH  10  11
ENDBRANCH   9  10
ENDBRANCH   8   9
ENDBRANCH   7   8
END_RES ARG A 124
BEGIN_RES ASN A 133
REMARK  2 active torsions:
REMARK  status: ('A' for Active; 'I' for Inactive)
REMARK    9  A    between atoms: CA   and  CB  
REMARK   10  A    between atoms: CB   and  CG  
ROOT
ATOM     15  CA  ASN A 133      31.225  30.257  11.749  1.00 18.15     0.196 C 
ENDROOT
BRANCH  15  16
ATOM     16  CB  ASN A 133      30.092  31.240  11.460  1.00 18.27     0.126 C 
BRANCH  16  17
ATOM     17  CG  ASN A 133      28.764  30.781  11.977  1.00 18.94     0.276 C 
ATOM     18  OD1 ASN A 133      28.365  31.111  13.095  1.00 18.09    -0.269 OA
ATOM     19  ND2 ASN A 133      28.058  30.002  11.158  1.00 18.93    -0.107 N 
ENDBRANCH  16  17
ENDBRANCH  15  16
END_RES ASN A 133
BEGIN_RES LYS A 131
REMARK  4 active torsions:
REMARK  status: ('A' for Active; 'I' for Inactive)
REMARK   11  A    between atoms: CA   and  CB  
REMARK   12  A    between atoms: CB   and  CG  
REMARK   13  A    between atoms: CG   and  CD  
REMARK   14  A    between atoms: CD   and  CE  
ROOT
ATOM     20  CA  LYS A 131      29.867  25.555  16.977  1.00 20.52     0.186 C 
ENDROOT
BRANCH  20  21
ATOM     21  CB  LYS A 131      28.345  25.722  17.026  1.00 20.94     0.034 C 
BRANCH  21  22
ATOM     22  CG  LYS A 131      27.600  24.412  16.824  1.00 22.96     0.005 C 
BRANCH  22  23
ATOM     23  CD  LYS A 131      26.628  24.135  17.936  1.00 24.33     0.041 C 
BRANCH  23  24
ATOM     24  CE  LYS A 131      25.234  23.925  17.354  1.00 26.91     0.338 C 
ATOM     25  NZ  LYS A 131      24.814  22.512  17.509  1.00 27.40     0.618 N 
ENDBRANCH  23  24
ENDBRANCH  22  23
ENDBRANCH  21  22
ENDBRANCH  20  21
END_RES LYS A 131
