REMARK VINA RESULT:    -5.876      3.129      8.375
REMARK INTER + INTRA:         -20.876
REMARK INTER:                 -10.574
REMARK INTRA:                 -10.303
REMARK UNBOUND:                -8.816
REMARK SMILES CC(=O)N[C@@H]1[C@@H](O)C[C@](O)(C(=O)O)O[C@H]1C(O)[C@H](O)CNC(=O)OCc1cn(C[C@@H](C(=O)O)C(c2ccccc2)c2ccccc2)nn1
REMARK SMILES IDX 21 1 22 2 23 3 20 5 18 6 16 7 15 8 9 9 8 10 14 11 6 12 5 13
REMARK SMILES IDX 10 14 11 16 12 17 13 18 7 20 4 22 2 23 1 25 3 26 17 27 19 29
REMARK SMILES IDX 24 31 25 32 26 33 27 34 48 35 28 36 47 37 29 38 30 39 31 40
REMARK SMILES IDX 32 41 33 42 34 44 35 45 36 46 40 47 37 48 39 49 38 50 41 51
REMARK SMILES IDX 42 52 46 53 43 54 45 55 44 56
REMARK H PARENT 21 4 10 15 13 19 7 21 4 24 17 28 19 30 33 43
REMARK Flexibility Score: inf
ROOT
ATOM      1  N   UNL     1      23.808  42.090  10.418  1.00  0.00    -0.319 N 
ATOM      2  C   UNL     1      25.051  41.813  11.004  1.00  0.00     0.407 C 
ATOM      3  O   UNL     1      25.148  40.823  11.772  1.00  0.00    -0.225 OA
ATOM      4  H   UNL     1      23.674  42.889   9.779  1.00  0.00     0.167 HD
ENDROOT
BRANCH   1   5
ATOM      5  C   UNL     1      22.633  41.238  10.696  1.00  0.00     0.154 C 
BRANCH   5   6
ATOM      6  C   UNL     1      21.979  40.924   9.382  1.00  0.00     0.165 C 
BRANCH   6   7
ATOM      7  C   UNL     1      21.233  39.639   9.296  1.00  0.00     0.176 C 
BRANCH   7   8
ATOM      8  C   UNL     1      22.102  38.393   9.247  1.00  0.00     0.178 C 
ATOM      9  C   UNL     1      24.373  37.920   9.565  1.00  0.00     0.269 C 
ATOM     10  C   UNL     1      24.371  37.093   8.286  1.00  0.00     0.112 C 
ATOM     11  O   UNL     1      23.402  38.894   9.494  1.00  0.00    -0.332 OA
ATOM     12  C   UNL     1      23.450  37.745   7.265  1.00  0.00     0.145 C 
ATOM     13  C   UNL     1      22.037  37.740   7.911  1.00  0.00     0.142 C 
BRANCH   9  14
ATOM     14  O   UNL     1      25.603  38.633   9.578  1.00  0.00    -0.357 OA
ATOM     15  H   UNL     1      25.603  39.170   8.756  1.00  0.00     0.214 HD
ENDBRANCH   9  14
BRANCH   9  16
ATOM     16  C   UNL     1      24.341  37.093  10.781  1.00  0.00     0.364 C 
ATOM     17  O   UNL     1      24.666  37.580  11.883  1.00  0.00    -0.246 OA
BRANCH  16  18
ATOM     18  O   UNL     1      23.952  35.774  10.710  1.00  0.00    -0.477 OA
ATOM     19  H   UNL     1      23.275  35.414  10.042  1.00  0.00     0.296 HD
ENDBRANCH  16  18
ENDBRANCH   9  16
BRANCH  12  20
ATOM     20  O   UNL     1      23.773  39.054   7.031  1.00  0.00    -0.391 OA
ATOM     21  H   UNL     1      23.154  39.514   6.396  1.00  0.00     0.211 HD
ENDBRANCH  12  20
BRANCH  13  22
ATOM     22  N   UNL     1      21.563  36.365   7.937  1.00  0.00    -0.348 N 
ATOM     23  C   UNL     1      20.195  36.098   7.733  1.00  0.00     0.217 C 
ATOM     24  H   UNL     1      22.210  35.564   8.104  1.00  0.00     0.163 HD
ATOM     25  C   UNL     1      19.743  34.662   7.774  1.00  0.00     0.114 C 
ATOM     26  O   UNL     1      19.316  36.965   7.518  1.00  0.00    -0.275 OA
ENDBRANCH  13  22
ENDBRANCH   7   8
BRANCH   7  27
ATOM     27  O   UNL     1      20.552  39.635   8.008  1.00  0.00    -0.388 OA
ATOM     28  H   UNL     1      21.322  39.649   7.379  1.00  0.00     0.211 HD
ENDBRANCH   7  27
ENDBRANCH   6   7
BRANCH   6  29
ATOM     29  O   UNL     1      22.780  41.227   8.302  1.00  0.00    -0.388 OA
ATOM     30  H   UNL     1      22.894  42.206   8.164  1.00  0.00     0.211 HD
ENDBRANCH   6  29
ENDBRANCH   5   6
ENDBRANCH   1   5
BRANCH   2  31
ATOM     31  O   UNL     1      26.194  42.573  10.787  1.00  0.00    -0.443 OA
BRANCH  31  32
ATOM     32  C   UNL     1      26.467  43.049   9.480  1.00  0.00     0.294 C 
BRANCH  32  33
ATOM     33  C   UNL     1      26.777  41.900   8.590  1.00  0.00     0.120 A 
ATOM     34  C   UNL     1      27.989  41.352   8.236  1.00  0.00     0.138 A 
ATOM     35  N   UNL     1      25.864  41.161   7.940  1.00  0.00    -0.132 NA
ATOM     36  N   UNL     1      27.808  40.316   7.400  1.00  0.00    -0.251 N 
ATOM     37  N   UNL     1      26.485  40.224   7.237  1.00  0.00    -0.067 NA
BRANCH  36  38
ATOM     38  C   UNL     1      28.814  39.441   6.776  1.00  0.00     0.162 C 
BRANCH  38  39
ATOM     39  C   UNL     1      28.472  38.025   7.138  1.00  0.00     0.132 C 
BRANCH  39  40
ATOM     40  C   UNL     1      28.113  37.208   5.938  1.00  0.00     0.309 C 
ATOM     41  O   UNL     1      29.031  36.763   5.167  1.00  0.00    -0.252 OA
BRANCH  40  42
ATOM     42  O   UNL     1      26.825  36.877   5.577  1.00  0.00    -0.481 OA
ATOM     43  H   UNL     1      26.257  37.478   4.964  1.00  0.00     0.296 HD
ENDBRANCH  40  42
ENDBRANCH  39  40
BRANCH  39  44
ATOM     44  C   UNL     1      29.434  37.325   8.029  1.00  0.00     0.065 C 
BRANCH  44  45
ATOM     45  C   UNL     1      28.943  36.051   8.597  1.00  0.00    -0.040 A 
ATOM     46  C   UNL     1      27.647  35.906   8.963  1.00  0.00     0.004 A 
ATOM     47  C   UNL     1      29.819  34.994   8.769  1.00  0.00     0.004 A 
ATOM     48  C   UNL     1      27.220  34.689   9.510  1.00  0.00     0.000 A 
ATOM     49  C   UNL     1      29.420  33.789   9.305  1.00  0.00     0.000 A 
ATOM     50  C   UNL     1      28.101  33.644   9.677  1.00  0.00     0.000 A 
ENDBRANCH  44  45
BRANCH  44  51
ATOM     51  C   UNL     1      30.058  38.178   9.070  1.00  0.00    -0.040 A 
ATOM     52  C   UNL     1      31.364  38.606   9.028  1.00  0.00     0.004 A 
ATOM     53  C   UNL     1      29.336  38.600  10.186  1.00  0.00     0.004 A 
ATOM     54  C   UNL     1      31.915  39.392  10.016  1.00  0.00     0.000 A 
ATOM     55  C   UNL     1      29.871  39.384  11.180  1.00  0.00     0.000 A 
ATOM     56  C   UNL     1      31.183  39.790  11.097  1.00  0.00     0.000 A 
ENDBRANCH  44  51
ENDBRANCH  39  44
ENDBRANCH  38  39
ENDBRANCH  36  38
ENDBRANCH  32  33
ENDBRANCH  31  32
ENDBRANCH   2  31
TORSDOF 21
BEGIN_RES LYS A 135
REMARK  4 active torsions:
REMARK  status: ('A' for Active; 'I' for Inactive)
REMARK    1  A    between atoms: CA   and  CB  
REMARK    2  A    between atoms: CB   and  CG  
REMARK    3  A    between atoms: CG   and  CD  
REMARK    4  A    between atoms: CD   and  CE  
ROOT
ATOM      1  CA  LYS A 135      33.193  34.663   9.290  1.00 25.02     0.186 C 
ENDROOT
BRANCH   1   2
ATOM      2  CB  LYS A 135      32.060  35.360  10.034  1.00 26.63     0.034 C 
BRANCH   2   3
ATOM      3  CG  LYS A 135      32.466  35.898  11.382  1.00 29.45     0.005 C 
BRANCH   3   4
ATOM      4  CD  LYS A 135      31.240  36.207  12.227  1.00 32.00     0.041 C 
BRANCH   4   5
ATOM      5  CE  LYS A 135      30.535  34.927  12.631  1.00 34.25     0.338 C 
ATOM      6  NZ  LYS A 135      29.064  35.134  12.735  1.00 35.99     0.618 N 
ENDBRANCH   4   5
ENDBRANCH   3   4
ENDBRANCH   2   3
ENDBRANCH   1   2
END_RES LYS A 135
BEGIN_RES ARG A 124
REMARK  4 active torsions:
REMARK  status: ('A' for Active; 'I' for Inactive)
REMARK    5  A    between atoms: CA   and  CB  
REMARK    6  A    between atoms: CB   and  CG  
REMARK    7  A    between atoms: CG   and  CD  
REMARK    8  A    between atoms: CD   and  NE  
REMARK       I    between atoms: NE   and  CZ  
ROOT
ATOM      7  CA  ARG A 124      31.045  26.515   9.594  1.00 17.84     0.186 C 
ENDROOT
BRANCH   7   8
ATOM      8  CB  ARG A 124      29.529  26.705   9.647  1.00 16.18     0.036 C 
BRANCH   8   9
ATOM      9  CG  ARG A 124      28.972  27.358  10.962  1.00 16.22     0.029 C 
BRANCH   9  10
ATOM     10  CD  ARG A 124      28.408  26.317  11.957  1.00 15.09     0.145 C 
BRANCH  10  11
ATOM     11  NE  ARG A 124      28.016  26.889  13.263  1.00 16.98    -0.083 NA
ATOM     12  CZ  ARG A 124      26.826  27.413  13.537  1.00 18.21     0.782 C 
ATOM     13  NH1 ARG A 124      25.862  27.450  12.625  1.00 21.11     0.063 N 
ATOM     14  NH2 ARG A 124      26.575  27.889  14.747  1.00 21.25     0.063 N 
ENDBRANCH  10  11
ENDBRANCH   9  10
ENDBRANCH   8   9
ENDBRANCH   7   8
END_RES ARG A 124
BEGIN_RES ASN A 133
REMARK  2 active torsions:
REMARK  status: ('A' for Active; 'I' for Inactive)
REMARK    9  A    between atoms: CA   and  CB  
REMARK   10  A    between atoms: CB   and  CG  
ROOT
ATOM     15  CA  ASN A 133      31.225  30.257  11.749  1.00 18.15     0.196 C 
ENDROOT
BRANCH  15  16
ATOM     16  CB  ASN A 133      30.092  31.240  11.460  1.00 18.27     0.126 C 
BRANCH  16  17
ATOM     17  CG  ASN A 133      29.003  31.206  12.487  1.00 18.94     0.276 C 
ATOM     18  OD1 ASN A 133      29.117  31.803  13.559  1.00 18.09    -0.269 OA
ATOM     19  ND2 ASN A 133      27.922  30.495  12.167  1.00 18.93    -0.107 N 
ENDBRANCH  16  17
ENDBRANCH  15  16
END_RES ASN A 133
BEGIN_RES LYS A 131
REMARK  4 active torsions:
REMARK  status: ('A' for Active; 'I' for Inactive)
REMARK   11  A    between atoms: CA   and  CB  
REMARK   12  A    between atoms: CB   and  CG  
REMARK   13  A    between atoms: CG   and  CD  
REMARK   14  A    between atoms: CD   and  CE  
ROOT
ATOM     20  CA  LYS A 131      29.867  25.555  16.977  1.00 20.52     0.186 C 
ENDROOT
BRANCH  20  21
ATOM     21  CB  LYS A 131      28.345  25.722  17.026  1.00 20.94     0.034 C 
BRANCH  21  22
ATOM     22  CG  LYS A 131      27.600  24.410  16.830  1.00 22.96     0.005 C 
BRANCH  22  23
ATOM     23  CD  LYS A 131      26.305  24.375  17.593  1.00 24.33     0.041 C 
BRANCH  23  24
ATOM     24  CE  LYS A 131      25.245  25.166  16.832  1.00 26.91     0.338 C 
ATOM     25  NZ  LYS A 131      24.702  26.254  17.680  1.00 27.40     0.618 N 
ENDBRANCH  23  24
ENDBRANCH  22  23
ENDBRANCH  21  22
ENDBRANCH  20  21
END_RES LYS A 131
