REMARK VINA RESULT:    -5.494      2.562      5.201
REMARK INTER + INTRA:         -17.706
REMARK INTER:                 -10.398
REMARK INTRA:                  -7.308
REMARK UNBOUND:                -8.198
REMARK SMILES CC(=O)N[C@@H]1[C@@H](O)C[C@](O)(C(=O)O)O[C@H]1C(O)[C@H](O)CNC(=O)OCc1cn(C23CC4CC(CC(C4)C2)C3)nn1
REMARK SMILES IDX 20 1 18 2 16 3 15 4 9 5 8 6 14 7 6 8 5 9 10 10 11 12 12 13
REMARK SMILES IDX 13 14 7 16 4 18 2 19 1 21 3 22 17 23 19 25 21 27 22 28 23 30
REMARK SMILES IDX 24 31 25 32 26 33 27 34 40 35 28 36 39 37 29 38 38 39 37 40
REMARK SMILES IDX 30 41 33 42 35 43 31 44 32 45 34 46 36 47
REMARK H PARENT 10 11 13 15 7 17 4 20 17 24 19 26 21 29
REMARK Flexibility Score: inf
ROOT
ATOM      1  C   UNL     1      27.041  29.836  16.000  1.00  0.00     0.154 C 
ENDROOT
BRANCH   1   2
ATOM      2  C   UNL     1      28.339  30.551  16.372  1.00  0.00     0.165 C 
BRANCH   2   3
ATOM      3  C   UNL     1      28.186  32.020  16.530  1.00  0.00     0.176 C 
BRANCH   3   4
ATOM      4  C   UNL     1      29.399  32.821  16.806  1.00  0.00     0.178 C 
ATOM      5  C   UNL     1      31.180  33.917  15.783  1.00  0.00     0.269 C 
ATOM      6  C   UNL     1      31.811  34.165  17.107  1.00  0.00     0.112 C 
ATOM      7  O   UNL     1      30.263  32.899  15.720  1.00  0.00    -0.332 OA
ATOM      8  C   UNL     1      31.032  33.757  18.306  1.00  0.00     0.145 C 
ATOM      9  C   UNL     1      30.190  32.489  18.019  1.00  0.00     0.142 C 
BRANCH   5  10
ATOM     10  O   UNL     1      32.241  33.505  14.924  1.00  0.00    -0.357 OA
ATOM     11  H   UNL     1      31.939  32.642  14.539  1.00  0.00     0.214 HD
ENDBRANCH   5  10
BRANCH   5  12
ATOM     12  C   UNL     1      30.685  35.184  15.197  1.00  0.00     0.364 C 
ATOM     13  O   UNL     1      31.215  36.259  15.561  1.00  0.00    -0.246 OA
BRANCH  12  14
ATOM     14  O   UNL     1      29.667  35.236  14.267  1.00  0.00    -0.477 OA
ATOM     15  H   UNL     1      28.891  34.580  14.409  1.00  0.00     0.296 HD
ENDBRANCH  12  14
ENDBRANCH   5  12
BRANCH   8  16
ATOM     16  O   UNL     1      31.831  33.476  19.391  1.00  0.00    -0.391 OA
ATOM     17  H   UNL     1      32.209  32.562  19.293  1.00  0.00     0.211 HD
ENDBRANCH   8  16
BRANCH   9  18
ATOM     18  N   UNL     1      29.424  32.285  19.215  1.00  0.00    -0.348 N 
ATOM     19  C   UNL     1      29.736  31.203  20.070  1.00  0.00     0.217 C 
ATOM     20  H   UNL     1      28.652  32.930  19.440  1.00  0.00     0.163 HD
ATOM     21  C   UNL     1      28.987  30.930  21.323  1.00  0.00     0.114 C 
ATOM     22  O   UNL     1      30.690  30.432  19.767  1.00  0.00    -0.275 OA
ENDBRANCH   9  18
ENDBRANCH   3   4
BRANCH   3  23
ATOM     23  O   UNL     1      27.184  32.308  17.457  1.00  0.00    -0.388 OA
ATOM     24  H   UNL     1      27.006  33.278  17.516  1.00  0.00     0.211 HD
ENDBRANCH   3  23
ENDBRANCH   2   3
BRANCH   2  25
ATOM     25  O   UNL     1      29.158  30.379  15.214  1.00  0.00    -0.388 OA
ATOM     26  H   UNL     1      28.983  29.486  14.820  1.00  0.00     0.211 HD
ENDBRANCH   2  25
ENDBRANCH   1   2
BRANCH   1  27
ATOM     27  N   UNL     1      26.392  30.548  14.891  1.00  0.00    -0.319 N 
ATOM     28  C   UNL     1      25.120  31.143  15.035  1.00  0.00     0.407 C 
ATOM     29  H   UNL     1      26.879  30.613  13.987  1.00  0.00     0.167 HD
ATOM     30  O   UNL     1      24.579  31.021  16.182  1.00  0.00    -0.225 OA
BRANCH  28  31
ATOM     31  O   UNL     1      24.476  31.823  14.014  1.00  0.00    -0.443 OA
BRANCH  31  32
ATOM     32  C   UNL     1      24.465  33.225  13.957  1.00  0.00     0.294 C 
BRANCH  32  33
ATOM     33  C   UNL     1      25.646  33.670  13.177  1.00  0.00     0.120 A 
ATOM     34  C   UNL     1      25.671  34.203  11.904  1.00  0.00     0.138 A 
ATOM     35  N   UNL     1      26.909  33.629  13.587  1.00  0.00    -0.132 NA
ATOM     36  N   UNL     1      26.948  34.468  11.584  1.00  0.00    -0.246 N 
ATOM     37  N   UNL     1      27.696  34.107  12.637  1.00  0.00    -0.066 NA
BRANCH  36  38
ATOM     38  C   UNL     1      27.389  35.032  10.343  1.00  0.00     0.065 C 
ATOM     39  C   UNL     1      28.216  36.264  10.604  1.00  0.00     0.034 C 
ATOM     40  C   UNL     1      26.187  35.494   9.509  1.00  0.00     0.034 C 
ATOM     41  C   UNL     1      28.165  33.979   9.576  1.00  0.00     0.034 C 
ATOM     42  C   UNL     1      28.728  36.831   9.300  1.00  0.00    -0.008 C 
ATOM     43  C   UNL     1      26.686  36.047   8.207  1.00  0.00    -0.008 C 
ATOM     44  C   UNL     1      28.652  34.573   8.284  1.00  0.00    -0.008 C 
ATOM     45  C   UNL     1      29.534  35.746   8.615  1.00  0.00     0.007 C 
ATOM     46  C   UNL     1      27.614  37.224   8.374  1.00  0.00     0.007 C 
ATOM     47  C   UNL     1      27.450  34.971   7.468  1.00  0.00     0.007 C 
ENDBRANCH  36  38
ENDBRANCH  32  33
ENDBRANCH  31  32
ENDBRANCH  28  31
ENDBRANCH   1  27
TORSDOF 15
BEGIN_RES LYS A 135
REMARK  4 active torsions:
REMARK  status: ('A' for Active; 'I' for Inactive)
REMARK    1  A    between atoms: CA   and  CB  
REMARK    2  A    between atoms: CB   and  CG  
REMARK    3  A    between atoms: CG   and  CD  
REMARK    4  A    between atoms: CD   and  CE  
ROOT
ATOM      1  CA  LYS A 135      33.193  34.663   9.290  1.00 25.02     0.186 C 
ENDROOT
BRANCH   1   2
ATOM      2  CB  LYS A 135      32.060  35.360  10.034  1.00 26.63     0.034 C 
BRANCH   2   3
ATOM      3  CG  LYS A 135      32.264  35.416  11.526  1.00 29.45     0.005 C 
BRANCH   3   4
ATOM      4  CD  LYS A 135      32.038  36.828  12.046  1.00 32.00     0.041 C 
BRANCH   4   5
ATOM      5  CE  LYS A 135      31.869  37.799  10.893  1.00 34.25     0.338 C 
ATOM      6  NZ  LYS A 135      31.534  39.164  11.386  1.00 35.99     0.618 N 
ENDBRANCH   4   5
ENDBRANCH   3   4
ENDBRANCH   2   3
ENDBRANCH   1   2
END_RES LYS A 135
BEGIN_RES ARG A 124
REMARK  4 active torsions:
REMARK  status: ('A' for Active; 'I' for Inactive)
REMARK    5  A    between atoms: CA   and  CB  
REMARK    6  A    between atoms: CB   and  CG  
REMARK    7  A    between atoms: CG   and  CD  
REMARK    8  A    between atoms: CD   and  NE  
REMARK       I    between atoms: NE   and  CZ  
ROOT
ATOM      7  CA  ARG A 124      31.045  26.515   9.594  1.00 17.84     0.186 C 
ENDROOT
BRANCH   7   8
ATOM      8  CB  ARG A 124      29.529  26.705   9.647  1.00 16.18     0.036 C 
BRANCH   8   9
ATOM      9  CG  ARG A 124      28.909  26.822  11.085  1.00 16.22     0.029 C 
BRANCH   9  10
ATOM     10  CD  ARG A 124      27.553  26.091  11.216  1.00 15.09     0.145 C 
BRANCH  10  11
ATOM     11  NE  ARG A 124      26.401  26.998  11.407  1.00 16.98    -0.083 NA
ATOM     12  CZ  ARG A 124      25.971  27.444  12.583  1.00 18.21     0.782 C 
ATOM     13  NH1 ARG A 124      26.578  27.103  13.714  1.00 21.11     0.063 N 
ATOM     14  NH2 ARG A 124      24.934  28.264  12.640  1.00 21.25     0.063 N 
ENDBRANCH  10  11
ENDBRANCH   9  10
ENDBRANCH   8   9
ENDBRANCH   7   8
END_RES ARG A 124
BEGIN_RES ASN A 133
REMARK  2 active torsions:
REMARK  status: ('A' for Active; 'I' for Inactive)
REMARK    9  A    between atoms: CA   and  CB  
REMARK   10  A    between atoms: CB   and  CG  
ROOT
ATOM     15  CA  ASN A 133      31.225  30.257  11.749  1.00 18.15     0.196 C 
ENDROOT
BRANCH  15  16
ATOM     16  CB  ASN A 133      30.092  31.240  11.460  1.00 18.27     0.126 C 
BRANCH  16  17
ATOM     17  CG  ASN A 133      28.734  30.614  11.529  1.00 18.94     0.276 C 
ATOM     18  OD1 ASN A 133      28.019  30.749  12.524  1.00 18.09    -0.269 OA
ATOM     19  ND2 ASN A 133      28.360  29.912  10.459  1.00 18.93    -0.107 N 
ENDBRANCH  16  17
ENDBRANCH  15  16
END_RES ASN A 133
BEGIN_RES LYS A 131
REMARK  4 active torsions:
REMARK  status: ('A' for Active; 'I' for Inactive)
REMARK   11  A    between atoms: CA   and  CB  
REMARK   12  A    between atoms: CB   and  CG  
REMARK   13  A    between atoms: CG   and  CD  
REMARK   14  A    between atoms: CD   and  CE  
ROOT
ATOM     20  CA  LYS A 131      29.867  25.555  16.977  1.00 20.52     0.186 C 
ENDROOT
BRANCH  20  21
ATOM     21  CB  LYS A 131      28.345  25.722  17.026  1.00 20.94     0.034 C 
BRANCH  21  22
ATOM     22  CG  LYS A 131      27.600  24.415  16.801  1.00 22.96     0.005 C 
BRANCH  22  23
ATOM     23  CD  LYS A 131      26.769  24.025  17.991  1.00 24.33     0.041 C 
BRANCH  23  24
ATOM     24  CE  LYS A 131      25.570  23.203  17.528  1.00 26.91     0.338 C 
ATOM     25  NZ  LYS A 131      24.473  24.092  17.081  1.00 27.40     0.618 N 
ENDBRANCH  23  24
ENDBRANCH  22  23
ENDBRANCH  21  22
ENDBRANCH  20  21
END_RES LYS A 131
