REMARK VINA RESULT:    -4.154      2.319      3.210
REMARK INTER + INTRA:         -19.443
REMARK INTER:                 -10.689
REMARK INTRA:                  -8.754
REMARK UNBOUND:                -9.705
REMARK SMILES CC(=O)N[C@@H]1[C@@H](O)C[C@](O)(C(=O)O)O[C@H]1C(O)[C@H](O)CNC(=O)OCc1cn(CCCCCCCCCCC(=O)O)nn1
REMARK SMILES IDX 29 1 28 2 26 3 27 4 43 5 42 6 25 7 24 8 22 9 21 10 23 12
REMARK SMILES IDX 20 13 18 14 16 15 15 16 9 17 8 18 14 19 6 20 5 21 10 22
REMARK SMILES IDX 11 24 12 25 13 26 7 28 4 30 2 31 1 33 3 34 17 35 19 37 30 39
REMARK SMILES IDX 31 40 32 41 33 42 34 43 35 44 36 45 37 46 38 47 39 48 40 49
REMARK SMILES IDX 41 50
REMARK H PARENT 21 11 10 23 13 27 7 29 4 32 17 36 19 38 41 51
REMARK Flexibility Score: inf
ROOT
ATOM      1  C   UNL     1      27.290  36.035  12.720  1.00  0.00     0.146 C 
ENDROOT
BRANCH   1   2
ATOM      2  N   UNL     1      28.664  35.610  12.723  1.00  0.00    -0.252 N 
ATOM      3  C   UNL     1      30.877  35.487  12.822  1.00  0.00     0.120 A 
ATOM      4  C   UNL     1      29.787  36.325  12.914  1.00  0.00     0.138 A 
ATOM      5  N   UNL     1      30.333  34.267  12.571  1.00  0.00    -0.132 NA
ATOM      6  N   UNL     1      29.027  34.336  12.512  1.00  0.00    -0.067 NA
BRANCH   3   7
ATOM      7  C   UNL     1      32.311  35.757  12.952  1.00  0.00     0.294 C 
BRANCH   7   8
ATOM      8  O   UNL     1      32.846  35.530  14.224  1.00  0.00    -0.443 OA
BRANCH   8   9
ATOM      9  C   UNL     1      32.199  34.786  15.202  1.00  0.00     0.407 C 
ATOM     10  N   UNL     1      32.111  33.375  15.124  1.00  0.00    -0.319 N 
ATOM     11  H   UNL     1      32.536  32.873  14.322  1.00  0.00     0.167 HD
ATOM     12  O   UNL     1      31.695  35.442  16.167  1.00  0.00    -0.225 OA
BRANCH  10  13
ATOM     13  C   UNL     1      31.438  32.657  16.154  1.00  0.00     0.154 C 
BRANCH  13  14
ATOM     14  C   UNL     1      30.402  31.683  15.649  1.00  0.00     0.165 C 
BRANCH  14  15
ATOM     15  C   UNL     1      29.053  32.320  15.474  1.00  0.00     0.176 C 
BRANCH  15  16
ATOM     16  C   UNL     1      28.141  31.756  16.569  1.00  0.00     0.178 C 
ATOM     17  C   UNL     1      26.322  30.336  16.791  1.00  0.00     0.269 C 
ATOM     18  C   UNL     1      25.376  31.477  17.094  1.00  0.00     0.112 C 
ATOM     19  O   UNL     1      27.332  30.836  15.990  1.00  0.00    -0.332 OA
ATOM     20  C   UNL     1      26.104  32.535  17.841  1.00  0.00     0.145 C 
ATOM     21  C   UNL     1      27.446  32.897  17.247  1.00  0.00     0.142 C 
BRANCH  17  22
ATOM     22  O   UNL     1      25.593  29.435  16.015  1.00  0.00    -0.357 OA
ATOM     23  H   UNL     1      26.227  28.688  15.813  1.00  0.00     0.214 HD
ENDBRANCH  17  22
BRANCH  17  24
ATOM     24  C   UNL     1      26.781  29.655  18.000  1.00  0.00     0.364 C 
ATOM     25  O   UNL     1      26.030  29.569  18.997  1.00  0.00    -0.246 OA
BRANCH  24  26
ATOM     26  O   UNL     1      28.038  29.075  18.120  1.00  0.00    -0.477 OA
ATOM     27  H   UNL     1      28.148  28.355  18.827  1.00  0.00     0.296 HD
ENDBRANCH  24  26
ENDBRANCH  17  24
BRANCH  20  28
ATOM     28  O   UNL     1      25.290  33.680  17.920  1.00  0.00    -0.391 OA
ATOM     29  H   UNL     1      25.695  34.345  18.524  1.00  0.00     0.211 HD
ENDBRANCH  20  28
BRANCH  21  30
ATOM     30  N   UNL     1      28.281  33.537  18.245  1.00  0.00    -0.348 N 
ATOM     31  C   UNL     1      29.038  32.751  19.153  1.00  0.00     0.217 C 
ATOM     32  H   UNL     1      28.340  34.599  18.312  1.00  0.00     0.163 HD
ATOM     33  C   UNL     1      29.882  33.483  20.161  1.00  0.00     0.114 C 
ATOM     34  O   UNL     1      29.008  31.493  19.121  1.00  0.00    -0.275 OA
ENDBRANCH  21  30
ENDBRANCH  15  16
BRANCH  15  35
ATOM     35  O   UNL     1      29.097  33.700  15.528  1.00  0.00    -0.388 OA
ATOM     36  H   UNL     1      29.917  34.082  15.891  1.00  0.00     0.211 HD
ENDBRANCH  15  35
ENDBRANCH  14  15
BRANCH  14  37
ATOM     37  O   UNL     1      30.314  30.672  16.618  1.00  0.00    -0.388 OA
ATOM     38  H   UNL     1      31.081  30.712  17.250  1.00  0.00     0.211 HD
ENDBRANCH  14  37
ENDBRANCH  13  14
ENDBRANCH  10  13
ENDBRANCH   8   9
ENDBRANCH   7   8
ENDBRANCH   3   7
ENDBRANCH   1   2
BRANCH   1  39
ATOM     39  C   UNL     1      26.759  36.294  11.341  1.00  0.00     0.024 C 
BRANCH  39  40
ATOM     40  C   UNL     1      25.979  35.158  10.763  1.00  0.00     0.002 C 
BRANCH  40  41
ATOM     41  C   UNL     1      24.491  35.379  10.782  1.00  0.00     0.000 C 
BRANCH  41  42
ATOM     42  C   UNL     1      23.863  35.365   9.426  1.00  0.00     0.000 C 
BRANCH  42  43
ATOM     43  C   UNL     1      23.315  36.657   8.957  1.00  0.00     0.000 C 
BRANCH  43  44
ATOM     44  C   UNL     1      24.057  37.334   7.879  1.00  0.00     0.000 C 
BRANCH  44  45
ATOM     45  C   UNL     1      25.283  38.089   8.142  1.00  0.00     0.001 C 
BRANCH  45  46
ATOM     46  C   UNL     1      26.645  37.667   7.887  1.00  0.00     0.012 C 
BRANCH  46  47
ATOM     47  C   UNL     1      26.927  36.288   7.386  1.00  0.00     0.122 C 
BRANCH  47  48
ATOM     48  C   UNL     1      27.721  36.321   6.103  1.00  0.00     0.303 C 
ATOM     49  O   UNL     1      28.751  35.654   5.987  1.00  0.00    -0.252 OA
BRANCH  48  50
ATOM     50  O   UNL     1      27.309  37.098   5.040  1.00  0.00    -0.481 OA
ATOM     51  H   UNL     1      28.019  37.642   4.535  1.00  0.00     0.296 HD
ENDBRANCH  48  50
ENDBRANCH  47  48
ENDBRANCH  46  47
ENDBRANCH  45  46
ENDBRANCH  44  45
ENDBRANCH  43  44
ENDBRANCH  42  43
ENDBRANCH  41  42
ENDBRANCH  40  41
ENDBRANCH  39  40
ENDBRANCH   1  39
TORSDOF 26
BEGIN_RES LYS A 135
REMARK  4 active torsions:
REMARK  status: ('A' for Active; 'I' for Inactive)
REMARK    1  A    between atoms: CA   and  CB  
REMARK    2  A    between atoms: CB   and  CG  
REMARK    3  A    between atoms: CG   and  CD  
REMARK    4  A    between atoms: CD   and  CE  
ROOT
ATOM      1  CA  LYS A 135      33.193  34.663   9.290  1.00 25.02     0.186 C 
ENDROOT
BRANCH   1   2
ATOM      2  CB  LYS A 135      32.060  35.360  10.034  1.00 26.63     0.034 C 
BRANCH   2   3
ATOM      3  CG  LYS A 135      30.834  35.587   9.188  1.00 29.45     0.005 C 
BRANCH   3   4
ATOM      4  CD  LYS A 135      30.212  36.941   9.497  1.00 32.00     0.041 C 
BRANCH   4   5
ATOM      5  CE  LYS A 135      30.353  37.875   8.310  1.00 34.25     0.338 C 
ATOM      6  NZ  LYS A 135      30.450  39.293   8.752  1.00 35.99     0.618 N 
ENDBRANCH   4   5
ENDBRANCH   3   4
ENDBRANCH   2   3
ENDBRANCH   1   2
END_RES LYS A 135
BEGIN_RES ARG A 124
REMARK  4 active torsions:
REMARK  status: ('A' for Active; 'I' for Inactive)
REMARK    5  A    between atoms: CA   and  CB  
REMARK    6  A    between atoms: CB   and  CG  
REMARK    7  A    between atoms: CG   and  CD  
REMARK    8  A    between atoms: CD   and  NE  
REMARK       I    between atoms: NE   and  CZ  
ROOT
ATOM      7  CA  ARG A 124      31.045  26.515   9.594  1.00 17.84     0.186 C 
ENDROOT
BRANCH   7   8
ATOM      8  CB  ARG A 124      29.529  26.705   9.647  1.00 16.18     0.036 C 
BRANCH   8   9
ATOM      9  CG  ARG A 124      28.910  26.826  11.085  1.00 16.22     0.029 C 
BRANCH   9  10
ATOM     10  CD  ARG A 124      27.542  26.117  11.211  1.00 15.09     0.145 C 
BRANCH  10  11
ATOM     11  NE  ARG A 124      26.409  27.040  11.445  1.00 16.98    -0.083 NA
ATOM     12  CZ  ARG A 124      26.032  27.493  12.636  1.00 18.21     0.782 C 
ATOM     13  NH1 ARG A 124      26.678  27.145  13.743  1.00 21.11     0.063 N 
ATOM     14  NH2 ARG A 124      25.008  28.327  12.732  1.00 21.25     0.063 N 
ENDBRANCH  10  11
ENDBRANCH   9  10
ENDBRANCH   8   9
ENDBRANCH   7   8
END_RES ARG A 124
BEGIN_RES ASN A 133
REMARK  2 active torsions:
REMARK  status: ('A' for Active; 'I' for Inactive)
REMARK    9  A    between atoms: CA   and  CB  
REMARK   10  A    between atoms: CB   and  CG  
ROOT
ATOM     15  CA  ASN A 133      31.225  30.257  11.749  1.00 18.15     0.196 C 
ENDROOT
BRANCH  15  16
ATOM     16  CB  ASN A 133      30.092  31.240  11.460  1.00 18.27     0.126 C 
BRANCH  16  17
ATOM     17  CG  ASN A 133      28.743  30.591  11.414  1.00 18.94     0.276 C 
ATOM     18  OD1 ASN A 133      28.407  29.885  10.461  1.00 18.09    -0.269 OA
ATOM     19  ND2 ASN A 133      27.946  30.829  12.455  1.00 18.93    -0.107 N 
ENDBRANCH  16  17
ENDBRANCH  15  16
END_RES ASN A 133
BEGIN_RES LYS A 131
REMARK  4 active torsions:
REMARK  status: ('A' for Active; 'I' for Inactive)
REMARK   11  A    between atoms: CA   and  CB  
REMARK   12  A    between atoms: CB   and  CG  
REMARK   13  A    between atoms: CG   and  CD  
REMARK   14  A    between atoms: CD   and  CE  
ROOT
ATOM     20  CA  LYS A 131      29.867  25.555  16.977  1.00 20.52     0.186 C 
ENDROOT
BRANCH  20  21
ATOM     21  CB  LYS A 131      28.345  25.722  17.026  1.00 20.94     0.034 C 
BRANCH  21  22
ATOM     22  CG  LYS A 131      27.600  24.413  16.815  1.00 22.96     0.005 C 
BRANCH  22  23
ATOM     23  CD  LYS A 131      26.769  24.035  18.010  1.00 24.33     0.041 C 
BRANCH  23  24
ATOM     24  CE  LYS A 131      25.648  23.097  17.575  1.00 26.91     0.338 C 
ATOM     25  NZ  LYS A 131      24.337  23.603  18.045  1.00 27.40     0.618 N 
ENDBRANCH  23  24
ENDBRANCH  22  23
ENDBRANCH  21  22
ENDBRANCH  20  21
END_RES LYS A 131
