REMARK VINA RESULT:    -5.847      1.844      2.501
REMARK INTER + INTRA:         -20.816
REMARK INTER:                 -11.702
REMARK INTRA:                  -9.114
REMARK UNBOUND:                -8.816
REMARK SMILES CC(=O)N[C@@H]1[C@@H](O)C[C@](O)(C(=O)O)O[C@H]1C(O)[C@H](O)CNC(=O)OCc1cn(C[C@@H](C(=O)O)C(c2ccccc2)c2ccccc2)nn1
REMARK SMILES IDX 21 1 22 2 23 3 20 5 18 6 16 7 15 8 9 9 8 10 14 11 6 12 5 13
REMARK SMILES IDX 10 14 11 16 12 17 13 18 7 20 4 22 2 23 1 25 3 26 17 27 19 29
REMARK SMILES IDX 24 31 25 32 26 33 27 34 48 35 28 36 47 37 29 38 30 39 31 40
REMARK SMILES IDX 32 41 33 42 34 44 35 45 36 46 40 47 37 48 39 49 38 50 41 51
REMARK SMILES IDX 42 52 46 53 43 54 45 55 44 56
REMARK H PARENT 21 4 10 15 13 19 7 21 4 24 17 28 19 30 33 43
REMARK Flexibility Score: inf
ROOT
ATOM      1  N   UNL     1      26.473  31.446  15.095  1.00  0.00    -0.319 N 
ATOM      2  C   UNL     1      25.140  31.655  14.712  1.00  0.00     0.407 C 
ATOM      3  O   UNL     1      24.246  30.944  15.234  1.00  0.00    -0.225 OA
ATOM      4  H   UNL     1      27.245  32.002  14.697  1.00  0.00     0.167 HD
ENDROOT
BRANCH   1   5
ATOM      5  C   UNL     1      26.822  30.411  16.090  1.00  0.00     0.154 C 
BRANCH   5   6
ATOM      6  C   UNL     1      27.757  31.035  17.084  1.00  0.00     0.165 C 
BRANCH   6   7
ATOM      7  C   UNL     1      29.165  31.234  16.646  1.00  0.00     0.176 C 
BRANCH   7   8
ATOM      8  C   UNL     1      29.508  32.647  16.204  1.00  0.00     0.178 C 
ATOM      9  C   UNL     1      29.781  33.743  14.154  1.00  0.00     0.269 C 
ATOM     10  C   UNL     1      31.075  34.361  14.666  1.00  0.00     0.112 C 
ATOM     11  O   UNL     1      29.548  32.545  14.794  1.00  0.00    -0.332 OA
ATOM     12  C   UNL     1      31.796  33.358  15.555  1.00  0.00     0.145 C 
ATOM     13  C   UNL     1      30.830  33.074  16.738  1.00  0.00     0.142 C 
BRANCH   9  14
ATOM     14  O   UNL     1      30.016  33.389  12.797  1.00  0.00    -0.357 OA
ATOM     15  H   UNL     1      29.217  32.894  12.513  1.00  0.00     0.214 HD
ENDBRANCH   9  14
BRANCH   9  16
ATOM     16  C   UNL     1      28.653  34.686  14.164  1.00  0.00     0.364 C 
ATOM     17  O   UNL     1      28.829  35.877  14.491  1.00  0.00    -0.246 OA
BRANCH  16  18
ATOM     18  O   UNL     1      27.391  34.258  13.814  1.00  0.00    -0.477 OA
ATOM     19  H   UNL     1      27.001  33.357  14.075  1.00  0.00     0.296 HD
ENDBRANCH  16  18
ENDBRANCH   9  16
BRANCH  12  20
ATOM     20  O   UNL     1      32.011  32.162  14.925  1.00  0.00    -0.391 OA
ATOM     21  H   UNL     1      32.937  32.057  14.563  1.00  0.00     0.211 HD
ENDBRANCH  12  20
BRANCH  13  22
ATOM     22  N   UNL     1      30.784  34.265  17.572  1.00  0.00    -0.348 N 
ATOM     23  C   UNL     1      31.012  34.152  18.957  1.00  0.00     0.217 C 
ATOM     24  H   UNL     1      30.586  35.208  17.172  1.00  0.00     0.163 HD
ATOM     25  C   UNL     1      30.950  35.408  19.787  1.00  0.00     0.114 C 
ATOM     26  O   UNL     1      31.265  33.084  19.561  1.00  0.00    -0.275 OA
ENDBRANCH  13  22
ENDBRANCH   7   8
BRANCH   7  27
ATOM     27  O   UNL     1      29.343  30.442  15.435  1.00  0.00    -0.388 OA
ATOM     28  H   UNL     1      29.752  29.613  15.802  1.00  0.00     0.211 HD
ENDBRANCH   7  27
ENDBRANCH   6   7
BRANCH   6  29
ATOM     29  O   UNL     1      27.590  30.537  18.359  1.00  0.00    -0.388 OA
ATOM     30  H   UNL     1      28.383  30.033  18.687  1.00  0.00     0.211 HD
ENDBRANCH   6  29
ENDBRANCH   5   6
ENDBRANCH   1   5
BRANCH   2  31
ATOM     31  O   UNL     1      24.744  32.608  13.782  1.00  0.00    -0.443 OA
BRANCH  31  32
ATOM     32  C   UNL     1      23.866  33.644  14.188  1.00  0.00     0.294 C 
BRANCH  32  33
ATOM     33  C   UNL     1      24.367  34.946  13.675  1.00  0.00     0.120 A 
ATOM     34  C   UNL     1      24.210  35.534  12.441  1.00  0.00     0.138 A 
ATOM     35  N   UNL     1      25.105  35.819  14.378  1.00  0.00    -0.132 NA
ATOM     36  N   UNL     1      24.835  36.723  12.406  1.00  0.00    -0.251 N 
ATOM     37  N   UNL     1      25.378  36.870  13.618  1.00  0.00    -0.067 NA
BRANCH  36  38
ATOM     38  C   UNL     1      24.927  37.690  11.299  1.00  0.00     0.162 C 
BRANCH  38  39
ATOM     39  C   UNL     1      26.066  37.264  10.419  1.00  0.00     0.132 C 
BRANCH  39  40
ATOM     40  C   UNL     1      27.214  36.717  11.208  1.00  0.00     0.309 C 
ATOM     41  O   UNL     1      27.513  35.476  11.129  1.00  0.00    -0.252 OA
BRANCH  40  42
ATOM     42  O   UNL     1      28.010  37.465  12.047  1.00  0.00    -0.481 OA
ATOM     43  H   UNL     1      27.861  38.473  12.189  1.00  0.00     0.296 HD
ENDBRANCH  40  42
ENDBRANCH  39  40
BRANCH  39  44
ATOM     44  C   UNL     1      25.714  36.398   9.264  1.00  0.00     0.065 C 
BRANCH  44  45
ATOM     45  C   UNL     1      26.657  36.465   8.126  1.00  0.00    -0.040 A 
ATOM     46  C   UNL     1      26.950  37.647   7.533  1.00  0.00     0.004 A 
ATOM     47  C   UNL     1      27.240  35.304   7.649  1.00  0.00     0.004 A 
ATOM     48  C   UNL     1      27.837  37.670   6.449  1.00  0.00     0.000 A 
ATOM     49  C   UNL     1      28.116  35.305   6.585  1.00  0.00     0.000 A 
ATOM     50  C   UNL     1      28.411  36.509   5.984  1.00  0.00     0.000 A 
ENDBRANCH  44  45
BRANCH  44  51
ATOM     51  C   UNL     1      24.306  36.503   8.808  1.00  0.00    -0.040 A 
ATOM     52  C   UNL     1      23.801  37.585   8.127  1.00  0.00     0.004 A 
ATOM     53  C   UNL     1      23.388  35.484   9.058  1.00  0.00     0.004 A 
ATOM     54  C   UNL     1      22.486  37.654   7.723  1.00  0.00     0.000 A 
ATOM     55  C   UNL     1      22.073  35.537   8.662  1.00  0.00     0.000 A 
ATOM     56  C   UNL     1      21.609  36.640   7.983  1.00  0.00     0.000 A 
ENDBRANCH  44  51
ENDBRANCH  39  44
ENDBRANCH  38  39
ENDBRANCH  36  38
ENDBRANCH  32  33
ENDBRANCH  31  32
ENDBRANCH   2  31
TORSDOF 21
BEGIN_RES LYS A 135
REMARK  4 active torsions:
REMARK  status: ('A' for Active; 'I' for Inactive)
REMARK    1  A    between atoms: CA   and  CB  
REMARK    2  A    between atoms: CB   and  CG  
REMARK    3  A    between atoms: CG   and  CD  
REMARK    4  A    between atoms: CD   and  CE  
ROOT
ATOM      1  CA  LYS A 135      33.193  34.663   9.290  1.00 25.02     0.186 C 
ENDROOT
BRANCH   1   2
ATOM      2  CB  LYS A 135      32.060  35.360  10.034  1.00 26.63     0.034 C 
BRANCH   2   3
ATOM      3  CG  LYS A 135      30.790  35.472   9.230  1.00 29.45     0.005 C 
BRANCH   3   4
ATOM      4  CD  LYS A 135      30.312  36.915   9.180  1.00 32.00     0.041 C 
BRANCH   4   5
ATOM      5  CE  LYS A 135      31.171  37.792  10.071  1.00 34.25     0.338 C 
ATOM      6  NZ  LYS A 135      31.786  38.905   9.296  1.00 35.99     0.618 N 
ENDBRANCH   4   5
ENDBRANCH   3   4
ENDBRANCH   2   3
ENDBRANCH   1   2
END_RES LYS A 135
BEGIN_RES ARG A 124
REMARK  4 active torsions:
REMARK  status: ('A' for Active; 'I' for Inactive)
REMARK    5  A    between atoms: CA   and  CB  
REMARK    6  A    between atoms: CB   and  CG  
REMARK    7  A    between atoms: CG   and  CD  
REMARK    8  A    between atoms: CD   and  NE  
REMARK       I    between atoms: NE   and  CZ  
ROOT
ATOM      7  CA  ARG A 124      31.045  26.515   9.594  1.00 17.84     0.186 C 
ENDROOT
BRANCH   7   8
ATOM      8  CB  ARG A 124      29.529  26.705   9.647  1.00 16.18     0.036 C 
BRANCH   8   9
ATOM      9  CG  ARG A 124      28.909  26.816  11.086  1.00 16.22     0.029 C 
BRANCH   9  10
ATOM     10  CD  ARG A 124      27.503  26.179  11.184  1.00 15.09     0.145 C 
BRANCH  10  11
ATOM     11  NE  ARG A 124      26.437  27.137  11.549  1.00 16.98    -0.083 NA
ATOM     12  CZ  ARG A 124      26.220  27.603  12.774  1.00 18.21     0.782 C 
ATOM     13  NH1 ARG A 124      26.984  27.237  13.796  1.00 21.11     0.063 N 
ATOM     14  NH2 ARG A 124      25.242  28.468  12.989  1.00 21.25     0.063 N 
ENDBRANCH  10  11
ENDBRANCH   9  10
ENDBRANCH   8   9
ENDBRANCH   7   8
END_RES ARG A 124
BEGIN_RES ASN A 133
REMARK  2 active torsions:
REMARK  status: ('A' for Active; 'I' for Inactive)
REMARK    9  A    between atoms: CA   and  CB  
REMARK   10  A    between atoms: CB   and  CG  
ROOT
ATOM     15  CA  ASN A 133      31.225  30.257  11.749  1.00 18.15     0.196 C 
ENDROOT
BRANCH  15  16
ATOM     16  CB  ASN A 133      30.092  31.240  11.460  1.00 18.27     0.126 C 
BRANCH  16  17
ATOM     17  CG  ASN A 133      28.755  30.579  11.329  1.00 18.94     0.276 C 
ATOM     18  OD1 ASN A 133      28.527  29.773  10.425  1.00 18.09    -0.269 OA
ATOM     19  ND2 ASN A 133      27.844  30.920  12.240  1.00 18.93    -0.107 N 
ENDBRANCH  16  17
ENDBRANCH  15  16
END_RES ASN A 133
BEGIN_RES LYS A 131
REMARK  4 active torsions:
REMARK  status: ('A' for Active; 'I' for Inactive)
REMARK   11  A    between atoms: CA   and  CB  
REMARK   12  A    between atoms: CB   and  CG  
REMARK   13  A    between atoms: CG   and  CD  
REMARK   14  A    between atoms: CD   and  CE  
ROOT
ATOM     20  CA  LYS A 131      29.867  25.555  16.977  1.00 20.52     0.186 C 
ENDROOT
BRANCH  20  21
ATOM     21  CB  LYS A 131      28.345  25.722  17.026  1.00 20.94     0.034 C 
BRANCH  21  22
ATOM     22  CG  LYS A 131      27.599  24.421  16.769  1.00 22.96     0.005 C 
BRANCH  22  23
ATOM     23  CD  LYS A 131      26.883  23.927  17.995  1.00 24.33     0.041 C 
BRANCH  23  24
ATOM     24  CE  LYS A 131      25.664  24.804  18.261  1.00 26.91     0.338 C 
ATOM     25  NZ  LYS A 131      25.488  25.021  19.717  1.00 27.40     0.618 N 
ENDBRANCH  23  24
ENDBRANCH  22  23
ENDBRANCH  21  22
ENDBRANCH  20  21
END_RES LYS A 131
