REMARK VINA RESULT:    -4.288      2.841      6.501
REMARK INTER + INTRA:         -18.897
REMARK INTER:                  -9.004
REMARK INTRA:                  -9.893
REMARK UNBOUND:               -10.472
REMARK SMILES CC(=O)N[C@@H]1[C@@H](O)C[C@](O)(C(=O)O)O[C@H]1C(O)[C@H](O)CNC(=O)OCc1cn(CCNC(=O)NCc2ccco2)nn1
REMARK SMILES IDX 24 1 22 2 21 3 23 5 20 6 18 7 16 8 15 9 9 10 8 11 14 12 6 13
REMARK SMILES IDX 5 14 10 15 11 17 12 18 13 19 7 21 4 23 2 24 1 26 3 27 17 28
REMARK SMILES IDX 19 30 25 32 26 33 27 34 42 35 28 36 41 37 29 38 30 39 31 40
REMARK SMILES IDX 32 41 33 43 34 44 35 46 36 47 37 48 40 49 38 50 39 51
REMARK H PARENT 21 4 10 16 13 20 7 22 4 25 17 29 19 31 31 42 34 45
REMARK Flexibility Score: inf
ROOT
ATOM      1  O   UNL     1      28.763  30.512  19.943  1.00  0.00    -0.443 OA
ENDROOT
BRANCH   1   2
ATOM      2  C   UNL     1      28.842  30.755  18.560  1.00  0.00     0.407 C 
ATOM      3  N   UNL     1      30.082  30.820  17.889  1.00  0.00    -0.319 N 
ATOM      4  H   UNL     1      30.926  30.660  18.531  1.00  0.00     0.167 HD
ATOM      5  O   UNL     1      27.783  30.916  17.930  1.00  0.00    -0.225 OA
BRANCH   3   6
ATOM      6  C   UNL     1      30.295  31.070  16.489  1.00  0.00     0.154 C 
BRANCH   6   7
ATOM      7  C   UNL     1      31.034  32.340  16.168  1.00  0.00     0.165 C 
BRANCH   7   8
ATOM      8  C   UNL     1      30.031  33.462  16.278  1.00  0.00     0.176 C 
BRANCH   8   9
ATOM      9  C   UNL     1      30.308  34.600  15.344  1.00  0.00     0.178 C 
ATOM     10  C   UNL     1      31.971  36.021  14.593  1.00  0.00     0.269 C 
ATOM     11  C   UNL     1      30.791  36.567  13.776  1.00  0.00     0.112 C 
ATOM     12  O   UNL     1      31.486  35.259  15.653  1.00  0.00    -0.332 OA
ATOM     13  C   UNL     1      29.701  36.862  14.767  1.00  0.00     0.145 C 
ATOM     14  C   UNL     1      29.134  35.571  15.255  1.00  0.00     0.142 C 
BRANCH  10  15
ATOM     15  O   UNL     1      32.576  37.141  15.160  1.00  0.00    -0.357 OA
ATOM     16  H   UNL     1      32.415  37.962  14.659  1.00  0.00     0.214 HD
ENDBRANCH  10  15
BRANCH  10  17
ATOM     17  C   UNL     1      32.922  35.297  13.751  1.00  0.00     0.364 C 
ATOM     18  O   UNL     1      33.045  35.482  12.518  1.00  0.00    -0.246 OA
BRANCH  17  19
ATOM     19  O   UNL     1      33.750  34.344  14.325  1.00  0.00    -0.477 OA
ATOM     20  H   UNL     1      34.494  34.552  14.974  1.00  0.00     0.296 HD
ENDBRANCH  17  19
ENDBRANCH  10  17
BRANCH  13  21
ATOM     21  O   UNL     1      30.326  37.470  15.875  1.00  0.00    -0.391 OA
ATOM     22  H   UNL     1      30.095  36.978  16.694  1.00  0.00     0.211 HD
ENDBRANCH  13  21
BRANCH  14  23
ATOM     23  N   UNL     1      28.128  34.972  14.471  1.00  0.00    -0.348 N 
ATOM     24  C   UNL     1      26.739  35.252  14.550  1.00  0.00     0.217 C 
ATOM     25  H   UNL     1      28.410  34.249  13.757  1.00  0.00     0.163 HD
ATOM     26  C   UNL     1      25.737  34.585  13.697  1.00  0.00     0.114 C 
ATOM     27  O   UNL     1      26.427  36.126  15.418  1.00  0.00    -0.275 OA
ENDBRANCH  14  23
ENDBRANCH   8   9
BRANCH   8  28
ATOM     28  O   UNL     1      28.779  32.945  15.949  1.00  0.00    -0.388 OA
ATOM     29  H   UNL     1      28.856  32.050  15.492  1.00  0.00     0.211 HD
ENDBRANCH   8  28
ENDBRANCH   7   8
BRANCH   7  30
ATOM     30  O   UNL     1      31.634  32.260  14.951  1.00  0.00    -0.388 OA
ATOM     31  H   UNL     1      32.522  31.790  15.039  1.00  0.00     0.211 HD
ENDBRANCH   7  30
ENDBRANCH   6   7
ENDBRANCH   3   6
ENDBRANCH   1   2
BRANCH   1  32
ATOM     32  C   UNL     1      28.731  31.624  20.814  1.00  0.00     0.294 C 
BRANCH  32  33
ATOM     33  C   UNL     1      29.822  32.553  20.434  1.00  0.00     0.120 A 
ATOM     34  C   UNL     1      29.678  33.799  19.875  1.00  0.00     0.138 A 
ATOM     35  N   UNL     1      31.144  32.364  20.557  1.00  0.00    -0.132 NA
ATOM     36  N   UNL     1      30.906  34.344  19.668  1.00  0.00    -0.250 N 
ATOM     37  N   UNL     1      31.765  33.434  20.098  1.00  0.00    -0.067 NA
BRANCH  36  38
ATOM     38  C   UNL     1      31.221  35.644  19.098  1.00  0.00     0.167 C 
BRANCH  38  39
ATOM     39  C   UNL     1      32.696  35.932  19.257  1.00  0.00     0.141 C 
BRANCH  39  40
ATOM     40  N   UNL     1      33.309  35.929  17.946  1.00  0.00    -0.336 N 
ATOM     41  C   UNL     1      34.711  36.054  17.863  1.00  0.00     0.315 C 
ATOM     42  H   UNL     1      32.739  35.838  17.082  1.00  0.00     0.165 HD
ATOM     43  O   UNL     1      35.476  36.169  18.855  1.00  0.00    -0.249 OA
ATOM     44  N   UNL     1      35.321  36.050  16.575  1.00  0.00    -0.331 N 
ATOM     45  H   UNL     1      34.702  35.956  15.744  1.00  0.00     0.165 HD
BRANCH  44  46
ATOM     46  C   UNL     1      36.732  36.171  16.392  1.00  0.00     0.193 C 
BRANCH  46  47
ATOM     47  C   UNL     1      37.249  35.254  15.325  1.00  0.00     0.122 A 
ATOM     48  C   UNL     1      38.572  35.193  14.985  1.00  0.00     0.047 A 
ATOM     49  O   UNL     1      36.596  34.406  14.578  1.00  0.00    -0.467 OA
ATOM     50  C   UNL     1      38.674  34.257  13.985  1.00  0.00     0.042 A 
ATOM     51  C   UNL     1      37.409  33.801  13.773  1.00  0.00     0.195 A 
ENDBRANCH  46  47
ENDBRANCH  44  46
ENDBRANCH  39  40
ENDBRANCH  38  39
ENDBRANCH  36  38
ENDBRANCH  32  33
ENDBRANCH   1  32
TORSDOF 19
BEGIN_RES LYS A 135
REMARK  4 active torsions:
REMARK  status: ('A' for Active; 'I' for Inactive)
REMARK    1  A    between atoms: CA   and  CB  
REMARK    2  A    between atoms: CB   and  CG  
REMARK    3  A    between atoms: CG   and  CD  
REMARK    4  A    between atoms: CD   and  CE  
ROOT
ATOM      1  CA  LYS A 135      33.193  34.663   9.290  1.00 25.02     0.186 C 
ENDROOT
BRANCH   1   2
ATOM      2  CB  LYS A 135      32.060  35.360  10.034  1.00 26.63     0.034 C 
BRANCH   2   3
ATOM      3  CG  LYS A 135      30.902  35.741   9.148  1.00 29.45     0.005 C 
BRANCH   3   4
ATOM      4  CD  LYS A 135      30.334  34.515   8.450  1.00 32.00     0.041 C 
BRANCH   4   5
ATOM      5  CE  LYS A 135      28.818  34.551   8.460  1.00 34.25     0.338 C 
ATOM      6  NZ  LYS A 135      28.272  33.799   9.625  1.00 35.99     0.618 N 
ENDBRANCH   4   5
ENDBRANCH   3   4
ENDBRANCH   2   3
ENDBRANCH   1   2
END_RES LYS A 135
BEGIN_RES ARG A 124
REMARK  4 active torsions:
REMARK  status: ('A' for Active; 'I' for Inactive)
REMARK    5  A    between atoms: CA   and  CB  
REMARK    6  A    between atoms: CB   and  CG  
REMARK    7  A    between atoms: CG   and  CD  
REMARK    8  A    between atoms: CD   and  NE  
REMARK       I    between atoms: NE   and  CZ  
ROOT
ATOM      7  CA  ARG A 124      31.045  26.515   9.594  1.00 17.84     0.186 C 
ENDROOT
BRANCH   7   8
ATOM      8  CB  ARG A 124      29.529  26.705   9.647  1.00 16.18     0.036 C 
BRANCH   8   9
ATOM      9  CG  ARG A 124      28.967  27.308  10.984  1.00 16.22     0.029 C 
BRANCH   9  10
ATOM     10  CD  ARG A 124      28.173  26.278  11.819  1.00 15.09     0.145 C 
BRANCH  10  11
ATOM     11  NE  ARG A 124      27.799  26.762  13.167  1.00 16.98    -0.083 NA
ATOM     12  CZ  ARG A 124      26.620  27.283  13.488  1.00 18.21     0.782 C 
ATOM     13  NH1 ARG A 124      25.650  27.400  12.589  1.00 21.11     0.063 N 
ATOM     14  NH2 ARG A 124      26.387  27.675  14.731  1.00 21.25     0.063 N 
ENDBRANCH  10  11
ENDBRANCH   9  10
ENDBRANCH   8   9
ENDBRANCH   7   8
END_RES ARG A 124
BEGIN_RES ASN A 133
REMARK  2 active torsions:
REMARK  status: ('A' for Active; 'I' for Inactive)
REMARK    9  A    between atoms: CA   and  CB  
REMARK   10  A    between atoms: CB   and  CG  
ROOT
ATOM     15  CA  ASN A 133      31.225  30.257  11.749  1.00 18.15     0.196 C 
ENDROOT
BRANCH  15  16
ATOM     16  CB  ASN A 133      30.092  31.240  11.460  1.00 18.27     0.126 C 
BRANCH  16  17
ATOM     17  CG  ASN A 133      28.981  31.174  12.462  1.00 18.94     0.276 C 
ATOM     18  OD1 ASN A 133      28.949  31.935  13.431  1.00 18.09    -0.269 OA
ATOM     19  ND2 ASN A 133      28.048  30.249  12.238  1.00 18.93    -0.107 N 
ENDBRANCH  16  17
ENDBRANCH  15  16
END_RES ASN A 133
BEGIN_RES LYS A 131
REMARK  4 active torsions:
REMARK  status: ('A' for Active; 'I' for Inactive)
REMARK   11  A    between atoms: CA   and  CB  
REMARK   12  A    between atoms: CB   and  CG  
REMARK   13  A    between atoms: CG   and  CD  
REMARK   14  A    between atoms: CD   and  CE  
ROOT
ATOM     20  CA  LYS A 131      29.867  25.555  16.977  1.00 20.52     0.186 C 
ENDROOT
BRANCH  20  21
ATOM     21  CB  LYS A 131      28.345  25.722  17.026  1.00 20.94     0.034 C 
BRANCH  21  22
ATOM     22  CG  LYS A 131      27.600  24.411  16.826  1.00 22.96     0.005 C 
BRANCH  22  23
ATOM     23  CD  LYS A 131      26.776  24.039  18.027  1.00 24.33     0.041 C 
BRANCH  23  24
ATOM     24  CE  LYS A 131      25.382  23.614  17.576  1.00 26.91     0.338 C 
ATOM     25  NZ  LYS A 131      24.381  23.922  18.625  1.00 27.40     0.618 N 
ENDBRANCH  23  24
ENDBRANCH  22  23
ENDBRANCH  21  22
ENDBRANCH  20  21
END_RES LYS A 131
