REMARK VINA RESULT:    -4.130      3.756      8.664
REMARK INTER + INTRA:         -19.387
REMARK INTER:                  -9.653
REMARK INTRA:                  -9.734
REMARK UNBOUND:                -9.705
REMARK SMILES CC(=O)N[C@@H]1[C@@H](O)C[C@](O)(C(=O)O)O[C@H]1C(O)[C@H](O)CNC(=O)OCc1cn(CCCCCCCCCCC(=O)O)nn1
REMARK SMILES IDX 29 1 28 2 26 3 27 4 43 5 42 6 25 7 24 8 22 9 21 10 23 12
REMARK SMILES IDX 20 13 18 14 16 15 15 16 9 17 8 18 14 19 6 20 5 21 10 22
REMARK SMILES IDX 11 24 12 25 13 26 7 28 4 30 2 31 1 33 3 34 17 35 19 37 30 39
REMARK SMILES IDX 31 40 32 41 33 42 34 43 35 44 36 45 37 46 38 47 39 48 40 49
REMARK SMILES IDX 41 50
REMARK H PARENT 21 11 10 23 13 27 7 29 4 32 17 36 19 38 41 51
REMARK Flexibility Score: inf
ROOT
ATOM      1  C   UNL     1      24.819  35.113  12.704  1.00  0.00     0.146 C 
ENDROOT
BRANCH   1   2
ATOM      2  N   UNL     1      24.357  35.295  11.354  1.00  0.00    -0.252 N 
ATOM      3  C   UNL     1      23.157  35.618   9.516  1.00  0.00     0.120 A 
ATOM      4  C   UNL     1      23.114  35.511  10.890  1.00  0.00     0.138 A 
ATOM      5  N   UNL     1      24.471  35.455   9.215  1.00  0.00    -0.132 NA
ATOM      6  N   UNL     1      25.184  35.263  10.297  1.00  0.00    -0.067 NA
BRANCH   3   7
ATOM      7  C   UNL     1      22.093  35.854   8.537  1.00  0.00     0.294 C 
BRANCH   7   8
ATOM      8  O   UNL     1      22.395  36.793   7.545  1.00  0.00    -0.443 OA
BRANCH   8   9
ATOM      9  C   UNL     1      23.176  37.918   7.773  1.00  0.00     0.407 C 
ATOM     10  N   UNL     1      24.536  37.970   7.384  1.00  0.00    -0.319 N 
ATOM     11  H   UNL     1      24.973  37.153   6.917  1.00  0.00     0.167 HD
ATOM     12  O   UNL     1      22.600  38.896   8.347  1.00  0.00    -0.225 OA
BRANCH  10  13
ATOM     13  C   UNL     1      25.294  39.148   7.639  1.00  0.00     0.154 C 
BRANCH  13  14
ATOM     14  C   UNL     1      26.740  39.054   7.216  1.00  0.00     0.165 C 
BRANCH  14  15
ATOM     15  C   UNL     1      27.520  38.083   8.057  1.00  0.00     0.176 C 
BRANCH  15  16
ATOM     16  C   UNL     1      28.710  38.850   8.647  1.00  0.00     0.178 C 
ATOM     17  C   UNL     1      30.998  39.060   8.344  1.00  0.00     0.269 C 
ATOM     18  C   UNL     1      31.310  38.314   9.621  1.00  0.00     0.112 C 
ATOM     19  O   UNL     1      29.788  38.587   7.869  1.00  0.00    -0.332 OA
ATOM     20  C   UNL     1      30.254  38.599  10.627  1.00  0.00     0.145 C 
ATOM     21  C   UNL     1      28.845  38.484  10.093  1.00  0.00     0.142 C 
BRANCH  17  22
ATOM     22  O   UNL     1      31.975  38.669   7.428  1.00  0.00    -0.357 OA
ATOM     23  H   UNL     1      31.969  39.372   6.717  1.00  0.00     0.214 HD
ENDBRANCH  17  22
BRANCH  17  24
ATOM     24  C   UNL     1      31.063  40.510   8.513  1.00  0.00     0.364 C 
ATOM     25  O   UNL     1      31.993  41.024   9.173  1.00  0.00    -0.246 OA
BRANCH  24  26
ATOM     26  O   UNL     1      30.131  41.385   7.971  1.00  0.00    -0.477 OA
ATOM     27  H   UNL     1      30.317  42.378   8.073  1.00  0.00     0.296 HD
ENDBRANCH  24  26
ENDBRANCH  17  24
BRANCH  20  28
ATOM     28  O   UNL     1      30.422  37.732  11.724  1.00  0.00    -0.391 OA
ATOM     29  H   UNL     1      29.660  37.815  12.343  1.00  0.00     0.211 HD
ENDBRANCH  20  28
BRANCH  21  30
ATOM     30  N   UNL     1      27.926  39.222  10.937  1.00  0.00    -0.348 N 
ATOM     31  C   UNL     1      27.235  38.563  11.988  1.00  0.00     0.217 C 
ATOM     32  H   UNL     1      27.755  40.262  10.784  1.00  0.00     0.163 HD
ATOM     33  C   UNL     1      26.297  39.391  12.823  1.00  0.00     0.114 C 
ATOM     34  O   UNL     1      27.398  37.336  12.216  1.00  0.00    -0.275 OA
ENDBRANCH  21  30
ENDBRANCH  15  16
BRANCH  15  35
ATOM     35  O   UNL     1      26.762  37.502   9.055  1.00  0.00    -0.388 OA
ATOM     36  H   UNL     1      26.701  38.007   9.887  1.00  0.00     0.211 HD
ENDBRANCH  15  35
ENDBRANCH  14  15
BRANCH  14  37
ATOM     37  O   UNL     1      27.276  40.340   7.377  1.00  0.00    -0.388 OA
ATOM     38  H   UNL     1      26.611  40.960   7.779  1.00  0.00     0.211 HD
ENDBRANCH  14  37
ENDBRANCH  13  14
ENDBRANCH  10  13
ENDBRANCH   8   9
ENDBRANCH   7   8
ENDBRANCH   3   7
ENDBRANCH   1   2
BRANCH   1  39
ATOM     39  C   UNL     1      25.981  34.169  12.804  1.00  0.00     0.024 C 
BRANCH  39  40
ATOM     40  C   UNL     1      26.101  33.485  14.127  1.00  0.00     0.002 C 
BRANCH  40  41
ATOM     41  C   UNL     1      27.509  33.443  14.657  1.00  0.00     0.000 C 
BRANCH  41  42
ATOM     42  C   UNL     1      28.496  34.167  13.799  1.00  0.00     0.000 C 
BRANCH  42  43
ATOM     43  C   UNL     1      29.817  33.516  13.651  1.00  0.00     0.000 C 
BRANCH  43  44
ATOM     44  C   UNL     1      30.324  32.782  14.824  1.00  0.00     0.000 C 
BRANCH  44  45
ATOM     45  C   UNL     1      31.656  33.035  15.376  1.00  0.00     0.001 C 
BRANCH  45  46
ATOM     46  C   UNL     1      32.265  34.320  15.648  1.00  0.00     0.012 C 
BRANCH  46  47
ATOM     47  C   UNL     1      33.234  34.915  14.680  1.00  0.00     0.122 C 
BRANCH  47  48
ATOM     48  C   UNL     1      32.561  35.915  13.771  1.00  0.00     0.303 C 
ATOM     49  O   UNL     1      32.632  35.796  12.547  1.00  0.00    -0.252 OA
BRANCH  48  50
ATOM     50  O   UNL     1      31.857  36.980  14.295  1.00  0.00    -0.481 OA
ATOM     51  H   UNL     1      31.539  37.714  13.651  1.00  0.00     0.296 HD
ENDBRANCH  48  50
ENDBRANCH  47  48
ENDBRANCH  46  47
ENDBRANCH  45  46
ENDBRANCH  44  45
ENDBRANCH  43  44
ENDBRANCH  42  43
ENDBRANCH  41  42
ENDBRANCH  40  41
ENDBRANCH  39  40
ENDBRANCH   1  39
TORSDOF 26
BEGIN_RES LYS A 135
REMARK  4 active torsions:
REMARK  status: ('A' for Active; 'I' for Inactive)
REMARK    1  A    between atoms: CA   and  CB  
REMARK    2  A    between atoms: CB   and  CG  
REMARK    3  A    between atoms: CG   and  CD  
REMARK    4  A    between atoms: CD   and  CE  
ROOT
ATOM      1  CA  LYS A 135      33.193  34.663   9.290  1.00 25.02     0.186 C 
ENDROOT
BRANCH   1   2
ATOM      2  CB  LYS A 135      32.060  35.360  10.034  1.00 26.63     0.034 C 
BRANCH   2   3
ATOM      3  CG  LYS A 135      30.703  34.764   9.760  1.00 29.45     0.005 C 
BRANCH   3   4
ATOM      4  CD  LYS A 135      30.507  34.538   8.269  1.00 32.00     0.041 C 
BRANCH   4   5
ATOM      5  CE  LYS A 135      29.083  34.866   7.864  1.00 34.25     0.338 C 
ATOM      6  NZ  LYS A 135      29.032  35.418   6.482  1.00 35.99     0.618 N 
ENDBRANCH   4   5
ENDBRANCH   3   4
ENDBRANCH   2   3
ENDBRANCH   1   2
END_RES LYS A 135
BEGIN_RES ARG A 124
REMARK  4 active torsions:
REMARK  status: ('A' for Active; 'I' for Inactive)
REMARK    5  A    between atoms: CA   and  CB  
REMARK    6  A    between atoms: CB   and  CG  
REMARK    7  A    between atoms: CG   and  CD  
REMARK    8  A    between atoms: CD   and  NE  
REMARK       I    between atoms: NE   and  CZ  
ROOT
ATOM      7  CA  ARG A 124      31.045  26.515   9.594  1.00 17.84     0.186 C 
ENDROOT
BRANCH   7   8
ATOM      8  CB  ARG A 124      29.529  26.705   9.647  1.00 16.18     0.036 C 
BRANCH   8   9
ATOM      9  CG  ARG A 124      28.921  26.920  11.079  1.00 16.22     0.029 C 
BRANCH   9  10
ATOM     10  CD  ARG A 124      27.587  26.168  11.284  1.00 15.09     0.145 C 
BRANCH  10  11
ATOM     11  NE  ARG A 124      26.417  27.059  11.449  1.00 16.98    -0.083 NA
ATOM     12  CZ  ARG A 124      25.934  27.471  12.616  1.00 18.21     0.782 C 
ATOM     13  NH1 ARG A 124      26.497  27.109  13.762  1.00 21.11     0.063 N 
ATOM     14  NH2 ARG A 124      24.886  28.279  12.649  1.00 21.25     0.063 N 
ENDBRANCH  10  11
ENDBRANCH   9  10
ENDBRANCH   8   9
ENDBRANCH   7   8
END_RES ARG A 124
BEGIN_RES ASN A 133
REMARK  2 active torsions:
REMARK  status: ('A' for Active; 'I' for Inactive)
REMARK    9  A    between atoms: CA   and  CB  
REMARK   10  A    between atoms: CB   and  CG  
ROOT
ATOM     15  CA  ASN A 133      31.225  30.257  11.749  1.00 18.15     0.196 C 
ENDROOT
BRANCH  15  16
ATOM     16  CB  ASN A 133      30.092  31.240  11.460  1.00 18.27     0.126 C 
BRANCH  16  17
ATOM     17  CG  ASN A 133      28.733  30.616  11.536  1.00 18.94     0.276 C 
ATOM     18  OD1 ASN A 133      28.016  30.766  12.526  1.00 18.09    -0.269 OA
ATOM     19  ND2 ASN A 133      28.362  29.897  10.477  1.00 18.93    -0.107 N 
ENDBRANCH  16  17
ENDBRANCH  15  16
END_RES ASN A 133
BEGIN_RES LYS A 131
REMARK  4 active torsions:
REMARK  status: ('A' for Active; 'I' for Inactive)
REMARK   11  A    between atoms: CA   and  CB  
REMARK   12  A    between atoms: CB   and  CG  
REMARK   13  A    between atoms: CG   and  CD  
REMARK   14  A    between atoms: CD   and  CE  
ROOT
ATOM     20  CA  LYS A 131      29.867  25.555  16.977  1.00 20.52     0.186 C 
ENDROOT
BRANCH  20  21
ATOM     21  CB  LYS A 131      28.345  25.722  17.026  1.00 20.94     0.034 C 
BRANCH  21  22
ATOM     22  CG  LYS A 131      27.600  24.408  16.845  1.00 22.96     0.005 C 
BRANCH  22  23
ATOM     23  CD  LYS A 131      26.160  24.511  17.265  1.00 24.33     0.041 C 
BRANCH  23  24
ATOM     24  CE  LYS A 131      26.085  24.763  18.768  1.00 26.91     0.338 C 
ATOM     25  NZ  LYS A 131      25.511  23.588  19.463  1.00 27.40     0.618 N 
ENDBRANCH  23  24
ENDBRANCH  22  23
ENDBRANCH  21  22
ENDBRANCH  20  21
END_RES LYS A 131
