REMARK VINA RESULT:    -6.761      7.892     15.257
REMARK INTER + INTRA:         -20.484
REMARK INTER:                 -10.072
REMARK INTRA:                 -10.412
REMARK UNBOUND:                -7.795
REMARK SMILES CC(=O)N[C@@H]1[C@@H](O)C[C@](O)(C(=O)O)O[C@H]1C(O)[C@H](O)CNC(=O)OCc1cn(-c2ccc(-c3c4ccc(=O)cc-4oc4cc(O)ccc34)c(C(=O)[O-])c2)nn1
REMARK SMILES IDX 21 1 22 2 23 3 20 5 18 6 16 7 15 8 9 9 8 10 14 11 6 12 5 13
REMARK SMILES IDX 10 14 11 16 12 17 13 18 7 20 4 22 2 23 1 25 3 26 17 27 19 29
REMARK SMILES IDX 24 31 25 32 26 33 27 34 55 35 28 36 54 37 29 38 53 39 30 40
REMARK SMILES IDX 49 41 31 42 32 43 50 44 51 45 52 46 33 47 48 48 34 49 47 50
REMARK SMILES IDX 42 51 40 52 35 53 46 54 43 55 41 56 39 57 36 58 44 59 37 60
REMARK SMILES IDX 38 61 45 62
REMARK H PARENT 21 4 10 15 13 19 7 21 4 24 17 28 19 30 45 63
REMARK Flexibility Score: inf
ROOT
ATOM      1  N   UNL     1      25.130  19.632  21.739  1.00  0.00    -0.319 N 
ATOM      2  C   UNL     1      24.048  20.499  21.954  1.00  0.00     0.407 C 
ATOM      3  O   UNL     1      22.902  20.055  22.082  1.00  0.00    -0.225 OA
ATOM      4  H   UNL     1      26.082  20.111  21.646  1.00  0.00     0.167 HD
ENDROOT
BRANCH   1   5
ATOM      5  C   UNL     1      25.081  18.199  21.632  1.00  0.00     0.154 C 
BRANCH   5   6
ATOM      6  C   UNL     1      25.453  17.625  20.313  1.00  0.00     0.165 C 
BRANCH   6   7
ATOM      7  C   UNL     1      24.336  17.458  19.335  1.00  0.00     0.176 C 
BRANCH   7   8
ATOM      8  C   UNL     1      24.813  17.437  17.902  1.00  0.00     0.178 C 
ATOM      9  C   UNL     1      26.595  17.807  16.530  1.00  0.00     0.269 C 
ATOM     10  C   UNL     1      25.594  17.968  15.378  1.00  0.00     0.112 C 
ATOM     11  O   UNL     1      26.032  18.045  17.768  1.00  0.00    -0.332 OA
ATOM     12  C   UNL     1      24.471  18.837  15.939  1.00  0.00     0.145 C 
ATOM     13  C   UNL     1      23.731  18.045  16.990  1.00  0.00     0.142 C 
BRANCH   9  14
ATOM     14  O   UNL     1      27.602  18.801  16.394  1.00  0.00    -0.357 OA
ATOM     15  H   UNL     1      27.207  19.677  16.646  1.00  0.00     0.214 HD
ENDBRANCH   9  14
BRANCH   9  16
ATOM     16  C   UNL     1      27.276  16.501  16.419  1.00  0.00     0.364 C 
ATOM     17  O   UNL     1      26.671  15.518  15.955  1.00  0.00    -0.246 OA
BRANCH  16  18
ATOM     18  O   UNL     1      28.595  16.278  16.808  1.00  0.00    -0.477 OA
ATOM     19  H   UNL     1      28.866  15.421  17.281  1.00  0.00     0.296 HD
ENDBRANCH  16  18
ENDBRANCH   9  16
BRANCH  12  20
ATOM     20  O   UNL     1      25.090  19.905  16.589  1.00  0.00    -0.391 OA
ATOM     21  H   UNL     1      25.315  19.701  17.524  1.00  0.00     0.211 HD
ENDBRANCH  12  20
BRANCH  13  22
ATOM     22  N   UNL     1      22.970  16.964  16.454  1.00  0.00    -0.348 N 
ATOM     23  C   UNL     1      21.668  16.587  16.890  1.00  0.00     0.217 C 
ATOM     24  H   UNL     1      23.419  16.407  15.674  1.00  0.00     0.163 HD
ATOM     25  C   UNL     1      21.015  15.445  16.235  1.00  0.00     0.114 C 
ATOM     26  O   UNL     1      21.155  17.258  17.816  1.00  0.00    -0.275 OA
ENDBRANCH  13  22
ENDBRANCH   7   8
BRANCH   7  27
ATOM     27  O   UNL     1      23.351  18.429  19.448  1.00  0.00    -0.388 OA
ATOM     28  H   UNL     1      23.736  19.285  19.120  1.00  0.00     0.211 HD
ENDBRANCH   7  27
ENDBRANCH   6   7
BRANCH   6  29
ATOM     29  O   UNL     1      26.176  16.420  20.429  1.00  0.00    -0.388 OA
ATOM     30  H   UNL     1      26.519  16.160  19.541  1.00  0.00     0.211 HD
ENDBRANCH   6  29
ENDBRANCH   5   6
ENDBRANCH   1   5
BRANCH   2  31
ATOM     31  O   UNL     1      24.207  21.886  22.034  1.00  0.00    -0.443 OA
BRANCH  31  32
ATOM     32  C   UNL     1      24.686  22.634  20.924  1.00  0.00     0.294 C 
BRANCH  32  33
ATOM     33  C   UNL     1      23.558  22.763  19.966  1.00  0.00     0.121 A 
ATOM     34  C   UNL     1      23.436  22.055  18.788  1.00  0.00     0.144 A 
ATOM     35  N   UNL     1      22.467  23.544  20.017  1.00  0.00    -0.131 NA
ATOM     36  N   UNL     1      22.293  22.435  18.187  1.00  0.00    -0.220 N 
ATOM     37  N   UNL     1      21.710  23.347  18.951  1.00  0.00    -0.062 NA
BRANCH  36  38
ATOM     38  C   UNL     1      21.837  21.912  16.938  1.00  0.00     0.067 A 
ATOM     39  C   UNL     1      20.673  21.186  16.813  1.00  0.00     0.039 A 
ATOM     40  C   UNL     1      22.567  22.124  15.777  1.00  0.00     0.029 A 
ATOM     41  C   UNL     1      20.244  20.687  15.585  1.00  0.00     0.007 A 
ATOM     42  C   UNL     1      22.147  21.631  14.559  1.00  0.00     0.012 A 
ATOM     43  C   UNL     1      20.982  20.907  14.442  1.00  0.00    -0.008 A 
BRANCH  41  44
ATOM     44  C   UNL     1      19.007  19.923  15.488  1.00  0.00     0.072 C 
ATOM     45  O   UNL     1      17.912  20.491  15.288  1.00  0.00    -0.545 OA
ATOM     46  O   UNL     1      19.069  18.546  15.621  1.00  0.00    -0.545 OA
ENDBRANCH  41  44
BRANCH  43  47
ATOM     47  C   UNL     1      20.514  20.378  13.169  1.00  0.00     0.004 A 
ATOM     48  C   UNL     1      20.890  19.120  12.731  1.00  0.00     0.026 A 
ATOM     49  C   UNL     1      19.677  21.091  12.330  1.00  0.00     0.026 A 
ATOM     50  C   UNL     1      21.727  18.329  13.502  1.00  0.00     0.016 A 
ATOM     51  C   UNL     1      20.426  18.642  11.510  1.00  0.00     0.139 A 
ATOM     52  C   UNL     1      19.218  20.544  11.057  1.00  0.00     0.139 A 
ATOM     53  C   UNL     1      19.268  22.350  12.714  1.00  0.00     0.016 A 
ATOM     54  C   UNL     1      22.110  17.070  13.073  1.00  0.00     0.047 A 
ATOM     55  C   UNL     1      20.808  17.388  11.084  1.00  0.00     0.093 A 
ATOM     56  O   UNL     1      19.626  19.347  10.728  1.00  0.00    -0.456 OA
ATOM     57  C   UNL     1      18.385  21.255  10.227  1.00  0.00     0.099 A 
ATOM     58  C   UNL     1      18.430  23.043  11.858  1.00  0.00     0.053 A 
ATOM     59  C   UNL     1      21.644  16.610  11.863  1.00  0.00     0.119 A 
ATOM     60  C   UNL     1      17.999  22.509  10.643  1.00  0.00     0.182 A 
ATOM     61  O   UNL     1      17.241  23.248   9.967  1.00  0.00    -0.290 OA
BRANCH  59  62
ATOM     62  O   UNL     1      22.012  15.346  11.404  1.00  0.00    -0.508 OA
ATOM     63  H   UNL     1      22.448  15.197  10.526  1.00  0.00     0.293 HD
ENDBRANCH  59  62
ENDBRANCH  43  47
ENDBRANCH  36  38
ENDBRANCH  32  33
ENDBRANCH  31  32
ENDBRANCH   2  31
TORSDOF 18
BEGIN_RES LYS A 135
REMARK  4 active torsions:
REMARK  status: ('A' for Active; 'I' for Inactive)
REMARK    1  A    between atoms: CA   and  CB  
REMARK    2  A    between atoms: CB   and  CG  
REMARK    3  A    between atoms: CG   and  CD  
REMARK    4  A    between atoms: CD   and  CE  
ROOT
ATOM      1  CA  LYS A 135      33.193  34.663   9.290  1.00 25.02     0.186 C 
ENDROOT
BRANCH   1   2
ATOM      2  CB  LYS A 135      32.060  35.360  10.034  1.00 26.63     0.034 C 
BRANCH   2   3
ATOM      3  CG  LYS A 135      30.699  34.788   9.732  1.00 29.45     0.005 C 
BRANCH   3   4
ATOM      4  CD  LYS A 135      30.537  34.547   8.239  1.00 32.00     0.041 C 
BRANCH   4   5
ATOM      5  CE  LYS A 135      29.143  34.933   7.786  1.00 34.25     0.338 C 
ATOM      6  NZ  LYS A 135      28.107  34.378   8.701  1.00 35.99     0.618 N 
ENDBRANCH   4   5
ENDBRANCH   3   4
ENDBRANCH   2   3
ENDBRANCH   1   2
END_RES LYS A 135
BEGIN_RES ARG A 124
REMARK  4 active torsions:
REMARK  status: ('A' for Active; 'I' for Inactive)
REMARK    5  A    between atoms: CA   and  CB  
REMARK    6  A    between atoms: CB   and  CG  
REMARK    7  A    between atoms: CG   and  CD  
REMARK    8  A    between atoms: CD   and  NE  
REMARK       I    between atoms: NE   and  CZ  
ROOT
ATOM      7  CA  ARG A 124      31.045  26.515   9.594  1.00 17.84     0.186 C 
ENDROOT
BRANCH   7   8
ATOM      8  CB  ARG A 124      29.529  26.705   9.647  1.00 16.18     0.036 C 
BRANCH   8   9
ATOM      9  CG  ARG A 124      28.972  27.355  10.964  1.00 16.22     0.029 C 
BRANCH   9  10
ATOM     10  CD  ARG A 124      28.395  26.314  11.949  1.00 15.09     0.145 C 
BRANCH  10  11
ATOM     11  NE  ARG A 124      27.810  26.908  13.172  1.00 16.98    -0.083 NA
ATOM     12  CZ  ARG A 124      26.541  27.277  13.305  1.00 18.21     0.782 C 
ATOM     13  NH1 ARG A 124      25.669  27.122  12.316  1.00 21.11     0.063 N 
ATOM     14  NH2 ARG A 124      26.118  27.789  14.451  1.00 21.25     0.063 N 
ENDBRANCH  10  11
ENDBRANCH   9  10
ENDBRANCH   8   9
ENDBRANCH   7   8
END_RES ARG A 124
BEGIN_RES ASN A 133
REMARK  2 active torsions:
REMARK  status: ('A' for Active; 'I' for Inactive)
REMARK    9  A    between atoms: CA   and  CB  
REMARK   10  A    between atoms: CB   and  CG  
ROOT
ATOM     15  CA  ASN A 133      31.225  30.257  11.749  1.00 18.15     0.196 C 
ENDROOT
BRANCH  15  16
ATOM     16  CB  ASN A 133      30.092  31.240  11.460  1.00 18.27     0.126 C 
BRANCH  16  17
ATOM     17  CG  ASN A 133      28.957  31.136  12.431  1.00 18.94     0.276 C 
ATOM     18  OD1 ASN A 133      28.041  30.329  12.258  1.00 18.09    -0.269 OA
ATOM     19  ND2 ASN A 133      29.004  31.964  13.473  1.00 18.93    -0.107 N 
ENDBRANCH  16  17
ENDBRANCH  15  16
END_RES ASN A 133
BEGIN_RES LYS A 131
REMARK  4 active torsions:
REMARK  status: ('A' for Active; 'I' for Inactive)
REMARK   11  A    between atoms: CA   and  CB  
REMARK   12  A    between atoms: CB   and  CG  
REMARK   13  A    between atoms: CG   and  CD  
REMARK   14  A    between atoms: CD   and  CE  
ROOT
ATOM     20  CA  LYS A 131      29.867  25.555  16.977  1.00 20.52     0.186 C 
ENDROOT
BRANCH  20  21
ATOM     21  CB  LYS A 131      28.345  25.722  17.026  1.00 20.94     0.034 C 
BRANCH  21  22
ATOM     22  CG  LYS A 131      27.600  24.409  16.840  1.00 22.96     0.005 C 
BRANCH  22  23
ATOM     23  CD  LYS A 131      26.374  24.326  17.706  1.00 24.33     0.041 C 
BRANCH  23  24
ATOM     24  CE  LYS A 131      25.489  25.542  17.453  1.00 26.91     0.338 C 
ATOM     25  NZ  LYS A 131      24.172  25.122  16.918  1.00 27.40     0.618 N 
ENDBRANCH  23  24
ENDBRANCH  22  23
ENDBRANCH  21  22
ENDBRANCH  20  21
END_RES LYS A 131
