REMARK VINA RESULT:    -6.781      7.827     15.072
REMARK INTER + INTRA:         -20.522
REMARK INTER:                 -10.003
REMARK INTRA:                 -10.519
REMARK UNBOUND:                -7.795
REMARK SMILES CC(=O)N[C@@H]1[C@@H](O)C[C@](O)(C(=O)O)O[C@H]1C(O)[C@H](O)CNC(=O)OCc1cn(-c2ccc(-c3c4ccc(=O)cc-4oc4cc(O)ccc34)c(C(=O)[O-])c2)nn1
REMARK SMILES IDX 21 1 22 2 23 3 20 5 18 6 16 7 15 8 9 9 8 10 14 11 6 12 5 13
REMARK SMILES IDX 10 14 11 16 12 17 13 18 7 20 4 22 2 23 1 25 3 26 17 27 19 29
REMARK SMILES IDX 24 31 25 32 26 33 27 34 55 35 28 36 54 37 29 38 53 39 30 40
REMARK SMILES IDX 49 41 31 42 32 43 50 44 51 45 52 46 33 47 48 48 34 49 47 50
REMARK SMILES IDX 42 51 40 52 35 53 46 54 43 55 41 56 39 57 36 58 44 59 37 60
REMARK SMILES IDX 38 61 45 62
REMARK H PARENT 21 4 10 15 13 19 7 21 4 24 17 28 19 30 45 63
REMARK Flexibility Score: inf
ROOT
ATOM      1  N   UNL     1      25.166  19.694  21.709  1.00  0.00    -0.319 N 
ATOM      2  C   UNL     1      24.118  20.602  21.922  1.00  0.00     0.407 C 
ATOM      3  O   UNL     1      22.959  20.202  22.073  1.00  0.00    -0.225 OA
ATOM      4  H   UNL     1      26.133  20.137  21.596  1.00  0.00     0.167 HD
ENDROOT
BRANCH   1   5
ATOM      5  C   UNL     1      25.065  18.262  21.631  1.00  0.00     0.154 C 
BRANCH   5   6
ATOM      6  C   UNL     1      25.415  17.650  20.322  1.00  0.00     0.165 C 
BRANCH   6   7
ATOM      7  C   UNL     1      24.296  17.526  19.340  1.00  0.00     0.176 C 
BRANCH   7   8
ATOM      8  C   UNL     1      24.775  17.540  17.906  1.00  0.00     0.178 C 
ATOM      9  C   UNL     1      26.576  17.873  16.551  1.00  0.00     0.269 C 
ATOM     10  C   UNL     1      25.588  18.136  15.407  1.00  0.00     0.112 C 
ATOM     11  O   UNL     1      26.025  18.088  17.798  1.00  0.00    -0.332 OA
ATOM     12  C   UNL     1      24.512  19.040  16.005  1.00  0.00     0.145 C 
ATOM     13  C   UNL     1      23.729  18.245  17.022  1.00  0.00     0.142 C 
BRANCH   9  14
ATOM     14  O   UNL     1      27.636  18.816  16.457  1.00  0.00    -0.357 OA
ATOM     15  H   UNL     1      27.546  19.456  17.212  1.00  0.00     0.214 HD
ENDBRANCH   9  14
BRANCH   9  16
ATOM     16  C   UNL     1      27.187  16.538  16.384  1.00  0.00     0.364 C 
ATOM     17  O   UNL     1      26.559  15.632  15.806  1.00  0.00    -0.246 OA
BRANCH  16  18
ATOM     18  O   UNL     1      28.459  16.204  16.840  1.00  0.00    -0.477 OA
ATOM     19  H   UNL     1      28.899  15.327  16.578  1.00  0.00     0.296 HD
ENDBRANCH  16  18
ENDBRANCH   9  16
BRANCH  12  20
ATOM     20  O   UNL     1      25.186  20.044  16.700  1.00  0.00    -0.391 OA
ATOM     21  H   UNL     1      24.577  20.633  17.201  1.00  0.00     0.211 HD
ENDBRANCH  12  20
BRANCH  13  22
ATOM     22  N   UNL     1      22.912  17.230  16.441  1.00  0.00    -0.348 N 
ATOM     23  C   UNL     1      21.572  16.939  16.826  1.00  0.00     0.217 C 
ATOM     24  H   UNL     1      23.347  16.655  15.666  1.00  0.00     0.163 HD
ATOM     25  C   UNL     1      20.863  15.858  16.128  1.00  0.00     0.114 C 
ATOM     26  O   UNL     1      21.076  17.631  17.747  1.00  0.00    -0.275 OA
ENDBRANCH  13  22
ENDBRANCH   7   8
BRANCH   7  27
ATOM     27  O   UNL     1      23.324  18.506  19.481  1.00  0.00    -0.388 OA
ATOM     28  H   UNL     1      23.767  19.316  19.849  1.00  0.00     0.211 HD
ENDBRANCH   7  27
ENDBRANCH   6   7
BRANCH   6  29
ATOM     29  O   UNL     1      26.075  16.411  20.461  1.00  0.00    -0.388 OA
ATOM     30  H   UNL     1      25.812  15.819  19.717  1.00  0.00     0.211 HD
ENDBRANCH   6  29
ENDBRANCH   5   6
ENDBRANCH   1   5
BRANCH   2  31
ATOM     31  O   UNL     1      24.326  21.984  21.974  1.00  0.00    -0.443 OA
BRANCH  31  32
ATOM     32  C   UNL     1      24.736  22.708  20.820  1.00  0.00     0.294 C 
BRANCH  32  33
ATOM     33  C   UNL     1      23.553  22.808  19.928  1.00  0.00     0.121 A 
ATOM     34  C   UNL     1      23.424  22.170  18.711  1.00  0.00     0.144 A 
ATOM     35  N   UNL     1      22.410  23.496  20.083  1.00  0.00    -0.131 NA
ATOM     36  N   UNL     1      22.225  22.497  18.192  1.00  0.00    -0.220 N 
ATOM     37  N   UNL     1      21.616  23.309  19.042  1.00  0.00    -0.062 NA
BRANCH  36  38
ATOM     38  C   UNL     1      21.746  22.021  16.933  1.00  0.00     0.067 A 
ATOM     39  C   UNL     1      20.558  21.335  16.797  1.00  0.00     0.039 A 
ATOM     40  C   UNL     1      22.475  22.239  15.773  1.00  0.00     0.029 A 
ATOM     41  C   UNL     1      20.107  20.881  15.560  1.00  0.00     0.007 A 
ATOM     42  C   UNL     1      22.032  21.791  14.545  1.00  0.00     0.012 A 
ATOM     43  C   UNL     1      20.844  21.107  14.418  1.00  0.00    -0.008 A 
BRANCH  41  44
ATOM     44  C   UNL     1      18.846  20.159  15.452  1.00  0.00     0.072 C 
ATOM     45  O   UNL     1      17.765  20.767  15.297  1.00  0.00    -0.545 OA
ATOM     46  O   UNL     1      18.868  18.776  15.524  1.00  0.00    -0.545 OA
ENDBRANCH  41  44
BRANCH  43  47
ATOM     47  C   UNL     1      20.353  20.625  13.135  1.00  0.00     0.004 A 
ATOM     48  C   UNL     1      19.517  21.398  12.348  1.00  0.00     0.026 A 
ATOM     49  C   UNL     1      20.686  19.380  12.632  1.00  0.00     0.026 A 
ATOM     50  C   UNL     1      19.127  22.660  12.766  1.00  0.00     0.016 A 
ATOM     51  C   UNL     1      19.065  20.909  11.127  1.00  0.00     0.139 A 
ATOM     52  C   UNL     1      20.184  18.913  11.343  1.00  0.00     0.139 A 
ATOM     53  C   UNL     1      21.516  18.565  13.372  1.00  0.00     0.016 A 
ATOM     54  C   UNL     1      18.292  23.441  11.988  1.00  0.00     0.047 A 
ATOM     55  C   UNL     1      18.233  21.688  10.352  1.00  0.00     0.093 A 
ATOM     56  O   UNL     1      19.400  19.714  10.671  1.00  0.00    -0.456 OA
ATOM     57  C   UNL     1      20.517  17.676  10.846  1.00  0.00     0.099 A 
ATOM     58  C   UNL     1      21.835  17.326  12.847  1.00  0.00     0.053 A 
ATOM     59  C   UNL     1      17.851  22.945  10.782  1.00  0.00     0.119 A 
ATOM     60  C   UNL     1      21.348  16.891  11.614  1.00  0.00     0.182 A 
ATOM     61  O   UNL     1      21.718  15.744  11.260  1.00  0.00    -0.290 OA
BRANCH  59  62
ATOM     62  O   UNL     1      17.009  23.708   9.974  1.00  0.00    -0.508 OA
ATOM     63  H   UNL     1      17.125  24.684   9.844  1.00  0.00     0.293 HD
ENDBRANCH  59  62
ENDBRANCH  43  47
ENDBRANCH  36  38
ENDBRANCH  32  33
ENDBRANCH  31  32
ENDBRANCH   2  31
TORSDOF 18
BEGIN_RES LYS A 135
REMARK  4 active torsions:
REMARK  status: ('A' for Active; 'I' for Inactive)
REMARK    1  A    between atoms: CA   and  CB  
REMARK    2  A    between atoms: CB   and  CG  
REMARK    3  A    between atoms: CG   and  CD  
REMARK    4  A    between atoms: CD   and  CE  
ROOT
ATOM      1  CA  LYS A 135      33.193  34.663   9.290  1.00 25.02     0.186 C 
ENDROOT
BRANCH   1   2
ATOM      2  CB  LYS A 135      32.060  35.360  10.034  1.00 26.63     0.034 C 
BRANCH   2   3
ATOM      3  CG  LYS A 135      30.743  34.632   9.945  1.00 29.45     0.005 C 
BRANCH   3   4
ATOM      4  CD  LYS A 135      30.479  34.175   8.519  1.00 32.00     0.041 C 
BRANCH   4   5
ATOM      5  CE  LYS A 135      29.539  35.136   7.817  1.00 34.25     0.338 C 
ATOM      6  NZ  LYS A 135      28.116  34.795   8.093  1.00 35.99     0.618 N 
ENDBRANCH   4   5
ENDBRANCH   3   4
ENDBRANCH   2   3
ENDBRANCH   1   2
END_RES LYS A 135
BEGIN_RES ARG A 124
REMARK  4 active torsions:
REMARK  status: ('A' for Active; 'I' for Inactive)
REMARK    5  A    between atoms: CA   and  CB  
REMARK    6  A    between atoms: CB   and  CG  
REMARK    7  A    between atoms: CG   and  CD  
REMARK    8  A    between atoms: CD   and  NE  
REMARK       I    between atoms: NE   and  CZ  
ROOT
ATOM      7  CA  ARG A 124      31.045  26.515   9.594  1.00 17.84     0.186 C 
ENDROOT
BRANCH   7   8
ATOM      8  CB  ARG A 124      29.529  26.705   9.647  1.00 16.18     0.036 C 
BRANCH   8   9
ATOM      9  CG  ARG A 124      28.876  26.562  11.068  1.00 16.22     0.029 C 
BRANCH   9  10
ATOM     10  CD  ARG A 124      27.431  26.017  11.012  1.00 15.09     0.145 C 
BRANCH  10  11
ATOM     11  NE  ARG A 124      26.397  27.028  11.323  1.00 16.98    -0.083 NA
ATOM     12  CZ  ARG A 124      26.118  27.480  12.540  1.00 18.21     0.782 C 
ATOM     13  NH1 ARG A 124      26.781  27.048  13.606  1.00 21.11     0.063 N 
ATOM     14  NH2 ARG A 124      25.177  28.398  12.705  1.00 21.25     0.063 N 
ENDBRANCH  10  11
ENDBRANCH   9  10
ENDBRANCH   8   9
ENDBRANCH   7   8
END_RES ARG A 124
BEGIN_RES ASN A 133
REMARK  2 active torsions:
REMARK  status: ('A' for Active; 'I' for Inactive)
REMARK    9  A    between atoms: CA   and  CB  
REMARK   10  A    between atoms: CB   and  CG  
ROOT
ATOM     15  CA  ASN A 133      31.225  30.257  11.749  1.00 18.15     0.196 C 
ENDROOT
BRANCH  15  16
ATOM     16  CB  ASN A 133      30.092  31.240  11.460  1.00 18.27     0.126 C 
BRANCH  16  17
ATOM     17  CG  ASN A 133      28.733  30.617  11.541  1.00 18.94     0.276 C 
ATOM     18  OD1 ASN A 133      28.392  29.726  10.760  1.00 18.09    -0.269 OA
ATOM     19  ND2 ASN A 133      27.932  31.086  12.497  1.00 18.93    -0.107 N 
ENDBRANCH  16  17
ENDBRANCH  15  16
END_RES ASN A 133
BEGIN_RES LYS A 131
REMARK  4 active torsions:
REMARK  status: ('A' for Active; 'I' for Inactive)
REMARK   11  A    between atoms: CA   and  CB  
REMARK   12  A    between atoms: CB   and  CG  
REMARK   13  A    between atoms: CG   and  CD  
REMARK   14  A    between atoms: CD   and  CE  
ROOT
ATOM     20  CA  LYS A 131      29.867  25.555  16.977  1.00 20.52     0.186 C 
ENDROOT
BRANCH  20  21
ATOM     21  CB  LYS A 131      28.345  25.722  17.026  1.00 20.94     0.034 C 
BRANCH  21  22
ATOM     22  CG  LYS A 131      27.600  24.411  16.829  1.00 22.96     0.005 C 
BRANCH  22  23
ATOM     23  CD  LYS A 131      26.220  24.448  17.424  1.00 24.33     0.041 C 
BRANCH  23  24
ATOM     24  CE  LYS A 131      25.422  25.581  16.787  1.00 26.91     0.338 C 
ATOM     25  NZ  LYS A 131      23.968  25.303  16.869  1.00 27.40     0.618 N 
ENDBRANCH  23  24
ENDBRANCH  22  23
ENDBRANCH  21  22
ENDBRANCH  20  21
END_RES LYS A 131
