REMARK VINA RESULT:    -5.897      9.413     20.623
REMARK INTER + INTRA:         -17.962
REMARK INTER:                 -11.241
REMARK INTRA:                  -6.721
REMARK UNBOUND:                -6.721
REMARK SMILES CC(=O)N[C@@H]1[C@@H](O)C[C@](O)(C(=O)O)O[C@H]1C(O)[C@H](O)CNC(=O)OCc1cn(CC(=O)NCc2cccs2)nn1
REMARK SMILES IDX 21 1 22 2 23 3 20 5 18 6 16 7 15 8 9 9 8 10 14 11 6 12 5 13
REMARK SMILES IDX 10 14 11 16 12 17 13 18 7 20 4 22 2 23 1 25 3 26 17 27 19 29
REMARK SMILES IDX 24 31 25 32 26 33 27 34 40 35 28 36 39 37 29 38 30 39 31 40
REMARK SMILES IDX 32 41 33 43 34 44 35 45 38 46 36 47 37 48
REMARK H PARENT 21 4 10 15 13 19 7 21 4 24 17 28 19 30 32 42
REMARK Flexibility Score: inf
ROOT
ATOM      1  N   UNL     1      32.455  39.165   7.198  1.00  0.00    -0.319 N 
ATOM      2  C   UNL     1      32.233  40.025   6.115  1.00  0.00     0.407 C 
ATOM      3  O   UNL     1      31.659  41.138   6.321  1.00  0.00    -0.225 OA
ATOM      4  H   UNL     1      32.937  38.238   6.989  1.00  0.00     0.167 HD
ENDROOT
BRANCH   1   5
ATOM      5  C   UNL     1      32.055  39.488   8.548  1.00  0.00     0.154 C 
BRANCH   5   6
ATOM      6  C   UNL     1      31.029  38.517   9.023  1.00  0.00     0.165 C 
BRANCH   6   7
ATOM      7  C   UNL     1      29.934  38.221   8.062  1.00  0.00     0.176 C 
BRANCH   7   8
ATOM      8  C   UNL     1      28.807  37.445   8.655  1.00  0.00     0.178 C 
ATOM      9  C   UNL     1      29.395  35.192   8.559  1.00  0.00     0.269 C 
ATOM     10  C   UNL     1      28.260  34.845   7.617  1.00  0.00     0.112 C 
ATOM     11  O   UNL     1      29.144  36.308   9.333  1.00  0.00    -0.332 OA
ATOM     12  C   UNL     1      28.056  36.023   6.708  1.00  0.00     0.145 C 
ATOM     13  C   UNL     1      27.779  37.219   7.558  1.00  0.00     0.142 C 
BRANCH   9  14
ATOM     14  O   UNL     1      30.535  35.333   7.776  1.00  0.00    -0.357 OA
ATOM     15  H   UNL     1      30.773  34.401   7.488  1.00  0.00     0.214 HD
ENDBRANCH   9  14
BRANCH   9  16
ATOM     16  C   UNL     1      29.555  34.032   9.459  1.00  0.00     0.364 C 
ATOM     17  O   UNL     1      28.528  33.552  10.034  1.00  0.00    -0.246 OA
BRANCH  16  18
ATOM     18  O   UNL     1      30.763  33.427   9.721  1.00  0.00    -0.477 OA
ATOM     19  H   UNL     1      30.784  32.437  10.019  1.00  0.00     0.296 HD
ENDBRANCH  16  18
ENDBRANCH   9  16
BRANCH  12  20
ATOM     20  O   UNL     1      29.206  36.159   5.934  1.00  0.00    -0.391 OA
ATOM     21  H   UNL     1      29.043  36.012   4.975  1.00  0.00     0.211 HD
ENDBRANCH  12  20
BRANCH  13  22
ATOM     22  N   UNL     1      26.491  37.033   8.194  1.00  0.00    -0.348 N 
ATOM     23  C   UNL     1      25.466  38.004   7.996  1.00  0.00     0.217 C 
ATOM     24  H   UNL     1      26.266  36.218   8.798  1.00  0.00     0.163 HD
ATOM     25  C   UNL     1      24.159  37.807   8.643  1.00  0.00     0.114 C 
ATOM     26  O   UNL     1      25.646  39.014   7.290  1.00  0.00    -0.275 OA
ENDBRANCH  13  22
ENDBRANCH   7   8
BRANCH   7  27
ATOM     27  O   UNL     1      29.398  39.482   7.684  1.00  0.00    -0.388 OA
ATOM     28  H   UNL     1      29.448  39.582   6.695  1.00  0.00     0.211 HD
ENDBRANCH   7  27
ENDBRANCH   6   7
BRANCH   6  29
ATOM     29  O   UNL     1      30.487  38.941  10.246  1.00  0.00    -0.388 OA
ATOM     30  H   UNL     1      31.243  39.109  10.838  1.00  0.00     0.211 HD
ENDBRANCH   6  29
ENDBRANCH   5   6
ENDBRANCH   1   5
BRANCH   2  31
ATOM     31  O   UNL     1      32.583  39.789   4.787  1.00  0.00    -0.443 OA
BRANCH  31  32
ATOM     32  C   UNL     1      33.831  40.300   4.308  1.00  0.00     0.294 C 
BRANCH  32  33
ATOM     33  C   UNL     1      34.885  39.315   4.502  1.00  0.00     0.120 A 
ATOM     34  C   UNL     1      35.914  39.068   3.608  1.00  0.00     0.138 A 
ATOM     35  N   UNL     1      35.083  38.455   5.522  1.00  0.00    -0.132 NA
ATOM     36  N   UNL     1      36.659  38.096   4.125  1.00  0.00    -0.243 N 
ATOM     37  N   UNL     1      36.146  37.717   5.308  1.00  0.00    -0.067 NA
BRANCH  36  38
ATOM     38  C   UNL     1      37.845  37.538   3.494  1.00  0.00     0.245 C 
BRANCH  38  39
ATOM     39  C   UNL     1      39.033  38.156   4.140  1.00  0.00     0.242 C 
ATOM     40  O   UNL     1      40.073  38.300   3.458  1.00  0.00    -0.273 OA
ATOM     41  N   UNL     1      39.038  38.587   5.487  1.00  0.00    -0.350 N 
ATOM     42  H   UNL     1      38.198  38.482   6.090  1.00  0.00     0.163 HD
BRANCH  41  43
ATOM     43  C   UNL     1      40.232  39.182   6.040  1.00  0.00     0.162 C 
BRANCH  43  44
ATOM     44  C   UNL     1      39.909  39.735   7.406  1.00  0.00     0.024 A 
ATOM     45  C   UNL     1      38.744  39.933   8.012  1.00  0.00     0.017 A 
ATOM     46  S   UNL     1      41.078  40.276   8.568  1.00  0.00    -0.147 S 
ATOM     47  C   UNL     1      38.697  40.447   9.249  1.00  0.00     0.012 A 
ATOM     48  C   UNL     1      39.914  40.756   9.850  1.00  0.00     0.065 A 
ENDBRANCH  43  44
ENDBRANCH  41  43
ENDBRANCH  38  39
ENDBRANCH  36  38
ENDBRANCH  32  33
ENDBRANCH  31  32
ENDBRANCH   2  31
TORSDOF 18
BEGIN_RES LYS A 135
REMARK  4 active torsions:
REMARK  status: ('A' for Active; 'I' for Inactive)
REMARK    1  A    between atoms: CA   and  CB  
REMARK    2  A    between atoms: CB   and  CG  
REMARK    3  A    between atoms: CG   and  CD  
REMARK    4  A    between atoms: CD   and  CE  
ROOT
ATOM      1  CA  LYS A 135      33.193  34.663   9.290  1.00 25.02     0.186 C 
ENDROOT
BRANCH   1   2
ATOM      2  CB  LYS A 135      32.060  35.360  10.034  1.00 26.63     0.034 C 
BRANCH   2   3
ATOM      3  CG  LYS A 135      32.516  36.115  11.256  1.00 29.45     0.005 C 
BRANCH   3   4
ATOM      4  CD  LYS A 135      31.490  35.999  12.373  1.00 32.00     0.041 C 
BRANCH   4   5
ATOM      5  CE  LYS A 135      31.554  37.210  13.283  1.00 34.25     0.338 C 
ATOM      6  NZ  LYS A 135      32.155  36.860  14.600  1.00 35.99     0.618 N 
ENDBRANCH   4   5
ENDBRANCH   3   4
ENDBRANCH   2   3
ENDBRANCH   1   2
END_RES LYS A 135
BEGIN_RES ARG A 124
REMARK  4 active torsions:
REMARK  status: ('A' for Active; 'I' for Inactive)
REMARK    5  A    between atoms: CA   and  CB  
REMARK    6  A    between atoms: CB   and  CG  
REMARK    7  A    between atoms: CG   and  CD  
REMARK    8  A    between atoms: CD   and  NE  
REMARK       I    between atoms: NE   and  CZ  
ROOT
ATOM      7  CA  ARG A 124      31.045  26.515   9.594  1.00 17.84     0.186 C 
ENDROOT
BRANCH   7   8
ATOM      8  CB  ARG A 124      29.529  26.705   9.647  1.00 16.18     0.036 C 
BRANCH   8   9
ATOM      9  CG  ARG A 124      28.903  26.775  11.086  1.00 16.22     0.029 C 
BRANCH   9  10
ATOM     10  CD  ARG A 124      27.523  26.084  11.174  1.00 15.09     0.145 C 
BRANCH  10  11
ATOM     11  NE  ARG A 124      26.402  27.018  11.419  1.00 16.98    -0.083 NA
ATOM     12  CZ  ARG A 124      26.035  27.467  12.615  1.00 18.21     0.782 C 
ATOM     13  NH1 ARG A 124      26.682  27.107  13.716  1.00 21.11     0.063 N 
ATOM     14  NH2 ARG A 124      25.020  28.312  12.720  1.00 21.25     0.063 N 
ENDBRANCH  10  11
ENDBRANCH   9  10
ENDBRANCH   8   9
ENDBRANCH   7   8
END_RES ARG A 124
BEGIN_RES ASN A 133
REMARK  2 active torsions:
REMARK  status: ('A' for Active; 'I' for Inactive)
REMARK    9  A    between atoms: CA   and  CB  
REMARK   10  A    between atoms: CB   and  CG  
ROOT
ATOM     15  CA  ASN A 133      31.225  30.257  11.749  1.00 18.15     0.196 C 
ENDROOT
BRANCH  15  16
ATOM     16  CB  ASN A 133      30.092  31.240  11.460  1.00 18.27     0.126 C 
BRANCH  16  17
ATOM     17  CG  ASN A 133      28.732  30.624  11.572  1.00 18.94     0.276 C 
ATOM     18  OD1 ASN A 133      28.335  29.799  10.748  1.00 18.09    -0.269 OA
ATOM     19  ND2 ASN A 133      27.993  31.027  12.606  1.00 18.93    -0.107 N 
ENDBRANCH  16  17
ENDBRANCH  15  16
END_RES ASN A 133
BEGIN_RES LYS A 131
REMARK  4 active torsions:
REMARK  status: ('A' for Active; 'I' for Inactive)
REMARK   11  A    between atoms: CA   and  CB  
REMARK   12  A    between atoms: CB   and  CG  
REMARK   13  A    between atoms: CG   and  CD  
REMARK   14  A    between atoms: CD   and  CE  
ROOT
ATOM     20  CA  LYS A 131      29.867  25.555  16.977  1.00 20.52     0.186 C 
ENDROOT
BRANCH  20  21
ATOM     21  CB  LYS A 131      28.345  25.722  17.026  1.00 20.94     0.034 C 
BRANCH  21  22
ATOM     22  CG  LYS A 131      27.600  24.413  16.817  1.00 22.96     0.005 C 
BRANCH  22  23
ATOM     23  CD  LYS A 131      26.167  24.499  17.264  1.00 24.33     0.041 C 
BRANCH  23  24
ATOM     24  CE  LYS A 131      26.113  24.588  18.785  1.00 26.91     0.338 C 
ATOM     25  NZ  LYS A 131      25.401  23.416  19.349  1.00 27.40     0.618 N 
ENDBRANCH  23  24
ENDBRANCH  22  23
ENDBRANCH  21  22
ENDBRANCH  20  21
END_RES LYS A 131
