REMARK VINA RESULT:    -6.760      1.659      3.375
REMARK INTER + INTRA:         -20.483
REMARK INTER:                 -11.346
REMARK INTRA:                  -9.137
REMARK UNBOUND:                -7.795
REMARK SMILES CC(=O)N[C@@H]1[C@@H](O)C[C@](O)(C(=O)O)O[C@H]1C(O)[C@H](O)CNC(=O)OCc1cn(-c2ccc(-c3c4ccc(=O)cc-4oc4cc(O)ccc34)c(C(=O)[O-])c2)nn1
REMARK SMILES IDX 21 1 22 2 23 3 20 5 18 6 16 7 15 8 9 9 8 10 14 11 6 12 5 13
REMARK SMILES IDX 10 14 11 16 12 17 13 18 7 20 4 22 2 23 1 25 3 26 17 27 19 29
REMARK SMILES IDX 24 31 25 32 26 33 27 34 55 35 28 36 54 37 29 38 53 39 30 40
REMARK SMILES IDX 49 41 31 42 32 43 50 44 51 45 52 46 33 47 48 48 34 49 47 50
REMARK SMILES IDX 42 51 40 52 35 53 46 54 43 55 41 56 39 57 36 58 44 59 37 60
REMARK SMILES IDX 38 61 45 62
REMARK H PARENT 21 4 10 15 13 19 7 21 4 24 17 28 19 30 45 63
REMARK Flexibility Score: inf
ROOT
ATOM      1  N   UNL     1      28.756  34.121  18.209  1.00  0.00    -0.319 N 
ATOM      2  C   UNL     1      27.832  33.523  19.079  1.00  0.00     0.407 C 
ATOM      3  O   UNL     1      28.145  32.526  19.740  1.00  0.00    -0.225 OA
ATOM      4  H   UNL     1      28.392  34.981  17.686  1.00  0.00     0.167 HD
ENDROOT
BRANCH   1   5
ATOM      5  C   UNL     1      30.108  33.701  17.961  1.00  0.00     0.154 C 
BRANCH   5   6
ATOM      6  C   UNL     1      30.308  32.781  16.810  1.00  0.00     0.165 C 
BRANCH   6   7
ATOM      7  C   UNL     1      31.424  33.133  15.881  1.00  0.00     0.176 C 
BRANCH   7   8
ATOM      8  C   UNL     1      31.196  34.444  15.166  1.00  0.00     0.178 C 
ATOM      9  C   UNL     1      29.909  35.522  13.625  1.00  0.00     0.269 C 
ATOM     10  C   UNL     1      31.060  36.523  13.456  1.00  0.00     0.112 C 
ATOM     11  O   UNL     1      30.325  34.303  14.119  1.00  0.00    -0.332 OA
ATOM     12  C   UNL     1      32.327  35.671  13.392  1.00  0.00     0.145 C 
ATOM     13  C   UNL     1      32.551  35.044  14.746  1.00  0.00     0.142 C 
BRANCH   9  14
ATOM     14  O   UNL     1      29.375  35.229  12.341  1.00  0.00    -0.357 OA
ATOM     15  H   UNL     1      29.492  36.032  11.768  1.00  0.00     0.214 HD
ENDBRANCH   9  14
BRANCH   9  16
ATOM     16  C   UNL     1      28.818  36.147  14.401  1.00  0.00     0.364 C 
ATOM     17  O   UNL     1      28.256  37.173  13.974  1.00  0.00    -0.246 OA
BRANCH  16  18
ATOM     18  O   UNL     1      28.351  35.656  15.618  1.00  0.00    -0.477 OA
ATOM     19  H   UNL     1      27.361  35.497  15.776  1.00  0.00     0.296 HD
ENDBRANCH  16  18
ENDBRANCH   9  16
BRANCH  12  20
ATOM     20  O   UNL     1      32.057  34.635  12.499  1.00  0.00    -0.391 OA
ATOM     21  H   UNL     1      31.909  33.774  12.950  1.00  0.00     0.211 HD
ENDBRANCH  12  20
BRANCH  13  22
ATOM     22  N   UNL     1      32.930  35.984  15.751  1.00  0.00    -0.348 N 
ATOM     23  C   UNL     1      34.254  36.167  16.242  1.00  0.00     0.217 C 
ATOM     24  H   UNL     1      32.157  36.583  16.156  1.00  0.00     0.163 HD
ATOM     25  C   UNL     1      34.479  37.179  17.283  1.00  0.00     0.114 C 
ATOM     26  O   UNL     1      35.154  35.445  15.751  1.00  0.00    -0.275 OA
ENDBRANCH  13  22
ENDBRANCH   7   8
BRANCH   7  27
ATOM     27  O   UNL     1      31.677  32.159  14.926  1.00  0.00    -0.388 OA
ATOM     28  H   UNL     1      31.756  31.289  15.400  1.00  0.00     0.211 HD
ENDBRANCH   7  27
ENDBRANCH   6   7
BRANCH   6  29
ATOM     29  O   UNL     1      29.123  32.560  16.078  1.00  0.00    -0.388 OA
ATOM     30  H   UNL     1      28.374  33.017  16.527  1.00  0.00     0.211 HD
ENDBRANCH   6  29
ENDBRANCH   5   6
ENDBRANCH   1   5
BRANCH   2  31
ATOM     31  O   UNL     1      26.532  34.011  19.241  1.00  0.00    -0.443 OA
BRANCH  31  32
ATOM     32  C   UNL     1      25.414  33.310  18.713  1.00  0.00     0.294 C 
BRANCH  32  33
ATOM     33  C   UNL     1      25.644  33.159  17.254  1.00  0.00     0.121 A 
ATOM     34  C   UNL     1      25.391  34.133  16.309  1.00  0.00     0.144 A 
ATOM     35  N   UNL     1      26.119  32.114  16.557  1.00  0.00    -0.131 NA
ATOM     36  N   UNL     1      25.720  33.638  15.099  1.00  0.00    -0.220 N 
ATOM     37  N   UNL     1      26.164  32.402  15.268  1.00  0.00    -0.062 NA
BRANCH  36  38
ATOM     38  C   UNL     1      25.588  34.368  13.878  1.00  0.00     0.067 A 
ATOM     39  C   UNL     1      25.108  35.659  13.829  1.00  0.00     0.039 A 
ATOM     40  C   UNL     1      25.949  33.790  12.670  1.00  0.00     0.029 A 
ATOM     41  C   UNL     1      24.990  36.354  12.628  1.00  0.00     0.007 A 
ATOM     42  C   UNL     1      25.833  34.475  11.478  1.00  0.00     0.012 A 
ATOM     43  C   UNL     1      25.354  35.765  11.436  1.00  0.00    -0.008 A 
BRANCH  41  44
ATOM     44  C   UNL     1      24.479  37.719  12.610  1.00  0.00     0.072 C 
ATOM     45  O   UNL     1      23.256  37.949  12.488  1.00  0.00    -0.545 OA
ATOM     46  O   UNL     1      25.380  38.763  12.730  1.00  0.00    -0.545 OA
ENDBRANCH  41  44
BRANCH  43  47
ATOM     47  C   UNL     1      25.223  36.512  10.193  1.00  0.00     0.004 A 
ATOM     48  C   UNL     1      26.263  37.282   9.703  1.00  0.00     0.026 A 
ATOM     49  C   UNL     1      24.066  36.497   9.436  1.00  0.00     0.026 A 
ATOM     50  C   UNL     1      27.464  37.360  10.391  1.00  0.00     0.016 A 
ATOM     51  C   UNL     1      26.108  37.983   8.512  1.00  0.00     0.139 A 
ATOM     52  C   UNL     1      23.952  37.252   8.191  1.00  0.00     0.139 A 
ATOM     53  C   UNL     1      22.995  35.746   9.873  1.00  0.00     0.016 A 
ATOM     54  C   UNL     1      28.510  38.128   9.911  1.00  0.00     0.047 A 
ATOM     55  C   UNL     1      27.150  38.747   8.034  1.00  0.00     0.093 A 
ATOM     56  O   UNL     1      24.989  37.951   7.809  1.00  0.00    -0.456 OA
ATOM     57  C   UNL     1      22.801  37.234   7.441  1.00  0.00     0.099 A 
ATOM     58  C   UNL     1      21.849  35.748   9.099  1.00  0.00     0.053 A 
ATOM     59  C   UNL     1      28.343  38.816   8.731  1.00  0.00     0.119 A 
ATOM     60  C   UNL     1      21.754  36.474   7.911  1.00  0.00     0.182 A 
ATOM     61  O   UNL     1      20.655  36.384   7.309  1.00  0.00    -0.290 OA
BRANCH  59  62
ATOM     62  O   UNL     1      29.378  39.598   8.221  1.00  0.00    -0.508 OA
ATOM     63  H   UNL     1      30.097  39.232   7.644  1.00  0.00     0.293 HD
ENDBRANCH  59  62
ENDBRANCH  43  47
ENDBRANCH  36  38
ENDBRANCH  32  33
ENDBRANCH  31  32
ENDBRANCH   2  31
TORSDOF 18
BEGIN_RES LYS A 135
REMARK  4 active torsions:
REMARK  status: ('A' for Active; 'I' for Inactive)
REMARK    1  A    between atoms: CA   and  CB  
REMARK    2  A    between atoms: CB   and  CG  
REMARK    3  A    between atoms: CG   and  CD  
REMARK    4  A    between atoms: CD   and  CE  
ROOT
ATOM      1  CA  LYS A 135      33.193  34.663   9.290  1.00 25.02     0.186 C 
ENDROOT
BRANCH   1   2
ATOM      2  CB  LYS A 135      32.060  35.360  10.034  1.00 26.63     0.034 C 
BRANCH   2   3
ATOM      3  CG  LYS A 135      30.803  35.507   9.216  1.00 29.45     0.005 C 
BRANCH   3   4
ATOM      4  CD  LYS A 135      30.079  34.174   9.100  1.00 32.00     0.041 C 
BRANCH   4   5
ATOM      5  CE  LYS A 135      28.668  34.377   8.585  1.00 34.25     0.338 C 
ATOM      6  NZ  LYS A 135      28.650  35.308   7.422  1.00 35.99     0.618 N 
ENDBRANCH   4   5
ENDBRANCH   3   4
ENDBRANCH   2   3
ENDBRANCH   1   2
END_RES LYS A 135
BEGIN_RES ARG A 124
REMARK  4 active torsions:
REMARK  status: ('A' for Active; 'I' for Inactive)
REMARK    5  A    between atoms: CA   and  CB  
REMARK    6  A    between atoms: CB   and  CG  
REMARK    7  A    between atoms: CG   and  CD  
REMARK    8  A    between atoms: CD   and  NE  
REMARK       I    between atoms: NE   and  CZ  
ROOT
ATOM      7  CA  ARG A 124      31.045  26.515   9.594  1.00 17.84     0.186 C 
ENDROOT
BRANCH   7   8
ATOM      8  CB  ARG A 124      29.529  26.705   9.647  1.00 16.18     0.036 C 
BRANCH   8   9
ATOM      9  CG  ARG A 124      29.011  27.734  10.714  1.00 16.22     0.029 C 
BRANCH   9  10
ATOM     10  CD  ARG A 124      28.399  27.051  11.959  1.00 15.09     0.145 C 
BRANCH  10  11
ATOM     11  NE  ARG A 124      27.246  27.778  12.534  1.00 16.98    -0.083 NA
ATOM     12  CZ  ARG A 124      25.979  27.597  12.177  1.00 18.21     0.782 C 
ATOM     13  NH1 ARG A 124      25.643  26.706  11.251  1.00 21.11     0.063 N 
ATOM     14  NH2 ARG A 124      25.020  28.295  12.766  1.00 21.25     0.063 N 
ENDBRANCH  10  11
ENDBRANCH   9  10
ENDBRANCH   8   9
ENDBRANCH   7   8
END_RES ARG A 124
BEGIN_RES ASN A 133
REMARK  2 active torsions:
REMARK  status: ('A' for Active; 'I' for Inactive)
REMARK    9  A    between atoms: CA   and  CB  
REMARK   10  A    between atoms: CB   and  CG  
ROOT
ATOM     15  CA  ASN A 133      31.225  30.257  11.749  1.00 18.15     0.196 C 
ENDROOT
BRANCH  15  16
ATOM     16  CB  ASN A 133      30.092  31.240  11.460  1.00 18.27     0.126 C 
BRANCH  16  17
ATOM     17  CG  ASN A 133      28.965  31.149  12.441  1.00 18.94     0.276 C 
ATOM     18  OD1 ASN A 133      29.150  31.337  13.645  1.00 18.09    -0.269 OA
ATOM     19  ND2 ASN A 133      27.770  30.853  11.931  1.00 18.93    -0.107 N 
ENDBRANCH  16  17
ENDBRANCH  15  16
END_RES ASN A 133
BEGIN_RES LYS A 131
REMARK  4 active torsions:
REMARK  status: ('A' for Active; 'I' for Inactive)
REMARK   11  A    between atoms: CA   and  CB  
REMARK   12  A    between atoms: CB   and  CG  
REMARK   13  A    between atoms: CG   and  CD  
REMARK   14  A    between atoms: CD   and  CE  
ROOT
ATOM     20  CA  LYS A 131      29.867  25.555  16.977  1.00 20.52     0.186 C 
ENDROOT
BRANCH  20  21
ATOM     21  CB  LYS A 131      28.345  25.722  17.026  1.00 20.94     0.034 C 
BRANCH  21  22
ATOM     22  CG  LYS A 131      27.753  26.139  15.688  1.00 22.96     0.005 C 
BRANCH  22  23
ATOM     23  CD  LYS A 131      26.657  27.156  15.846  1.00 24.33     0.041 C 
BRANCH  23  24
ATOM     24  CE  LYS A 131      27.270  28.545  15.993  1.00 26.91     0.338 C 
ATOM     25  NZ  LYS A 131      27.262  28.969  17.413  1.00 27.40     0.618 N 
ENDBRANCH  23  24
ENDBRANCH  22  23
ENDBRANCH  21  22
ENDBRANCH  20  21
END_RES LYS A 131
