REMARK VINA RESULT:    -4.274      3.151      6.648
REMARK INTER + INTRA:         -19.725
REMARK INTER:                  -8.739
REMARK INTRA:                 -10.986
REMARK UNBOUND:                -9.705
REMARK SMILES CC(=O)N[C@@H]1[C@@H](O)C[C@](O)(C(=O)O)O[C@H]1C(O)[C@H](O)CNC(=O)OCc1cn(CCCCCCCCCCC(=O)O)nn1
REMARK SMILES IDX 29 1 28 2 26 3 27 4 43 5 42 6 25 7 24 8 22 9 21 10 23 12
REMARK SMILES IDX 20 13 18 14 16 15 15 16 9 17 8 18 14 19 6 20 5 21 10 22
REMARK SMILES IDX 11 24 12 25 13 26 7 28 4 30 2 31 1 33 3 34 17 35 19 37 30 39
REMARK SMILES IDX 31 40 32 41 33 42 34 43 35 44 36 45 37 46 38 47 39 48 40 49
REMARK SMILES IDX 41 50
REMARK H PARENT 21 11 10 23 13 27 7 29 4 32 17 36 19 38 41 51
REMARK Flexibility Score: inf
ROOT
ATOM      1  C   UNL     1      26.783  32.680  16.787  1.00  0.00     0.146 C 
ENDROOT
BRANCH   1   2
ATOM      2  N   UNL     1      27.152  31.412  17.358  1.00  0.00    -0.252 N 
ATOM      3  C   UNL     1      27.290  29.279  17.949  1.00  0.00     0.120 A 
ATOM      4  C   UNL     1      26.595  30.199  17.195  1.00  0.00     0.138 A 
ATOM      5  N   UNL     1      28.263  30.013  18.549  1.00  0.00    -0.132 NA
ATOM      6  N   UNL     1      28.185  31.273  18.202  1.00  0.00    -0.067 NA
BRANCH   3   7
ATOM      7  C   UNL     1      27.098  27.836  18.122  1.00  0.00     0.294 C 
BRANCH   7   8
ATOM      8  O   UNL     1      26.897  27.418  19.442  1.00  0.00    -0.443 OA
BRANCH   8   9
ATOM      9  C   UNL     1      27.908  27.380  20.392  1.00  0.00     0.407 C 
ATOM     10  N   UNL     1      29.275  27.435  20.025  1.00  0.00    -0.319 N 
ATOM     11  H   UNL     1      29.540  27.505  19.025  1.00  0.00     0.167 HD
ATOM     12  O   UNL     1      27.538  27.295  21.606  1.00  0.00    -0.225 OA
BRANCH  10  13
ATOM     13  C   UNL     1      30.275  27.394  21.039  1.00  0.00     0.154 C 
BRANCH  13  14
ATOM     14  C   UNL     1      31.140  28.629  21.100  1.00  0.00     0.165 C 
BRANCH  14  15
ATOM     15  C   UNL     1      30.633  29.635  22.095  1.00  0.00     0.176 C 
BRANCH  15  16
ATOM     16  C   UNL     1      30.370  30.936  21.329  1.00  0.00     0.178 C 
ATOM     17  C   UNL     1      31.394  32.973  20.910  1.00  0.00     0.269 C 
ATOM     18  C   UNL     1      30.427  33.724  21.797  1.00  0.00     0.112 C 
ATOM     19  O   UNL     1      31.497  31.685  21.403  1.00  0.00    -0.332 OA
ATOM     20  C   UNL     1      29.092  33.075  21.731  1.00  0.00     0.145 C 
ATOM     21  C   UNL     1      29.129  31.571  21.877  1.00  0.00     0.142 C 
BRANCH  17  22
ATOM     22  O   UNL     1      32.634  33.583  21.099  1.00  0.00    -0.357 OA
ATOM     23  H   UNL     1      33.113  33.008  21.764  1.00  0.00     0.214 HD
ENDBRANCH  17  22
BRANCH  17  24
ATOM     24  C   UNL     1      31.036  33.058  19.495  1.00  0.00     0.364 C 
ATOM     25  O   UNL     1      30.870  34.175  18.956  1.00  0.00    -0.246 OA
BRANCH  24  26
ATOM     26  O   UNL     1      30.864  31.946  18.682  1.00  0.00    -0.477 OA
ATOM     27  H   UNL     1      30.018  31.401  18.820  1.00  0.00     0.296 HD
ENDBRANCH  24  26
ENDBRANCH  17  24
BRANCH  20  28
ATOM     28  O   UNL     1      28.264  33.633  22.723  1.00  0.00    -0.391 OA
ATOM     29  H   UNL     1      28.670  33.510  23.613  1.00  0.00     0.211 HD
ENDBRANCH  20  28
BRANCH  21  30
ATOM     30  N   UNL     1      27.921  30.983  21.331  1.00  0.00    -0.348 N 
ATOM     31  C   UNL     1      26.813  30.714  22.177  1.00  0.00     0.217 C 
ATOM     32  H   UNL     1      27.846  30.746  20.295  1.00  0.00     0.163 HD
ATOM     33  C   UNL     1      25.594  30.103  21.542  1.00  0.00     0.114 C 
ATOM     34  O   UNL     1      26.845  30.973  23.408  1.00  0.00    -0.275 OA
ENDBRANCH  21  30
ENDBRANCH  15  16
BRANCH  15  35
ATOM     35  O   UNL     1      29.497  29.213  22.758  1.00  0.00    -0.388 OA
ATOM     36  H   UNL     1      29.021  28.468  22.347  1.00  0.00     0.211 HD
ENDBRANCH  15  35
ENDBRANCH  14  15
BRANCH  14  37
ATOM     37  O   UNL     1      31.105  29.191  19.815  1.00  0.00    -0.388 OA
ATOM     38  H   UNL     1      31.638  28.653  19.172  1.00  0.00     0.211 HD
ENDBRANCH  14  37
ENDBRANCH  13  14
ENDBRANCH  10  13
ENDBRANCH   8   9
ENDBRANCH   7   8
ENDBRANCH   3   7
ENDBRANCH   1   2
BRANCH   1  39
ATOM     39  C   UNL     1      27.959  33.585  16.562  1.00  0.00     0.024 C 
BRANCH  39  40
ATOM     40  C   UNL     1      28.110  34.052  15.151  1.00  0.00     0.002 C 
BRANCH  40  41
ATOM     41  C   UNL     1      29.343  33.522  14.470  1.00  0.00     0.000 C 
BRANCH  41  42
ATOM     42  C   UNL     1      30.069  32.485  15.266  1.00  0.00     0.000 C 
BRANCH  42  43
ATOM     43  C   UNL     1      31.539  32.646  15.341  1.00  0.00     0.000 C 
BRANCH  43  44
ATOM     44  C   UNL     1      32.036  33.991  15.680  1.00  0.00     0.000 C 
BRANCH  44  45
ATOM     45  C   UNL     1      32.955  34.718  14.803  1.00  0.00     0.001 C 
BRANCH  45  46
ATOM     46  C   UNL     1      32.627  35.430  13.585  1.00  0.00     0.012 C 
BRANCH  46  47
ATOM     47  C   UNL     1      31.587  36.503  13.594  1.00  0.00     0.122 C 
BRANCH  47  48
ATOM     48  C   UNL     1      31.831  37.514  12.502  1.00  0.00     0.303 C 
ATOM     49  O   UNL     1      32.409  37.188  11.463  1.00  0.00    -0.252 OA
BRANCH  48  50
ATOM     50  O   UNL     1      31.413  38.822  12.646  1.00  0.00    -0.481 OA
ATOM     51  H   UNL     1      30.476  39.070  12.307  1.00  0.00     0.296 HD
ENDBRANCH  48  50
ENDBRANCH  47  48
ENDBRANCH  46  47
ENDBRANCH  45  46
ENDBRANCH  44  45
ENDBRANCH  43  44
ENDBRANCH  42  43
ENDBRANCH  41  42
ENDBRANCH  40  41
ENDBRANCH  39  40
ENDBRANCH   1  39
TORSDOF 26
BEGIN_RES LYS A 135
REMARK  4 active torsions:
REMARK  status: ('A' for Active; 'I' for Inactive)
REMARK    1  A    between atoms: CA   and  CB  
REMARK    2  A    between atoms: CB   and  CG  
REMARK    3  A    between atoms: CG   and  CD  
REMARK    4  A    between atoms: CD   and  CE  
ROOT
ATOM      1  CA  LYS A 135      33.193  34.663   9.290  1.00 25.02     0.186 C 
ENDROOT
BRANCH   1   2
ATOM      2  CB  LYS A 135      32.060  35.360  10.034  1.00 26.63     0.034 C 
BRANCH   2   3
ATOM      3  CG  LYS A 135      30.745  34.629   9.950  1.00 29.45     0.005 C 
BRANCH   3   4
ATOM      4  CD  LYS A 135      30.232  34.611   8.518  1.00 32.00     0.041 C 
BRANCH   4   5
ATOM      5  CE  LYS A 135      28.739  34.346   8.491  1.00 34.25     0.338 C 
ATOM      6  NZ  LYS A 135      28.222  34.048   9.855  1.00 35.99     0.618 N 
ENDBRANCH   4   5
ENDBRANCH   3   4
ENDBRANCH   2   3
ENDBRANCH   1   2
END_RES LYS A 135
BEGIN_RES ARG A 124
REMARK  4 active torsions:
REMARK  status: ('A' for Active; 'I' for Inactive)
REMARK    5  A    between atoms: CA   and  CB  
REMARK    6  A    between atoms: CB   and  CG  
REMARK    7  A    between atoms: CG   and  CD  
REMARK    8  A    between atoms: CD   and  NE  
REMARK       I    between atoms: NE   and  CZ  
ROOT
ATOM      7  CA  ARG A 124      31.045  26.515   9.594  1.00 17.84     0.186 C 
ENDROOT
BRANCH   7   8
ATOM      8  CB  ARG A 124      29.529  26.705   9.647  1.00 16.18     0.036 C 
BRANCH   8   9
ATOM      9  CG  ARG A 124      28.957  27.225  11.014  1.00 16.22     0.029 C 
BRANCH   9  10
ATOM     10  CD  ARG A 124      28.303  26.106  11.856  1.00 15.09     0.145 C 
BRANCH  10  11
ATOM     11  NE  ARG A 124      27.800  26.562  13.170  1.00 16.98    -0.083 NA
ATOM     12  CZ  ARG A 124      26.624  27.147  13.372  1.00 18.21     0.782 C 
ATOM     13  NH1 ARG A 124      25.779  27.362  12.371  1.00 21.11     0.063 N 
ATOM     14  NH2 ARG A 124      26.267  27.507  14.595  1.00 21.25     0.063 N 
ENDBRANCH  10  11
ENDBRANCH   9  10
ENDBRANCH   8   9
ENDBRANCH   7   8
END_RES ARG A 124
BEGIN_RES ASN A 133
REMARK  2 active torsions:
REMARK  status: ('A' for Active; 'I' for Inactive)
REMARK    9  A    between atoms: CA   and  CB  
REMARK   10  A    between atoms: CB   and  CG  
ROOT
ATOM     15  CA  ASN A 133      31.225  30.257  11.749  1.00 18.15     0.196 C 
ENDROOT
BRANCH  15  16
ATOM     16  CB  ASN A 133      30.092  31.240  11.460  1.00 18.27     0.126 C 
BRANCH  16  17
ATOM     17  CG  ASN A 133      28.738  30.600  11.465  1.00 18.94     0.276 C 
ATOM     18  OD1 ASN A 133      28.312  30.002  10.475  1.00 18.09    -0.269 OA
ATOM     19  ND2 ASN A 133      28.039  30.723  12.593  1.00 18.93    -0.107 N 
ENDBRANCH  16  17
ENDBRANCH  15  16
END_RES ASN A 133
BEGIN_RES LYS A 131
REMARK  4 active torsions:
REMARK  status: ('A' for Active; 'I' for Inactive)
REMARK   11  A    between atoms: CA   and  CB  
REMARK   12  A    between atoms: CB   and  CG  
REMARK   13  A    between atoms: CG   and  CD  
REMARK   14  A    between atoms: CD   and  CE  
ROOT
ATOM     20  CA  LYS A 131      29.867  25.555  16.977  1.00 20.52     0.186 C 
ENDROOT
BRANCH  20  21
ATOM     21  CB  LYS A 131      28.345  25.722  17.026  1.00 20.94     0.034 C 
BRANCH  21  22
ATOM     22  CG  LYS A 131      27.600  24.504  16.503  1.00 22.96     0.005 C 
BRANCH  22  23
ATOM     23  CD  LYS A 131      27.245  23.542  17.602  1.00 24.33     0.041 C 
BRANCH  23  24
ATOM     24  CE  LYS A 131      26.174  24.161  18.495  1.00 26.91     0.338 C 
ATOM     25  NZ  LYS A 131      25.349  23.104  19.125  1.00 27.40     0.618 N 
ENDBRANCH  23  24
ENDBRANCH  22  23
ENDBRANCH  21  22
ENDBRANCH  20  21
END_RES LYS A 131
