REMARK VINA RESULT:    -5.178      0.000      0.000
REMARK INTER + INTRA:         -18.760
REMARK INTER:                  -9.309
REMARK INTRA:                  -9.451
REMARK UNBOUND:                -9.495
REMARK SMILES CC(=O)N[C@@H]1[C@@H](O)C[C@](O)(C(=O)O)O[C@H]1C(O)[C@H](O)CNC(=O)OCc1cn(-c2ccccc2C(N)=O)nn1
REMARK SMILES IDX 21 1 22 2 23 3 20 5 18 6 16 7 15 8 9 9 8 10 14 11 6 12 5 13
REMARK SMILES IDX 10 14 11 16 12 17 13 18 7 20 4 22 2 23 1 25 3 26 17 27 19 29
REMARK SMILES IDX 24 31 25 32 26 33 27 34 39 35 28 36 38 37 29 38 34 39 30 40
REMARK SMILES IDX 33 41 31 42 32 43 35 44 37 45 36 46
REMARK H PARENT 21 4 10 15 13 19 7 21 4 24 17 28 19 30 36 47 36 48
REMARK Flexibility Score: inf
ROOT
ATOM      1  N   UNL     1      25.684  19.098  15.899  1.00  0.00    -0.319 N 
ATOM      2  C   UNL     1      24.700  18.995  16.916  1.00  0.00     0.407 C 
ATOM      3  O   UNL     1      25.057  18.723  18.077  1.00  0.00    -0.225 OA
ATOM      4  H   UNL     1      25.313  19.332  14.933  1.00  0.00     0.167 HD
ENDROOT
BRANCH   1   5
ATOM      5  C   UNL     1      27.100  18.911  16.100  1.00  0.00     0.154 C 
BRANCH   5   6
ATOM      6  C   UNL     1      27.587  17.567  15.587  1.00  0.00     0.165 C 
BRANCH   6   7
ATOM      7  C   UNL     1      27.584  16.523  16.664  1.00  0.00     0.176 C 
BRANCH   7   8
ATOM      8  C   UNL     1      26.446  15.576  16.610  1.00  0.00     0.178 C 
ATOM      9  C   UNL     1      24.314  15.469  15.653  1.00  0.00     0.269 C 
ATOM     10  C   UNL     1      24.402  14.057  16.151  1.00  0.00     0.112 C 
ATOM     11  O   UNL     1      25.451  16.195  15.807  1.00  0.00    -0.332 OA
ATOM     12  C   UNL     1      24.949  13.925  17.530  1.00  0.00     0.145 C 
ATOM     13  C   UNL     1      25.776  15.164  17.857  1.00  0.00     0.142 C 
BRANCH   9  14
ATOM     14  O   UNL     1      23.187  16.094  16.238  1.00  0.00    -0.357 OA
ATOM     15  H   UNL     1      23.499  16.549  17.074  1.00  0.00     0.214 HD
ENDBRANCH   9  14
BRANCH   9  16
ATOM     16  C   UNL     1      24.012  15.393  14.194  1.00  0.00     0.364 C 
ATOM     17  O   UNL     1      23.538  14.307  13.740  1.00  0.00    -0.246 OA
BRANCH  16  18
ATOM     18  O   UNL     1      24.219  16.432  13.313  1.00  0.00    -0.477 OA
ATOM     19  H   UNL     1      23.951  16.356  12.345  1.00  0.00     0.296 HD
ENDBRANCH  16  18
ENDBRANCH   9  16
BRANCH  12  20
ATOM     20  O   UNL     1      23.899  13.768  18.421  1.00  0.00    -0.391 OA
ATOM     21  H   UNL     1      23.667  12.823  18.598  1.00  0.00     0.211 HD
ENDBRANCH  12  20
BRANCH  13  22
ATOM     22  N   UNL     1      26.537  15.023  19.038  1.00  0.00    -0.348 N 
ATOM     23  C   UNL     1      26.106  15.543  20.277  1.00  0.00     0.217 C 
ATOM     24  H   UNL     1      27.439  14.507  19.035  1.00  0.00     0.163 HD
ATOM     25  C   UNL     1      26.860  15.424  21.543  1.00  0.00     0.114 C 
ATOM     26  O   UNL     1      25.010  16.145  20.307  1.00  0.00    -0.275 OA
ENDBRANCH  13  22
ENDBRANCH   7   8
BRANCH   7  27
ATOM     27  O   UNL     1      28.817  16.011  16.996  1.00  0.00    -0.388 OA
ATOM     28  H   UNL     1      28.859  15.037  16.753  1.00  0.00     0.211 HD
ENDBRANCH   7  27
ENDBRANCH   6   7
BRANCH   6  29
ATOM     29  O   UNL     1      28.734  17.669  14.853  1.00  0.00    -0.388 OA
ATOM     30  H   UNL     1      29.257  18.477  15.109  1.00  0.00     0.211 HD
ENDBRANCH   6  29
ENDBRANCH   5   6
ENDBRANCH   1   5
BRANCH   2  31
ATOM     31  O   UNL     1      23.347  19.188  16.664  1.00  0.00    -0.443 OA
BRANCH  31  32
ATOM     32  C   UNL     1      22.877  20.219  15.813  1.00  0.00     0.294 C 
BRANCH  32  33
ATOM     33  C   UNL     1      22.575  19.672  14.455  1.00  0.00     0.121 A 
ATOM     34  C   UNL     1      21.314  19.559  13.898  1.00  0.00     0.144 A 
ATOM     35  N   UNL     1      23.435  19.199  13.541  1.00  0.00    -0.131 NA
ATOM     36  N   UNL     1      21.466  19.016  12.653  1.00  0.00    -0.220 N 
ATOM     37  N   UNL     1      22.738  18.814  12.472  1.00  0.00    -0.062 NA
BRANCH  36  38
ATOM     38  C   UNL     1      20.392  18.728  11.750  1.00  0.00     0.079 A 
ATOM     39  C   UNL     1      20.047  17.441  11.413  1.00  0.00     0.065 A 
ATOM     40  C   UNL     1      19.690  19.801  11.210  1.00  0.00     0.029 A 
ATOM     41  C   UNL     1      18.986  17.241  10.524  1.00  0.00     0.016 A 
ATOM     42  C   UNL     1      18.651  19.585  10.338  1.00  0.00     0.002 A 
ATOM     43  C   UNL     1      18.308  18.302  10.002  1.00  0.00     0.001 A 
BRANCH  39  44
ATOM     44  C   UNL     1      20.738  16.275  11.942  1.00  0.00     0.250 C 
ATOM     45  O   UNL     1      20.155  15.618  12.865  1.00  0.00    -0.269 OA
ATOM     46  N   UNL     1      22.013  15.855  11.477  1.00  0.00    -0.366 N 
ATOM     47  H   UNL     1      22.151  15.424  10.549  1.00  0.00     0.159 HD
ATOM     48  H   UNL     1      22.830  16.001  12.143  1.00  0.00     0.159 HD
ENDBRANCH  39  44
ENDBRANCH  36  38
ENDBRANCH  32  33
ENDBRANCH  31  32
ENDBRANCH   2  31
TORSDOF 16
BEGIN_RES LYS A 135
REMARK  4 active torsions:
REMARK  status: ('A' for Active; 'I' for Inactive)
REMARK    1  A    between atoms: CA   and  CB  
REMARK    2  A    between atoms: CB   and  CG  
REMARK    3  A    between atoms: CG   and  CD  
REMARK    4  A    between atoms: CD   and  CE  
ROOT
ATOM      1  CA  LYS A 135      33.193  34.663   9.290  1.00 25.02     0.186 C 
ENDROOT
BRANCH   1   2
ATOM      2  CB  LYS A 135      32.060  35.360  10.034  1.00 26.63     0.034 C 
BRANCH   2   3
ATOM      3  CG  LYS A 135      30.833  35.586   9.188  1.00 29.45     0.005 C 
BRANCH   3   4
ATOM      4  CD  LYS A 135      30.281  34.264   8.679  1.00 32.00     0.041 C 
BRANCH   4   5
ATOM      5  CE  LYS A 135      28.784  34.188   8.910  1.00 34.25     0.338 C 
ATOM      6  NZ  LYS A 135      28.041  34.954   7.871  1.00 35.99     0.618 N 
ENDBRANCH   4   5
ENDBRANCH   3   4
ENDBRANCH   2   3
ENDBRANCH   1   2
END_RES LYS A 135
BEGIN_RES ARG A 124
REMARK  4 active torsions:
REMARK  status: ('A' for Active; 'I' for Inactive)
REMARK    5  A    between atoms: CA   and  CB  
REMARK    6  A    between atoms: CB   and  CG  
REMARK    7  A    between atoms: CG   and  CD  
REMARK    8  A    between atoms: CD   and  NE  
REMARK       I    between atoms: NE   and  CZ  
ROOT
ATOM      7  CA  ARG A 124      31.045  26.515   9.594  1.00 17.84     0.186 C 
ENDROOT
BRANCH   7   8
ATOM      8  CB  ARG A 124      29.529  26.705   9.647  1.00 16.18     0.036 C 
BRANCH   8   9
ATOM      9  CG  ARG A 124      28.975  27.380  10.952  1.00 16.22     0.029 C 
BRANCH   9  10
ATOM     10  CD  ARG A 124      28.422  26.355  11.969  1.00 15.09     0.145 C 
BRANCH  10  11
ATOM     11  NE  ARG A 124      27.879  26.968  13.201  1.00 16.98    -0.083 NA
ATOM     12  CZ  ARG A 124      26.613  27.331  13.375  1.00 18.21     0.782 C 
ATOM     13  NH1 ARG A 124      25.706  27.150  12.422  1.00 21.11     0.063 N 
ATOM     14  NH2 ARG A 124      26.230  27.862  14.526  1.00 21.25     0.063 N 
ENDBRANCH  10  11
ENDBRANCH   9  10
ENDBRANCH   8   9
ENDBRANCH   7   8
END_RES ARG A 124
BEGIN_RES ASN A 133
REMARK  2 active torsions:
REMARK  status: ('A' for Active; 'I' for Inactive)
REMARK    9  A    between atoms: CA   and  CB  
REMARK   10  A    between atoms: CB   and  CG  
ROOT
ATOM     15  CA  ASN A 133      31.225  30.257  11.749  1.00 18.15     0.196 C 
ENDROOT
BRANCH  15  16
ATOM     16  CB  ASN A 133      30.092  31.240  11.460  1.00 18.27     0.126 C 
BRANCH  16  17
ATOM     17  CG  ASN A 133      29.081  31.318  12.562  1.00 18.94     0.276 C 
ATOM     18  OD1 ASN A 133      29.242  32.073  13.523  1.00 18.09    -0.269 OA
ATOM     19  ND2 ASN A 133      28.016  30.528  12.433  1.00 18.93    -0.107 N 
ENDBRANCH  16  17
ENDBRANCH  15  16
END_RES ASN A 133
BEGIN_RES LYS A 131
REMARK  4 active torsions:
REMARK  status: ('A' for Active; 'I' for Inactive)
REMARK   11  A    between atoms: CA   and  CB  
REMARK   12  A    between atoms: CB   and  CG  
REMARK   13  A    between atoms: CG   and  CD  
REMARK   14  A    between atoms: CD   and  CE  
ROOT
ATOM     20  CA  LYS A 131      29.867  25.555  16.977  1.00 20.52     0.186 C 
ENDROOT
BRANCH  20  21
ATOM     21  CB  LYS A 131      28.345  25.722  17.026  1.00 20.94     0.034 C 
BRANCH  21  22
ATOM     22  CG  LYS A 131      27.599  24.433  16.718  1.00 22.96     0.005 C 
BRANCH  22  23
ATOM     23  CD  LYS A 131      26.924  23.864  17.936  1.00 24.33     0.041 C 
BRANCH  23  24
ATOM     24  CE  LYS A 131      26.194  24.978  18.680  1.00 26.91     0.338 C 
ATOM     25  NZ  LYS A 131      25.425  24.423  19.819  1.00 27.40     0.618 N 
ENDBRANCH  23  24
ENDBRANCH  22  23
ENDBRANCH  21  22
ENDBRANCH  20  21
END_RES LYS A 131
