REMARK VINA RESULT:    -5.203      2.681      5.785
REMARK INTER + INTRA:         -17.203
REMARK INTER:                  -9.832
REMARK INTRA:                  -7.371
REMARK UNBOUND:                -8.198
REMARK SMILES CC(=O)N[C@@H]1[C@@H](O)C[C@](O)(C(=O)O)O[C@H]1C(O)[C@H](O)CNC(=O)OCc1cn(C23CC4CC(CC(C4)C2)C3)nn1
REMARK SMILES IDX 20 1 18 2 16 3 15 4 9 5 8 6 14 7 6 8 5 9 10 10 11 12 12 13
REMARK SMILES IDX 13 14 7 16 4 18 2 19 1 21 3 22 17 23 19 25 21 27 22 28 23 30
REMARK SMILES IDX 24 31 25 32 26 33 27 34 40 35 28 36 39 37 29 38 38 39 37 40
REMARK SMILES IDX 30 41 33 42 35 43 31 44 32 45 34 46 36 47
REMARK H PARENT 10 11 13 15 7 17 4 20 17 24 19 26 21 29
REMARK Flexibility Score: inf
ROOT
ATOM      1  C   UNL     1      26.377  34.357  16.139  1.00  0.00     0.154 C 
ENDROOT
BRANCH   1   2
ATOM      2  C   UNL     1      26.295  33.182  15.168  1.00  0.00     0.165 C 
BRANCH   2   3
ATOM      3  C   UNL     1      26.714  31.887  15.764  1.00  0.00     0.176 C 
BRANCH   3   4
ATOM      4  C   UNL     1      28.060  31.802  16.371  1.00  0.00     0.178 C 
ATOM      5  C   UNL     1      30.307  32.284  15.995  1.00  0.00     0.269 C 
ATOM      6  C   UNL     1      30.687  31.561  17.239  1.00  0.00     0.112 C 
ATOM      7  O   UNL     1      29.088  31.969  15.450  1.00  0.00    -0.332 OA
ATOM      8  C   UNL     1      29.575  31.054  18.085  1.00  0.00     0.145 C 
ATOM      9  C   UNL     1      28.368  30.620  17.217  1.00  0.00     0.142 C 
BRANCH   5  10
ATOM     10  O   UNL     1      31.260  31.884  15.013  1.00  0.00    -0.357 OA
ATOM     11  H   UNL     1      32.057  31.600  15.530  1.00  0.00     0.214 HD
ENDBRANCH   5  10
BRANCH   5  12
ATOM     12  C   UNL     1      30.515  33.741  16.156  1.00  0.00     0.364 C 
ATOM     13  O   UNL     1      29.838  34.351  17.016  1.00  0.00    -0.246 OA
BRANCH  12  14
ATOM     14  O   UNL     1      31.420  34.461  15.403  1.00  0.00    -0.477 OA
ATOM     15  H   UNL     1      31.115  35.394  15.100  1.00  0.00     0.296 HD
ENDBRANCH  12  14
ENDBRANCH   5  12
BRANCH   8  16
ATOM     16  O   UNL     1      29.938  29.967  18.848  1.00  0.00    -0.391 OA
ATOM     17  H   UNL     1      29.297  29.225  18.687  1.00  0.00     0.211 HD
ENDBRANCH   8  16
BRANCH   9  18
ATOM     18  N   UNL     1      27.351  30.263  18.164  1.00  0.00    -0.348 N 
ATOM     19  C   UNL     1      26.569  29.105  17.948  1.00  0.00     0.217 C 
ATOM     20  H   UNL     1      27.200  30.853  18.995  1.00  0.00     0.163 HD
ATOM     21  C   UNL     1      25.500  28.673  18.884  1.00  0.00     0.114 C 
ATOM     22  O   UNL     1      26.780  28.400  16.921  1.00  0.00    -0.275 OA
ENDBRANCH   9  18
ENDBRANCH   3   4
BRANCH   3  23
ATOM     23  O   UNL     1      26.517  30.847  14.855  1.00  0.00    -0.388 OA
ATOM     24  H   UNL     1      26.379  31.182  13.936  1.00  0.00     0.211 HD
ENDBRANCH   3  23
ENDBRANCH   2   3
BRANCH   2  25
ATOM     25  O   UNL     1      27.290  33.487  14.190  1.00  0.00    -0.388 OA
ATOM     26  H   UNL     1      27.229  32.831  13.447  1.00  0.00     0.211 HD
ENDBRANCH   2  25
ENDBRANCH   1   2
BRANCH   1  27
ATOM     27  N   UNL     1      27.368  35.326  15.652  1.00  0.00    -0.319 N 
ATOM     28  C   UNL     1      27.136  36.716  15.704  1.00  0.00     0.407 C 
ATOM     29  H   UNL     1      28.256  34.978  15.264  1.00  0.00     0.167 HD
ATOM     30  O   UNL     1      26.016  37.072  16.198  1.00  0.00    -0.225 OA
BRANCH  28  31
ATOM     31  O   UNL     1      28.046  37.660  15.256  1.00  0.00    -0.443 OA
BRANCH  31  32
ATOM     32  C   UNL     1      29.296  37.286  14.736  1.00  0.00     0.294 C 
BRANCH  32  33
ATOM     33  C   UNL     1      29.070  36.476  13.515  1.00  0.00     0.120 A 
ATOM     34  C   UNL     1      28.393  36.839  12.368  1.00  0.00     0.138 A 
ATOM     35  N   UNL     1      29.497  35.234  13.316  1.00  0.00    -0.132 NA
ATOM     36  N   UNL     1      28.432  35.805  11.512  1.00  0.00    -0.246 N 
ATOM     37  N   UNL     1      29.118  34.825  12.116  1.00  0.00    -0.066 NA
BRANCH  36  38
ATOM     38  C   UNL     1      27.840  35.791  10.207  1.00  0.00     0.065 C 
ATOM     39  C   UNL     1      28.656  34.923   9.283  1.00  0.00     0.034 C 
ATOM     40  C   UNL     1      27.858  37.197   9.596  1.00  0.00     0.034 C 
ATOM     41  C   UNL     1      26.408  35.306  10.324  1.00  0.00     0.034 C 
ATOM     42  C   UNL     1      28.005  34.862   7.920  1.00  0.00    -0.008 C 
ATOM     43  C   UNL     1      27.203  37.148   8.248  1.00  0.00    -0.008 C 
ATOM     44  C   UNL     1      25.791  35.265   8.955  1.00  0.00    -0.008 C 
ATOM     45  C   UNL     1      26.602  34.322   8.107  1.00  0.00     0.007 C 
ATOM     46  C   UNL     1      27.892  36.216   7.283  1.00  0.00     0.007 C 
ATOM     47  C   UNL     1      25.778  36.667   8.403  1.00  0.00     0.007 C 
ENDBRANCH  36  38
ENDBRANCH  32  33
ENDBRANCH  31  32
ENDBRANCH  28  31
ENDBRANCH   1  27
TORSDOF 15
BEGIN_RES LYS A 135
REMARK  4 active torsions:
REMARK  status: ('A' for Active; 'I' for Inactive)
REMARK    1  A    between atoms: CA   and  CB  
REMARK    2  A    between atoms: CB   and  CG  
REMARK    3  A    between atoms: CG   and  CD  
REMARK    4  A    between atoms: CD   and  CE  
ROOT
ATOM      1  CA  LYS A 135      33.193  34.663   9.290  1.00 25.02     0.186 C 
ENDROOT
BRANCH   1   2
ATOM      2  CB  LYS A 135      32.060  35.360  10.034  1.00 26.63     0.034 C 
BRANCH   2   3
ATOM      3  CG  LYS A 135      32.466  35.900  11.381  1.00 29.45     0.005 C 
BRANCH   3   4
ATOM      4  CD  LYS A 135      32.084  37.366  11.509  1.00 32.00     0.041 C 
BRANCH   4   5
ATOM      5  CE  LYS A 135      31.386  37.846  10.251  1.00 34.25     0.338 C 
ATOM      6  NZ  LYS A 135      32.111  38.994   9.640  1.00 35.99     0.618 N 
ENDBRANCH   4   5
ENDBRANCH   3   4
ENDBRANCH   2   3
ENDBRANCH   1   2
END_RES LYS A 135
BEGIN_RES ARG A 124
REMARK  4 active torsions:
REMARK  status: ('A' for Active; 'I' for Inactive)
REMARK    5  A    between atoms: CA   and  CB  
REMARK    6  A    between atoms: CB   and  CG  
REMARK    7  A    between atoms: CG   and  CD  
REMARK    8  A    between atoms: CD   and  NE  
REMARK       I    between atoms: NE   and  CZ  
ROOT
ATOM      7  CA  ARG A 124      31.045  26.515   9.594  1.00 17.84     0.186 C 
ENDROOT
BRANCH   7   8
ATOM      8  CB  ARG A 124      29.529  26.705   9.647  1.00 16.18     0.036 C 
BRANCH   8   9
ATOM      9  CG  ARG A 124      28.890  26.672  11.082  1.00 16.22     0.029 C 
BRANCH   9  10
ATOM     10  CD  ARG A 124      27.488  26.023  11.099  1.00 15.09     0.145 C 
BRANCH  10  11
ATOM     11  NE  ARG A 124      26.392  26.975  11.384  1.00 16.98    -0.083 NA
ATOM     12  CZ  ARG A 124      26.096  27.456  12.586  1.00 18.21     0.782 C 
ATOM     13  NH1 ARG A 124      26.799  27.112  13.659  1.00 21.11     0.063 N 
ATOM     14  NH2 ARG A 124      25.098  28.314  12.728  1.00 21.25     0.063 N 
ENDBRANCH  10  11
ENDBRANCH   9  10
ENDBRANCH   8   9
ENDBRANCH   7   8
END_RES ARG A 124
BEGIN_RES ASN A 133
REMARK  2 active torsions:
REMARK  status: ('A' for Active; 'I' for Inactive)
REMARK    9  A    between atoms: CA   and  CB  
REMARK   10  A    between atoms: CB   and  CG  
ROOT
ATOM     15  CA  ASN A 133      31.225  30.257  11.749  1.00 18.15     0.196 C 
ENDROOT
BRANCH  15  16
ATOM     16  CB  ASN A 133      30.092  31.240  11.460  1.00 18.27     0.126 C 
BRANCH  16  17
ATOM     17  CG  ASN A 133      28.731  30.646  11.648  1.00 18.94     0.276 C 
ATOM     18  OD1 ASN A 133      27.995  31.014  12.566  1.00 18.09    -0.269 OA
ATOM     19  ND2 ASN A 133      28.379  29.706  10.772  1.00 18.93    -0.107 N 
ENDBRANCH  16  17
ENDBRANCH  15  16
END_RES ASN A 133
BEGIN_RES LYS A 131
REMARK  4 active torsions:
REMARK  status: ('A' for Active; 'I' for Inactive)
REMARK   11  A    between atoms: CA   and  CB  
REMARK   12  A    between atoms: CB   and  CG  
REMARK   13  A    between atoms: CG   and  CD  
REMARK   14  A    between atoms: CD   and  CE  
ROOT
ATOM     20  CA  LYS A 131      29.867  25.555  16.977  1.00 20.52     0.186 C 
ENDROOT
BRANCH  20  21
ATOM     21  CB  LYS A 131      28.345  25.722  17.026  1.00 20.94     0.034 C 
BRANCH  21  22
ATOM     22  CG  LYS A 131      27.600  24.410  16.836  1.00 22.96     0.005 C 
BRANCH  22  23
ATOM     23  CD  LYS A 131      26.155  24.515  17.238  1.00 24.33     0.041 C 
BRANCH  23  24
ATOM     24  CE  LYS A 131      25.984  23.993  18.661  1.00 26.91     0.338 C 
ATOM     25  NZ  LYS A 131      25.714  25.112  19.595  1.00 27.40     0.618 N 
ENDBRANCH  23  24
ENDBRANCH  22  23
ENDBRANCH  21  22
ENDBRANCH  20  21
END_RES LYS A 131
