REMARK VINA RESULT:    -6.965      3.842      8.025
REMARK INTER + INTRA:         -20.868
REMARK INTER:                 -10.748
REMARK INTRA:                 -10.120
REMARK UNBOUND:                -7.795
REMARK SMILES CC(=O)N[C@@H]1[C@@H](O)C[C@](O)(C(=O)O)O[C@H]1C(O)[C@H](O)CNC(=O)OCc1cn(-c2ccc(-c3c4ccc(=O)cc-4oc4cc(O)ccc34)c(C(=O)[O-])c2)nn1
REMARK SMILES IDX 21 1 22 2 23 3 20 5 18 6 16 7 15 8 9 9 8 10 14 11 6 12 5 13
REMARK SMILES IDX 10 14 11 16 12 17 13 18 7 20 4 22 2 23 1 25 3 26 17 27 19 29
REMARK SMILES IDX 24 31 25 32 26 33 27 34 55 35 28 36 54 37 29 38 53 39 30 40
REMARK SMILES IDX 49 41 31 42 32 43 50 44 51 45 52 46 33 47 48 48 34 49 47 50
REMARK SMILES IDX 42 51 40 52 35 53 46 54 43 55 41 56 39 57 36 58 44 59 37 60
REMARK SMILES IDX 38 61 45 62
REMARK H PARENT 21 4 10 15 13 19 7 21 4 24 17 28 19 30 45 63
REMARK Flexibility Score: inf
ROOT
ATOM      1  N   UNL     1      24.703  27.864  19.317  1.00  0.00    -0.319 N 
ATOM      2  C   UNL     1      23.428  27.919  18.736  1.00  0.00     0.407 C 
ATOM      3  O   UNL     1      22.638  26.977  18.863  1.00  0.00    -0.225 OA
ATOM      4  H   UNL     1      25.311  28.731  19.155  1.00  0.00     0.167 HD
ENDROOT
BRANCH   1   5
ATOM      5  C   UNL     1      25.258  26.785  20.086  1.00  0.00     0.154 C 
BRANCH   5   6
ATOM      6  C   UNL     1      26.520  27.077  20.814  1.00  0.00     0.165 C 
BRANCH   6   7
ATOM      7  C   UNL     1      27.716  27.352  19.962  1.00  0.00     0.176 C 
BRANCH   7   8
ATOM      8  C   UNL     1      28.816  28.066  20.713  1.00  0.00     0.178 C 
ATOM      9  C   UNL     1      30.805  27.800  21.792  1.00  0.00     0.269 C 
ATOM     10  C   UNL     1      30.517  29.122  22.517  1.00  0.00     0.112 C 
ATOM     11  O   UNL     1      29.662  27.182  21.327  1.00  0.00    -0.332 OA
ATOM     12  C   UNL     1      29.049  29.040  22.933  1.00  0.00     0.145 C 
ATOM     13  C   UNL     1      28.196  29.084  21.689  1.00  0.00     0.142 C 
BRANCH   9  14
ATOM     14  O   UNL     1      31.355  26.883  22.729  1.00  0.00    -0.357 OA
ATOM     15  H   UNL     1      31.866  27.403  23.404  1.00  0.00     0.214 HD
ENDBRANCH   9  14
BRANCH   9  16
ATOM     16  C   UNL     1      31.838  28.015  20.759  1.00  0.00     0.364 C 
ATOM     17  O   UNL     1      32.488  29.076  20.736  1.00  0.00    -0.246 OA
BRANCH  16  18
ATOM     18  O   UNL     1      32.152  27.085  19.770  1.00  0.00    -0.477 OA
ATOM     19  H   UNL     1      32.388  27.379  18.827  1.00  0.00     0.296 HD
ENDBRANCH  16  18
ENDBRANCH   9  16
BRANCH  12  20
ATOM     20  O   UNL     1      28.874  27.782  23.507  1.00  0.00    -0.391 OA
ATOM     21  H   UNL     1      29.467  27.101  23.117  1.00  0.00     0.211 HD
ENDBRANCH  12  20
BRANCH  13  22
ATOM     22  N   UNL     1      28.204  30.354  21.039  1.00  0.00    -0.348 N 
ATOM     23  C   UNL     1      27.065  30.984  20.461  1.00  0.00     0.217 C 
ATOM     24  H   UNL     1      29.134  30.856  20.988  1.00  0.00     0.163 HD
ATOM     25  C   UNL     1      27.240  32.297  19.826  1.00  0.00     0.114 C 
ATOM     26  O   UNL     1      25.973  30.372  20.531  1.00  0.00    -0.275 OA
ENDBRANCH  13  22
ENDBRANCH   7   8
BRANCH   7  27
ATOM     27  O   UNL     1      27.426  28.086  18.820  1.00  0.00    -0.388 OA
ATOM     28  H   UNL     1      26.627  28.643  19.018  1.00  0.00     0.211 HD
ENDBRANCH   7  27
ENDBRANCH   6   7
BRANCH   6  29
ATOM     29  O   UNL     1      26.832  26.096  21.779  1.00  0.00    -0.388 OA
ATOM     30  H   UNL     1      26.748  26.488  22.679  1.00  0.00     0.211 HD
ENDBRANCH   6  29
ENDBRANCH   5   6
ENDBRANCH   1   5
BRANCH   2  31
ATOM     31  O   UNL     1      22.989  29.021  17.996  1.00  0.00    -0.443 OA
BRANCH  31  32
ATOM     32  C   UNL     1      23.255  29.122  16.603  1.00  0.00     0.294 C 
BRANCH  32  33
ATOM     33  C   UNL     1      24.730  29.207  16.447  1.00  0.00     0.121 A 
ATOM     34  C   UNL     1      25.470  30.367  16.544  1.00  0.00     0.144 A 
ATOM     35  N   UNL     1      25.628  28.241  16.193  1.00  0.00    -0.131 NA
ATOM     36  N   UNL     1      26.766  30.056  16.345  1.00  0.00    -0.220 N 
ATOM     37  N   UNL     1      26.847  28.751  16.132  1.00  0.00    -0.062 NA
BRANCH  36  38
ATOM     38  C   UNL     1      27.827  31.012  16.370  1.00  0.00     0.067 A 
ATOM     39  C   UNL     1      27.607  32.369  16.453  1.00  0.00     0.039 A 
ATOM     40  C   UNL     1      29.150  30.597  16.312  1.00  0.00     0.029 A 
ATOM     41  C   UNL     1      28.656  33.285  16.478  1.00  0.00     0.007 A 
ATOM     42  C   UNL     1      30.192  31.501  16.337  1.00  0.00     0.012 A 
ATOM     43  C   UNL     1      29.964  32.856  16.421  1.00  0.00    -0.008 A 
BRANCH  41  44
ATOM     44  C   UNL     1      28.389  34.715  16.566  1.00  0.00     0.072 C 
ATOM     45  O   UNL     1      28.422  35.311  17.664  1.00  0.00    -0.545 OA
ATOM     46  O   UNL     1      28.095  35.405  15.402  1.00  0.00    -0.545 OA
ENDBRANCH  41  44
BRANCH  43  47
ATOM     47  C   UNL     1      31.045  33.831  16.450  1.00  0.00     0.004 A 
ATOM     48  C   UNL     1      31.504  34.432  15.291  1.00  0.00     0.026 A 
ATOM     49  C   UNL     1      31.672  34.209  17.623  1.00  0.00     0.026 A 
ATOM     50  C   UNL     1      30.939  34.118  14.066  1.00  0.00     0.016 A 
ATOM     51  C   UNL     1      32.538  35.359  15.353  1.00  0.00     0.139 A 
ATOM     52  C   UNL     1      32.755  35.189  17.635  1.00  0.00     0.139 A 
ATOM     53  C   UNL     1      31.257  33.645  18.811  1.00  0.00     0.016 A 
ATOM     54  C   UNL     1      31.390  34.712  12.901  1.00  0.00     0.047 A 
ATOM     55  C   UNL     1      32.987  35.952  14.192  1.00  0.00     0.093 A 
ATOM     56  O   UNL     1      33.120  35.703  16.489  1.00  0.00    -0.456 OA
ATOM     57  C   UNL     1      33.375  35.563  18.802  1.00  0.00     0.099 A 
ATOM     58  C   UNL     1      31.899  34.040  19.970  1.00  0.00     0.053 A 
ATOM     59  C   UNL     1      32.414  35.628  12.976  1.00  0.00     0.119 A 
ATOM     60  C   UNL     1      32.934  34.977  19.967  1.00  0.00     0.182 A 
ATOM     61  O   UNL     1      33.426  35.243  21.092  1.00  0.00    -0.290 OA
BRANCH  59  62
ATOM     62  O   UNL     1      32.891  36.245  11.820  1.00  0.00    -0.508 OA
ATOM     63  H   UNL     1      32.384  36.260  10.968  1.00  0.00     0.293 HD
ENDBRANCH  59  62
ENDBRANCH  43  47
ENDBRANCH  36  38
ENDBRANCH  32  33
ENDBRANCH  31  32
ENDBRANCH   2  31
TORSDOF 18
BEGIN_RES LYS A 135
REMARK  4 active torsions:
REMARK  status: ('A' for Active; 'I' for Inactive)
REMARK    1  A    between atoms: CA   and  CB  
REMARK    2  A    between atoms: CB   and  CG  
REMARK    3  A    between atoms: CG   and  CD  
REMARK    4  A    between atoms: CD   and  CE  
ROOT
ATOM      1  CA  LYS A 135      33.193  34.663   9.290  1.00 25.02     0.186 C 
ENDROOT
BRANCH   1   2
ATOM      2  CB  LYS A 135      32.060  35.360  10.034  1.00 26.63     0.034 C 
BRANCH   2   3
ATOM      3  CG  LYS A 135      30.800  35.500   9.219  1.00 29.45     0.005 C 
BRANCH   3   4
ATOM      4  CD  LYS A 135      30.157  34.142   8.987  1.00 32.00     0.041 C 
BRANCH   4   5
ATOM      5  CE  LYS A 135      28.672  34.295   8.718  1.00 34.25     0.338 C 
ATOM      6  NZ  LYS A 135      27.864  33.634   9.779  1.00 35.99     0.618 N 
ENDBRANCH   4   5
ENDBRANCH   3   4
ENDBRANCH   2   3
ENDBRANCH   1   2
END_RES LYS A 135
BEGIN_RES ARG A 124
REMARK  4 active torsions:
REMARK  status: ('A' for Active; 'I' for Inactive)
REMARK    5  A    between atoms: CA   and  CB  
REMARK    6  A    between atoms: CB   and  CG  
REMARK    7  A    between atoms: CG   and  CD  
REMARK    8  A    between atoms: CD   and  NE  
REMARK       I    between atoms: NE   and  CZ  
ROOT
ATOM      7  CA  ARG A 124      31.045  26.515   9.594  1.00 17.84     0.186 C 
ENDROOT
BRANCH   7   8
ATOM      8  CB  ARG A 124      29.529  26.705   9.647  1.00 16.18     0.036 C 
BRANCH   8   9
ATOM      9  CG  ARG A 124      28.831  26.229  10.971  1.00 16.22     0.029 C 
BRANCH   9  10
ATOM     10  CD  ARG A 124      27.332  25.905  10.776  1.00 15.09     0.145 C 
BRANCH  10  11
ATOM     11  NE  ARG A 124      26.425  26.995  11.196  1.00 16.98    -0.083 NA
ATOM     12  CZ  ARG A 124      26.226  27.377  12.452  1.00 18.21     0.782 C 
ATOM     13  NH1 ARG A 124      26.862  26.793  13.460  1.00 21.11     0.063 N 
ATOM     14  NH2 ARG A 124      25.398  28.376  12.717  1.00 21.25     0.063 N 
ENDBRANCH  10  11
ENDBRANCH   9  10
ENDBRANCH   8   9
ENDBRANCH   7   8
END_RES ARG A 124
BEGIN_RES ASN A 133
REMARK  2 active torsions:
REMARK  status: ('A' for Active; 'I' for Inactive)
REMARK    9  A    between atoms: CA   and  CB  
REMARK   10  A    between atoms: CB   and  CG  
ROOT
ATOM     15  CA  ASN A 133      31.225  30.257  11.749  1.00 18.15     0.196 C 
ENDROOT
BRANCH  15  16
ATOM     16  CB  ASN A 133      30.092  31.240  11.460  1.00 18.27     0.126 C 
BRANCH  16  17
ATOM     17  CG  ASN A 133      28.731  30.650  11.663  1.00 18.94     0.276 C 
ATOM     18  OD1 ASN A 133      28.002  31.027  12.582  1.00 18.09    -0.269 OA
ATOM     19  ND2 ASN A 133      28.371  29.705  10.796  1.00 18.93    -0.107 N 
ENDBRANCH  16  17
ENDBRANCH  15  16
END_RES ASN A 133
BEGIN_RES LYS A 131
REMARK  4 active torsions:
REMARK  status: ('A' for Active; 'I' for Inactive)
REMARK   11  A    between atoms: CA   and  CB  
REMARK   12  A    between atoms: CB   and  CG  
REMARK   13  A    between atoms: CG   and  CD  
REMARK   14  A    between atoms: CD   and  CE  
ROOT
ATOM     20  CA  LYS A 131      29.867  25.555  16.977  1.00 20.52     0.186 C 
ENDROOT
BRANCH  20  21
ATOM     21  CB  LYS A 131      28.345  25.722  17.026  1.00 20.94     0.034 C 
BRANCH  21  22
ATOM     22  CG  LYS A 131      27.600  24.412  16.818  1.00 22.96     0.005 C 
BRANCH  22  23
ATOM     23  CD  LYS A 131      26.157  24.510  17.229  1.00 24.33     0.041 C 
BRANCH  23  24
ATOM     24  CE  LYS A 131      25.893  23.557  18.390  1.00 26.91     0.338 C 
ATOM     25  NZ  LYS A 131      24.905  22.524  18.000  1.00 27.40     0.618 N 
ENDBRANCH  23  24
ENDBRANCH  22  23
ENDBRANCH  21  22
ENDBRANCH  20  21
END_RES LYS A 131
