REMARK VINA RESULT:    -5.385      7.912     16.087
REMARK INTER + INTRA:         -17.272
REMARK INTER:                  -8.102
REMARK INTRA:                  -9.170
REMARK UNBOUND:                -7.952
REMARK SMILES CC(=O)N[C@@H]1[C@@H](O)C[C@](O)(C(=O)O)O[C@H]1C(O)[C@H](O)CNC(=O)OCc1cn(-c2cccc(Cl)c2)nn1
REMARK SMILES IDX 20 1 18 2 16 3 15 4 9 5 8 6 14 7 6 8 5 9 10 10 11 12 12 13
REMARK SMILES IDX 13 14 7 16 4 18 2 19 1 21 3 22 17 23 19 25 21 27 22 28 23 30
REMARK SMILES IDX 24 31 25 32 26 33 27 34 37 35 28 36 36 37 29 38 30 39 35 40
REMARK SMILES IDX 31 41 33 42 32 43 34 44
REMARK H PARENT 10 11 13 15 7 17 4 20 17 24 19 26 21 29
REMARK Flexibility Score: inf
ROOT
ATOM      1  C   UNL     1      20.441  21.752  14.683  1.00  0.00     0.154 C 
ENDROOT
BRANCH   1   2
ATOM      2  C   UNL     1      21.564  20.799  14.463  1.00  0.00     0.165 C 
BRANCH   2   3
ATOM      3  C   UNL     1      21.584  19.603  15.372  1.00  0.00     0.176 C 
BRANCH   3   4
ATOM      4  C   UNL     1      22.658  18.612  15.070  1.00  0.00     0.178 C 
ATOM      5  C   UNL     1      24.969  18.428  14.932  1.00  0.00     0.269 C 
ATOM      6  C   UNL     1      24.630  16.949  14.835  1.00  0.00     0.112 C 
ATOM      7  O   UNL     1      23.888  19.175  15.352  1.00  0.00    -0.332 OA
ATOM      8  C   UNL     1      23.583  16.783  13.784  1.00  0.00     0.145 C 
ATOM      9  C   UNL     1      22.640  18.012  13.712  1.00  0.00     0.142 C 
BRANCH   5  10
ATOM     10  O   UNL     1      25.408  18.805  13.664  1.00  0.00    -0.357 OA
ATOM     11  H   UNL     1      24.700  19.243  13.164  1.00  0.00     0.214 HD
ENDBRANCH   5  10
BRANCH   5  12
ATOM     12  C   UNL     1      26.079  18.644  15.886  1.00  0.00     0.364 C 
ATOM     13  O   UNL     1      26.812  17.701  16.224  1.00  0.00    -0.246 OA
BRANCH  12  14
ATOM     14  O   UNL     1      26.332  19.901  16.427  1.00  0.00    -0.477 OA
ATOM     15  H   UNL     1      26.489  20.659  15.777  1.00  0.00     0.296 HD
ENDBRANCH  12  14
ENDBRANCH   5  12
BRANCH   8  16
ATOM     16  O   UNL     1      24.224  16.708  12.541  1.00  0.00    -0.391 OA
ATOM     17  H   UNL     1      25.092  16.223  12.635  1.00  0.00     0.211 HD
ENDBRANCH   8  16
BRANCH   9  18
ATOM     18  N   UNL     1      21.321  17.429  13.427  1.00  0.00    -0.348 N 
ATOM     19  C   UNL     1      20.799  17.239  12.144  1.00  0.00     0.217 C 
ATOM     20  H   UNL     1      20.762  17.148  14.263  1.00  0.00     0.163 HD
ATOM     21  C   UNL     1      19.452  16.647  11.936  1.00  0.00     0.114 C 
ATOM     22  O   UNL     1      21.456  17.565  11.134  1.00  0.00    -0.275 OA
ENDBRANCH   9  18
ENDBRANCH   3   4
BRANCH   3  23
ATOM     23  O   UNL     1      21.739  19.986  16.707  1.00  0.00    -0.388 OA
ATOM     24  H   UNL     1      22.698  20.029  16.942  1.00  0.00     0.211 HD
ENDBRANCH   3  23
ENDBRANCH   2   3
BRANCH   2  25
ATOM     25  O   UNL     1      22.771  21.527  14.641  1.00  0.00    -0.388 OA
ATOM     26  H   UNL     1      22.645  22.378  14.144  1.00  0.00     0.211 HD
ENDBRANCH   2  25
ENDBRANCH   1   2
BRANCH   1  27
ATOM     27  N   UNL     1      20.745  22.878  15.534  1.00  0.00    -0.319 N 
ATOM     28  C   UNL     1      20.226  22.904  16.887  1.00  0.00     0.407 C 
ATOM     29  H   UNL     1      21.327  23.699  15.265  1.00  0.00     0.167 HD
ATOM     30  O   UNL     1      19.523  21.939  17.279  1.00  0.00    -0.225 OA
BRANCH  28  31
ATOM     31  O   UNL     1      20.482  23.944  17.739  1.00  0.00    -0.443 OA
BRANCH  31  32
ATOM     32  C   UNL     1      21.798  24.329  18.043  1.00  0.00     0.294 C 
BRANCH  32  33
ATOM     33  C   UNL     1      22.689  23.122  18.134  1.00  0.00     0.121 A 
ATOM     34  C   UNL     1      22.867  22.283  19.225  1.00  0.00     0.144 A 
ATOM     35  N   UNL     1      23.488  22.621  17.175  1.00  0.00    -0.131 NA
ATOM     36  N   UNL     1      23.748  21.323  18.896  1.00  0.00    -0.220 N 
ATOM     37  N   UNL     1      24.115  21.545  17.646  1.00  0.00    -0.062 NA
BRANCH  36  38
ATOM     38  C   UNL     1      24.238  20.246  19.685  1.00  0.00     0.068 A 
ATOM     39  C   UNL     1      24.549  20.431  21.020  1.00  0.00     0.028 A 
ATOM     40  C   UNL     1      24.425  18.979  19.172  1.00  0.00     0.049 A 
ATOM     41  C   UNL     1      25.026  19.389  21.799  1.00  0.00     0.004 A 
ATOM     42  C   UNL     1      24.900  17.934  19.937  1.00  0.00     0.043 A 
ATOM     43  C   UNL     1      25.209  18.128  21.268  1.00  0.00     0.020 A 
ATOM     44  Cl  UNL     1      25.128  16.324  19.242  1.00  0.00    -0.084 Cl
ENDBRANCH  36  38
ENDBRANCH  32  33
ENDBRANCH  31  32
ENDBRANCH  28  31
ENDBRANCH   1  27
TORSDOF 15
BEGIN_RES LYS A 135
REMARK  4 active torsions:
REMARK  status: ('A' for Active; 'I' for Inactive)
REMARK    1  A    between atoms: CA   and  CB  
REMARK    2  A    between atoms: CB   and  CG  
REMARK    3  A    between atoms: CG   and  CD  
REMARK    4  A    between atoms: CD   and  CE  
ROOT
ATOM      1  CA  LYS A 135      33.193  34.663   9.290  1.00 25.02     0.186 C 
ENDROOT
BRANCH   1   2
ATOM      2  CB  LYS A 135      32.060  35.360  10.034  1.00 26.63     0.034 C 
BRANCH   2   3
ATOM      3  CG  LYS A 135      30.802  35.505   9.217  1.00 29.45     0.005 C 
BRANCH   3   4
ATOM      4  CD  LYS A 135      30.214  34.141   8.889  1.00 32.00     0.041 C 
BRANCH   4   5
ATOM      5  CE  LYS A 135      28.748  34.088   9.272  1.00 34.25     0.338 C 
ATOM      6  NZ  LYS A 135      27.893  34.670   8.200  1.00 35.99     0.618 N 
ENDBRANCH   4   5
ENDBRANCH   3   4
ENDBRANCH   2   3
ENDBRANCH   1   2
END_RES LYS A 135
BEGIN_RES ARG A 124
REMARK  4 active torsions:
REMARK  status: ('A' for Active; 'I' for Inactive)
REMARK    5  A    between atoms: CA   and  CB  
REMARK    6  A    between atoms: CB   and  CG  
REMARK    7  A    between atoms: CG   and  CD  
REMARK    8  A    between atoms: CD   and  NE  
REMARK       I    between atoms: NE   and  CZ  
ROOT
ATOM      7  CA  ARG A 124      31.045  26.515   9.594  1.00 17.84     0.186 C 
ENDROOT
BRANCH   7   8
ATOM      8  CB  ARG A 124      29.529  26.705   9.647  1.00 16.18     0.036 C 
BRANCH   8   9
ATOM      9  CG  ARG A 124      29.021  27.853  10.591  1.00 16.22     0.029 C 
BRANCH   9  10
ATOM     10  CD  ARG A 124      27.559  27.649  11.051  1.00 15.09     0.145 C 
BRANCH  10  11
ATOM     11  NE  ARG A 124      27.416  27.425  12.506  1.00 16.98    -0.083 NA
ATOM     12  CZ  ARG A 124      26.258  27.364  13.155  1.00 18.21     0.782 C 
ATOM     13  NH1 ARG A 124      25.101  27.492  12.516  1.00 21.11     0.063 N 
ATOM     14  NH2 ARG A 124      26.243  27.148  14.462  1.00 21.25     0.063 N 
ENDBRANCH  10  11
ENDBRANCH   9  10
ENDBRANCH   8   9
ENDBRANCH   7   8
END_RES ARG A 124
BEGIN_RES ASN A 133
REMARK  2 active torsions:
REMARK  status: ('A' for Active; 'I' for Inactive)
REMARK    9  A    between atoms: CA   and  CB  
REMARK   10  A    between atoms: CB   and  CG  
ROOT
ATOM     15  CA  ASN A 133      31.225  30.257  11.749  1.00 18.15     0.196 C 
ENDROOT
BRANCH  15  16
ATOM     16  CB  ASN A 133      30.092  31.240  11.460  1.00 18.27     0.126 C 
BRANCH  16  17
ATOM     17  CG  ASN A 133      29.163  31.429  12.619  1.00 18.94     0.276 C 
ATOM     18  OD1 ASN A 133      28.168  30.716  12.763  1.00 18.09    -0.269 OA
ATOM     19  ND2 ASN A 133      29.481  32.407  13.467  1.00 18.93    -0.107 N 
ENDBRANCH  16  17
ENDBRANCH  15  16
END_RES ASN A 133
BEGIN_RES LYS A 131
REMARK  4 active torsions:
REMARK  status: ('A' for Active; 'I' for Inactive)
REMARK   11  A    between atoms: CA   and  CB  
REMARK   12  A    between atoms: CB   and  CG  
REMARK   13  A    between atoms: CG   and  CD  
REMARK   14  A    between atoms: CD   and  CE  
ROOT
ATOM     20  CA  LYS A 131      29.867  25.555  16.977  1.00 20.52     0.186 C 
ENDROOT
BRANCH  20  21
ATOM     21  CB  LYS A 131      28.345  25.722  17.026  1.00 20.94     0.034 C 
BRANCH  21  22
ATOM     22  CG  LYS A 131      27.600  24.413  16.817  1.00 22.96     0.005 C 
BRANCH  22  23
ATOM     23  CD  LYS A 131      26.707  24.077  17.980  1.00 24.33     0.041 C 
BRANCH  23  24
ATOM     24  CE  LYS A 131      26.154  25.364  18.584  1.00 26.91     0.338 C 
ATOM     25  NZ  LYS A 131      25.012  25.864  17.783  1.00 27.40     0.618 N 
ENDBRANCH  23  24
ENDBRANCH  22  23
ENDBRANCH  21  22
ENDBRANCH  20  21
END_RES LYS A 131
