REMARK VINA RESULT:    -6.839      3.370      8.606
REMARK INTER + INTRA:         -20.632
REMARK INTER:                 -10.569
REMARK INTRA:                 -10.063
REMARK UNBOUND:                -7.795
REMARK SMILES CC(=O)N[C@@H]1[C@@H](O)C[C@](O)(C(=O)O)O[C@H]1C(O)[C@H](O)CNC(=O)OCc1cn(-c2ccc(-c3c4ccc(=O)cc-4oc4cc(O)ccc34)c(C(=O)[O-])c2)nn1
REMARK SMILES IDX 21 1 22 2 23 3 20 5 18 6 16 7 15 8 9 9 8 10 14 11 6 12 5 13
REMARK SMILES IDX 10 14 11 16 12 17 13 18 7 20 4 22 2 23 1 25 3 26 17 27 19 29
REMARK SMILES IDX 24 31 25 32 26 33 27 34 55 35 28 36 54 37 29 38 53 39 30 40
REMARK SMILES IDX 49 41 31 42 32 43 50 44 51 45 52 46 33 47 48 48 34 49 47 50
REMARK SMILES IDX 42 51 40 52 35 53 46 54 43 55 41 56 39 57 36 58 44 59 37 60
REMARK SMILES IDX 38 61 45 62
REMARK H PARENT 21 4 10 15 13 19 7 21 4 24 17 28 19 30 45 63
REMARK Flexibility Score: inf
ROOT
ATOM      1  N   UNL     1      17.737  33.028   9.749  1.00  0.00    -0.319 N 
ATOM      2  C   UNL     1      17.396  31.694  10.021  1.00  0.00     0.407 C 
ATOM      3  O   UNL     1      17.120  30.916   9.103  1.00  0.00    -0.225 OA
ATOM      4  H   UNL     1      17.964  33.621  10.611  1.00  0.00     0.167 HD
ENDROOT
BRANCH   1   5
ATOM      5  C   UNL     1      17.807  33.655   8.458  1.00  0.00     0.154 C 
BRANCH   5   6
ATOM      6  C   UNL     1      18.992  34.519   8.212  1.00  0.00     0.165 C 
BRANCH   6   7
ATOM      7  C   UNL     1      18.904  35.913   8.741  1.00  0.00     0.176 C 
BRANCH   7   8
ATOM      8  C   UNL     1      20.248  36.465   9.157  1.00  0.00     0.178 C 
ATOM      9  C   UNL     1      22.149  37.483   8.419  1.00  0.00     0.269 C 
ATOM     10  C   UNL     1      22.846  36.955   9.680  1.00  0.00     0.112 C 
ATOM     11  O   UNL     1      21.035  36.745   8.072  1.00  0.00    -0.332 OA
ATOM     12  C   UNL     1      22.388  35.504   9.816  1.00  0.00     0.145 C 
ATOM     13  C   UNL     1      20.916  35.497  10.152  1.00  0.00     0.142 C 
BRANCH   9  14
ATOM     14  O   UNL     1      23.036  37.336   7.318  1.00  0.00    -0.357 OA
ATOM     15  H   UNL     1      23.892  37.786   7.551  1.00  0.00     0.214 HD
ENDBRANCH   9  14
BRANCH   9  16
ATOM     16  C   UNL     1      21.893  38.931   8.561  1.00  0.00     0.364 C 
ATOM     17  O   UNL     1      22.745  39.666   9.092  1.00  0.00    -0.246 OA
BRANCH  16  18
ATOM     18  O   UNL     1      20.727  39.558   8.131  1.00  0.00    -0.477 OA
ATOM     19  H   UNL     1      20.761  40.368   7.518  1.00  0.00     0.296 HD
ENDBRANCH  16  18
ENDBRANCH   9  16
BRANCH  12  20
ATOM     20  O   UNL     1      22.523  34.930   8.552  1.00  0.00    -0.391 OA
ATOM     21  H   UNL     1      22.194  34.004   8.519  1.00  0.00     0.211 HD
ENDBRANCH  12  20
BRANCH  13  22
ATOM     22  N   UNL     1      20.631  35.976  11.466  1.00  0.00    -0.348 N 
ATOM     23  C   UNL     1      19.783  35.325  12.407  1.00  0.00     0.217 C 
ATOM     24  H   UNL     1      21.091  36.885  11.750  1.00  0.00     0.163 HD
ATOM     25  C   UNL     1      19.591  35.950  13.722  1.00  0.00     0.114 C 
ATOM     26  O   UNL     1      19.247  34.250  12.049  1.00  0.00    -0.275 OA
ENDBRANCH  13  22
ENDBRANCH   7   8
BRANCH   7  27
ATOM     27  O   UNL     1      18.033  36.045   9.812  1.00  0.00    -0.388 OA
ATOM     28  H   UNL     1      17.972  35.160  10.260  1.00  0.00     0.211 HD
ENDBRANCH   7  27
ENDBRANCH   6   7
BRANCH   6  29
ATOM     29  O   UNL     1      19.375  34.542   6.855  1.00  0.00    -0.388 OA
ATOM     30  H   UNL     1      19.755  33.665   6.610  1.00  0.00     0.211 HD
ENDBRANCH   6  29
ENDBRANCH   5   6
ENDBRANCH   1   5
BRANCH   2  31
ATOM     31  O   UNL     1      17.350  31.185  11.323  1.00  0.00    -0.443 OA
BRANCH  31  32
ATOM     32  C   UNL     1      17.592  29.808  11.581  1.00  0.00     0.294 C 
BRANCH  32  33
ATOM     33  C   UNL     1      19.049  29.662  11.828  1.00  0.00     0.121 A 
ATOM     34  C   UNL     1      19.885  30.676  12.249  1.00  0.00     0.144 A 
ATOM     35  N   UNL     1      19.842  28.585  11.707  1.00  0.00    -0.131 NA
ATOM     36  N   UNL     1      21.130  30.173  12.362  1.00  0.00    -0.220 N 
ATOM     37  N   UNL     1      21.088  28.892  12.027  1.00  0.00    -0.062 NA
BRANCH  36  38
ATOM     38  C   UNL     1      22.264  30.939  12.774  1.00  0.00     0.067 A 
ATOM     39  C   UNL     1      22.161  32.229  13.246  1.00  0.00     0.039 A 
ATOM     40  C   UNL     1      23.539  30.396  12.715  1.00  0.00     0.029 A 
ATOM     41  C   UNL     1      23.279  32.958  13.645  1.00  0.00     0.007 A 
ATOM     42  C   UNL     1      24.649  31.114  13.110  1.00  0.00     0.012 A 
ATOM     43  C   UNL     1      24.539  32.403  13.581  1.00  0.00    -0.008 A 
BRANCH  41  44
ATOM     44  C   UNL     1      23.136  34.321  14.140  1.00  0.00     0.072 C 
ATOM     45  O   UNL     1      23.063  34.559  15.365  1.00  0.00    -0.545 OA
ATOM     46  O   UNL     1      23.081  35.355  13.221  1.00  0.00    -0.545 OA
ENDBRANCH  41  44
BRANCH  43  47
ATOM     47  C   UNL     1      25.693  33.182  14.006  1.00  0.00     0.004 A 
ATOM     48  C   UNL     1      26.226  33.045  15.275  1.00  0.00     0.026 A 
ATOM     49  C   UNL     1      26.317  34.097  13.177  1.00  0.00     0.026 A 
ATOM     50  C   UNL     1      25.670  32.154  16.179  1.00  0.00     0.016 A 
ATOM     51  C   UNL     1      27.329  33.804  15.650  1.00  0.00     0.139 A 
ATOM     52  C   UNL     1      27.474  34.870  13.619  1.00  0.00     0.139 A 
ATOM     53  C   UNL     1      25.831  34.276  11.899  1.00  0.00     0.016 A 
ATOM     54  C   UNL     1      26.194  32.009  17.450  1.00  0.00     0.047 A 
ATOM     55  C   UNL     1      27.852  33.659  16.917  1.00  0.00     0.093 A 
ATOM     56  O   UNL     1      27.907  34.671  14.837  1.00  0.00    -0.456 OA
ATOM     57  C   UNL     1      28.093  35.776  12.793  1.00  0.00     0.099 A 
ATOM     58  C   UNL     1      26.473  35.195  11.089  1.00  0.00     0.053 A 
ATOM     59  C   UNL     1      27.286  32.767  17.809  1.00  0.00     0.119 A 
ATOM     60  C   UNL     1      27.578  35.929  11.525  1.00  0.00     0.182 A 
ATOM     61  O   UNL     1      28.061  36.728  10.685  1.00  0.00    -0.290 OA
BRANCH  59  62
ATOM     62  O   UNL     1      27.838  32.643  19.083  1.00  0.00    -0.508 OA
ATOM     63  H   UNL     1      27.731  33.334  19.787  1.00  0.00     0.293 HD
ENDBRANCH  59  62
ENDBRANCH  43  47
ENDBRANCH  36  38
ENDBRANCH  32  33
ENDBRANCH  31  32
ENDBRANCH   2  31
TORSDOF 18
BEGIN_RES LYS A 135
REMARK  4 active torsions:
REMARK  status: ('A' for Active; 'I' for Inactive)
REMARK    1  A    between atoms: CA   and  CB  
REMARK    2  A    between atoms: CB   and  CG  
REMARK    3  A    between atoms: CG   and  CD  
REMARK    4  A    between atoms: CD   and  CE  
ROOT
ATOM      1  CA  LYS A 135      33.193  34.663   9.290  1.00 25.02     0.186 C 
ENDROOT
BRANCH   1   2
ATOM      2  CB  LYS A 135      32.060  35.360  10.034  1.00 26.63     0.034 C 
BRANCH   2   3
ATOM      3  CG  LYS A 135      30.713  34.721   9.816  1.00 29.45     0.005 C 
BRANCH   3   4
ATOM      4  CD  LYS A 135      30.261  34.899   8.375  1.00 32.00     0.041 C 
BRANCH   4   5
ATOM      5  CE  LYS A 135      28.798  34.527   8.225  1.00 34.25     0.338 C 
ATOM      6  NZ  LYS A 135      28.142  35.347   7.170  1.00 35.99     0.618 N 
ENDBRANCH   4   5
ENDBRANCH   3   4
ENDBRANCH   2   3
ENDBRANCH   1   2
END_RES LYS A 135
BEGIN_RES ARG A 124
REMARK  4 active torsions:
REMARK  status: ('A' for Active; 'I' for Inactive)
REMARK    5  A    between atoms: CA   and  CB  
REMARK    6  A    between atoms: CB   and  CG  
REMARK    7  A    between atoms: CG   and  CD  
REMARK    8  A    between atoms: CD   and  NE  
REMARK       I    between atoms: NE   and  CZ  
ROOT
ATOM      7  CA  ARG A 124      31.045  26.515   9.594  1.00 17.84     0.186 C 
ENDROOT
BRANCH   7   8
ATOM      8  CB  ARG A 124      29.529  26.705   9.647  1.00 16.18     0.036 C 
BRANCH   8   9
ATOM      9  CG  ARG A 124      28.970  27.339  10.971  1.00 16.22     0.029 C 
BRANCH   9  10
ATOM     10  CD  ARG A 124      28.402  26.284  11.948  1.00 15.09     0.145 C 
BRANCH  10  11
ATOM     11  NE  ARG A 124      27.950  26.847  13.239  1.00 16.98    -0.083 NA
ATOM     12  CZ  ARG A 124      26.744  27.357  13.465  1.00 18.21     0.782 C 
ATOM     13  NH1 ARG A 124      25.819  27.388  12.514  1.00 21.11     0.063 N 
ATOM     14  NH2 ARG A 124      26.440  27.825  14.666  1.00 21.25     0.063 N 
ENDBRANCH  10  11
ENDBRANCH   9  10
ENDBRANCH   8   9
ENDBRANCH   7   8
END_RES ARG A 124
BEGIN_RES ASN A 133
REMARK  2 active torsions:
REMARK  status: ('A' for Active; 'I' for Inactive)
REMARK    9  A    between atoms: CA   and  CB  
REMARK   10  A    between atoms: CB   and  CG  
ROOT
ATOM     15  CA  ASN A 133      31.225  30.257  11.749  1.00 18.15     0.196 C 
ENDROOT
BRANCH  15  16
ATOM     16  CB  ASN A 133      30.092  31.240  11.460  1.00 18.27     0.126 C 
BRANCH  16  17
ATOM     17  CG  ASN A 133      28.757  30.763  11.942  1.00 18.94     0.276 C 
ATOM     18  OD1 ASN A 133      28.030  30.072  11.226  1.00 18.09    -0.269 OA
ATOM     19  ND2 ASN A 133      28.417  31.132  13.176  1.00 18.93    -0.107 N 
ENDBRANCH  16  17
ENDBRANCH  15  16
END_RES ASN A 133
BEGIN_RES LYS A 131
REMARK  4 active torsions:
REMARK  status: ('A' for Active; 'I' for Inactive)
REMARK   11  A    between atoms: CA   and  CB  
REMARK   12  A    between atoms: CB   and  CG  
REMARK   13  A    between atoms: CG   and  CD  
REMARK   14  A    between atoms: CD   and  CE  
ROOT
ATOM     20  CA  LYS A 131      29.867  25.555  16.977  1.00 20.52     0.186 C 
ENDROOT
BRANCH  20  21
ATOM     21  CB  LYS A 131      28.345  25.722  17.026  1.00 20.94     0.034 C 
BRANCH  21  22
ATOM     22  CG  LYS A 131      27.600  24.408  16.848  1.00 22.96     0.005 C 
BRANCH  22  23
ATOM     23  CD  LYS A 131      26.554  24.202  17.908  1.00 24.33     0.041 C 
BRANCH  23  24
ATOM     24  CE  LYS A 131      25.184  24.064  17.251  1.00 26.91     0.338 C 
ATOM     25  NZ  LYS A 131      24.755  25.358  16.669  1.00 27.40     0.618 N 
ENDBRANCH  23  24
ENDBRANCH  22  23
ENDBRANCH  21  22
ENDBRANCH  20  21
END_RES LYS A 131
