REMARK VINA RESULT:    -4.209      2.528      5.525
REMARK INTER + INTRA:         -18.741
REMARK INTER:                 -10.297
REMARK INTRA:                  -8.444
REMARK UNBOUND:               -10.472
REMARK SMILES CC(=O)N[C@@H]1[C@@H](O)C[C@](O)(C(=O)O)O[C@H]1C(O)[C@H](O)CNC(=O)OCc1cn(CCNC(=O)NCc2ccco2)nn1
REMARK SMILES IDX 24 1 22 2 21 3 23 5 20 6 18 7 16 8 15 9 9 10 8 11 14 12 6 13
REMARK SMILES IDX 5 14 10 15 11 17 12 18 13 19 7 21 4 23 2 24 1 26 3 27 17 28
REMARK SMILES IDX 19 30 25 32 26 33 27 34 42 35 28 36 41 37 29 38 30 39 31 40
REMARK SMILES IDX 32 41 33 43 34 44 35 46 36 47 37 48 40 49 38 50 39 51
REMARK H PARENT 21 4 10 16 13 20 7 22 4 25 17 29 19 31 31 42 34 45
REMARK Flexibility Score: inf
ROOT
ATOM      1  O   UNL     1      31.359  33.006  16.887  1.00  0.00    -0.443 OA
ENDROOT
BRANCH   1   2
ATOM      2  C   UNL     1      32.076  34.046  16.267  1.00  0.00     0.407 C 
ATOM      3  N   UNL     1      32.534  33.940  14.937  1.00  0.00    -0.319 N 
ATOM      4  H   UNL     1      32.274  33.013  14.466  1.00  0.00     0.167 HD
ATOM      5  O   UNL     1      32.304  35.074  16.926  1.00  0.00    -0.225 OA
BRANCH   3   6
ATOM      6  C   UNL     1      33.280  34.923  14.200  1.00  0.00     0.154 C 
BRANCH   6   7
ATOM      7  C   UNL     1      32.538  35.577  13.066  1.00  0.00     0.165 C 
BRANCH   7   8
ATOM      8  C   UNL     1      31.945  36.851  13.616  1.00  0.00     0.176 C 
BRANCH   8   9
ATOM      9  C   UNL     1      30.464  36.772  13.829  1.00  0.00     0.178 C 
ATOM     10  C   UNL     1      28.809  35.596  14.935  1.00  0.00     0.269 C 
ATOM     11  C   UNL     1      27.933  36.604  14.176  1.00  0.00     0.112 C 
ATOM     12  O   UNL     1      30.073  35.552  14.352  1.00  0.00    -0.332 OA
ATOM     13  C   UNL     1      28.334  36.498  12.732  1.00  0.00     0.145 C 
ATOM     14  C   UNL     1      29.683  37.113  12.563  1.00  0.00     0.142 C 
BRANCH  10  15
ATOM     15  O   UNL     1      28.225  34.352  14.703  1.00  0.00    -0.357 OA
ATOM     16  H   UNL     1      28.580  33.646  15.274  1.00  0.00     0.214 HD
ENDBRANCH  10  15
BRANCH  10  17
ATOM     17  C   UNL     1      28.846  35.884  16.368  1.00  0.00     0.364 C 
ATOM     18  O   UNL     1      28.638  37.018  16.859  1.00  0.00    -0.246 OA
BRANCH  17  19
ATOM     19  O   UNL     1      29.124  34.859  17.260  1.00  0.00    -0.477 OA
ATOM     20  H   UNL     1      28.618  34.697  18.118  1.00  0.00     0.296 HD
ENDBRANCH  17  19
ENDBRANCH  10  17
BRANCH  13  21
ATOM     21  O   UNL     1      28.483  35.123  12.461  1.00  0.00    -0.391 OA
ATOM     22  H   UNL     1      28.140  34.926  11.561  1.00  0.00     0.211 HD
ENDBRANCH  13  21
BRANCH  14  23
ATOM     23  N   UNL     1      29.736  38.508  12.378  1.00  0.00    -0.348 N 
ATOM     24  C   UNL     1      30.495  39.185  11.386  1.00  0.00     0.217 C 
ATOM     25  H   UNL     1      29.170  39.124  13.021  1.00  0.00     0.163 HD
ATOM     26  C   UNL     1      30.505  40.653  11.249  1.00  0.00     0.114 C 
ATOM     27  O   UNL     1      31.167  38.420  10.626  1.00  0.00    -0.275 OA
ENDBRANCH  14  23
ENDBRANCH   8   9
BRANCH   8  28
ATOM     28  O   UNL     1      32.534  37.090  14.857  1.00  0.00    -0.388 OA
ATOM     29  H   UNL     1      31.983  37.723  15.414  1.00  0.00     0.211 HD
ENDBRANCH   8  28
ENDBRANCH   7   8
BRANCH   7  30
ATOM     30  O   UNL     1      31.619  34.731  12.532  1.00  0.00    -0.388 OA
ATOM     31  H   UNL     1      32.087  33.961  12.078  1.00  0.00     0.211 HD
ENDBRANCH   7  30
ENDBRANCH   6   7
ENDBRANCH   3   6
ENDBRANCH   1   2
BRANCH   1  32
ATOM     32  C   UNL     1      30.929  31.924  16.085  1.00  0.00     0.294 C 
BRANCH  32  33
ATOM     33  C   UNL     1      29.697  31.356  16.681  1.00  0.00     0.120 A 
ATOM     34  C   UNL     1      28.912  30.363  16.147  1.00  0.00     0.138 A 
ATOM     35  N   UNL     1      29.110  31.694  17.839  1.00  0.00    -0.132 NA
ATOM     36  N   UNL     1      27.869  30.115  16.982  1.00  0.00    -0.250 N 
ATOM     37  N   UNL     1      28.033  30.948  17.996  1.00  0.00    -0.067 NA
BRANCH  36  38
ATOM     38  C   UNL     1      26.799  29.146  16.810  1.00  0.00     0.167 C 
BRANCH  38  39
ATOM     39  C   UNL     1      26.570  28.398  18.103  1.00  0.00     0.141 C 
BRANCH  39  40
ATOM     40  N   UNL     1      27.799  27.729  18.471  1.00  0.00    -0.336 N 
ATOM     41  C   UNL     1      28.230  27.810  19.812  1.00  0.00     0.315 C 
ATOM     42  H   UNL     1      28.356  27.198  17.772  1.00  0.00     0.165 HD
ATOM     43  O   UNL     1      27.618  28.428  20.720  1.00  0.00    -0.249 OA
ATOM     44  N   UNL     1      29.438  27.151  20.181  1.00  0.00    -0.331 N 
ATOM     45  H   UNL     1      29.956  26.635  19.440  1.00  0.00     0.165 HD
BRANCH  44  46
ATOM     46  C   UNL     1      29.953  27.177  21.512  1.00  0.00     0.193 C 
BRANCH  46  47
ATOM     47  C   UNL     1      31.177  28.033  21.633  1.00  0.00     0.122 A 
ATOM     48  C   UNL     1      32.142  27.807  22.575  1.00  0.00     0.047 A 
ATOM     49  O   UNL     1      31.532  29.071  20.926  1.00  0.00    -0.467 OA
ATOM     50  C   UNL     1      33.100  28.774  22.390  1.00  0.00     0.042 A 
ATOM     51  C   UNL     1      32.665  29.534  21.348  1.00  0.00     0.195 A 
ENDBRANCH  46  47
ENDBRANCH  44  46
ENDBRANCH  39  40
ENDBRANCH  38  39
ENDBRANCH  36  38
ENDBRANCH  32  33
ENDBRANCH   1  32
TORSDOF 19
BEGIN_RES LYS A 135
REMARK  4 active torsions:
REMARK  status: ('A' for Active; 'I' for Inactive)
REMARK    1  A    between atoms: CA   and  CB  
REMARK    2  A    between atoms: CB   and  CG  
REMARK    3  A    between atoms: CG   and  CD  
REMARK    4  A    between atoms: CD   and  CE  
ROOT
ATOM      1  CA  LYS A 135      33.193  34.663   9.290  1.00 25.02     0.186 C 
ENDROOT
BRANCH   1   2
ATOM      2  CB  LYS A 135      32.060  35.360  10.034  1.00 26.63     0.034 C 
BRANCH   2   3
ATOM      3  CG  LYS A 135      30.785  35.457   9.236  1.00 29.45     0.005 C 
BRANCH   3   4
ATOM      4  CD  LYS A 135      30.195  34.075   8.998  1.00 32.00     0.041 C 
BRANCH   4   5
ATOM      5  CE  LYS A 135      28.682  34.119   9.094  1.00 34.25     0.338 C 
ATOM      6  NZ  LYS A 135      28.180  35.519   9.031  1.00 35.99     0.618 N 
ENDBRANCH   4   5
ENDBRANCH   3   4
ENDBRANCH   2   3
ENDBRANCH   1   2
END_RES LYS A 135
BEGIN_RES ARG A 124
REMARK  4 active torsions:
REMARK  status: ('A' for Active; 'I' for Inactive)
REMARK    5  A    between atoms: CA   and  CB  
REMARK    6  A    between atoms: CB   and  CG  
REMARK    7  A    between atoms: CG   and  CD  
REMARK    8  A    between atoms: CD   and  NE  
REMARK       I    between atoms: NE   and  CZ  
ROOT
ATOM      7  CA  ARG A 124      31.045  26.515   9.594  1.00 17.84     0.186 C 
ENDROOT
BRANCH   7   8
ATOM      8  CB  ARG A 124      29.529  26.705   9.647  1.00 16.18     0.036 C 
BRANCH   8   9
ATOM      9  CG  ARG A 124      29.033  28.194   9.715  1.00 16.22     0.029 C 
BRANCH   9  10
ATOM     10  CD  ARG A 124      27.925  28.409  10.771  1.00 15.09     0.145 C 
BRANCH  10  11
ATOM     11  NE  ARG A 124      28.180  27.721  12.055  1.00 16.98    -0.083 NA
ATOM     12  CZ  ARG A 124      27.238  27.246  12.863  1.00 18.21     0.782 C 
ATOM     13  NH1 ARG A 124      25.950  27.347  12.556  1.00 21.11     0.063 N 
ATOM     14  NH2 ARG A 124      27.579  26.635  13.988  1.00 21.25     0.063 N 
ENDBRANCH  10  11
ENDBRANCH   9  10
ENDBRANCH   8   9
ENDBRANCH   7   8
END_RES ARG A 124
BEGIN_RES ASN A 133
REMARK  2 active torsions:
REMARK  status: ('A' for Active; 'I' for Inactive)
REMARK    9  A    between atoms: CA   and  CB  
REMARK   10  A    between atoms: CB   and  CG  
ROOT
ATOM     15  CA  ASN A 133      31.225  30.257  11.749  1.00 18.15     0.196 C 
ENDROOT
BRANCH  15  16
ATOM     16  CB  ASN A 133      30.092  31.240  11.460  1.00 18.27     0.126 C 
BRANCH  16  17
ATOM     17  CG  ASN A 133      29.406  31.732  12.697  1.00 18.94     0.276 C 
ATOM     18  OD1 ASN A 133      29.896  32.629  13.385  1.00 18.09    -0.269 OA
ATOM     19  ND2 ASN A 133      28.250  31.140  12.996  1.00 18.93    -0.107 N 
ENDBRANCH  16  17
ENDBRANCH  15  16
END_RES ASN A 133
BEGIN_RES LYS A 131
REMARK  4 active torsions:
REMARK  status: ('A' for Active; 'I' for Inactive)
REMARK   11  A    between atoms: CA   and  CB  
REMARK   12  A    between atoms: CB   and  CG  
REMARK   13  A    between atoms: CG   and  CD  
REMARK   14  A    between atoms: CD   and  CE  
ROOT
ATOM     20  CA  LYS A 131      29.867  25.555  16.977  1.00 20.52     0.186 C 
ENDROOT
BRANCH  20  21
ATOM     21  CB  LYS A 131      28.345  25.722  17.026  1.00 20.94     0.034 C 
BRANCH  21  22
ATOM     22  CG  LYS A 131      27.600  24.409  16.840  1.00 22.96     0.005 C 
BRANCH  22  23
ATOM     23  CD  LYS A 131      26.152  24.520  17.227  1.00 24.33     0.041 C 
BRANCH  23  24
ATOM     24  CE  LYS A 131      26.036  24.612  18.745  1.00 26.91     0.338 C 
ATOM     25  NZ  LYS A 131      24.820  25.367  19.127  1.00 27.40     0.618 N 
ENDBRANCH  23  24
ENDBRANCH  22  23
ENDBRANCH  21  22
ENDBRANCH  20  21
END_RES LYS A 131
