REMARK VINA RESULT:    -4.572      8.918     22.033
REMARK INTER + INTRA:         -17.675
REMARK INTER:                  -8.180
REMARK INTRA:                  -9.495
REMARK UNBOUND:                -9.495
REMARK SMILES CC(=O)N[C@@H]1[C@@H](O)C[C@](O)(C(=O)O)O[C@H]1C(O)[C@H](O)CNC(=O)OCc1cn(-c2ccccc2C(N)=O)nn1
REMARK SMILES IDX 21 1 22 2 23 3 20 5 18 6 16 7 15 8 9 9 8 10 14 11 6 12 5 13
REMARK SMILES IDX 10 14 11 16 12 17 13 18 7 20 4 22 2 23 1 25 3 26 17 27 19 29
REMARK SMILES IDX 24 31 25 32 26 33 27 34 39 35 28 36 38 37 29 38 34 39 30 40
REMARK SMILES IDX 33 41 31 42 32 43 35 44 37 45 36 46
REMARK H PARENT 21 4 10 15 13 19 7 21 4 24 17 28 19 30 36 47 36 48
REMARK Flexibility Score: inf
ROOT
ATOM      1  N   UNL     1      33.891  43.606   6.933  1.00  0.00    -0.319 N 
ATOM      2  C   UNL     1      32.853  43.026   7.709  1.00  0.00     0.407 C 
ATOM      3  O   UNL     1      33.079  42.731   8.896  1.00  0.00    -0.225 OA
ATOM      4  H   UNL     1      33.631  43.832   5.930  1.00  0.00     0.167 HD
ENDROOT
BRANCH   1   5
ATOM      5  C   UNL     1      35.219  43.890   7.415  1.00  0.00     0.154 C 
BRANCH   5   6
ATOM      6  C   UNL     1      36.180  42.737   7.184  1.00  0.00     0.165 C 
BRANCH   6   7
ATOM      7  C   UNL     1      36.358  42.439   5.725  1.00  0.00     0.176 C 
BRANCH   7   8
ATOM      8  C   UNL     1      35.880  41.103   5.300  1.00  0.00     0.178 C 
ATOM      9  C   UNL     1      33.959  39.787   5.527  1.00  0.00     0.269 C 
ATOM     10  C   UNL     1      34.691  38.936   4.532  1.00  0.00     0.112 C 
ATOM     11  O   UNL     1      34.561  40.971   5.811  1.00  0.00    -0.332 OA
ATOM     12  C   UNL     1      36.140  38.753   4.830  1.00  0.00     0.145 C 
ATOM     13  C   UNL     1      36.612  39.895   5.723  1.00  0.00     0.142 C 
BRANCH   9  14
ATOM     14  O   UNL     1      33.698  39.018   6.686  1.00  0.00    -0.357 OA
ATOM     15  H   UNL     1      32.756  39.213   6.967  1.00  0.00     0.214 HD
ENDBRANCH   9  14
BRANCH   9  16
ATOM     16  C   UNL     1      32.621  40.083   4.937  1.00  0.00     0.364 C 
ATOM     17  O   UNL     1      32.550  40.981   4.043  1.00  0.00    -0.246 OA
BRANCH  16  18
ATOM     18  O   UNL     1      31.461  39.438   5.305  1.00  0.00    -0.477 OA
ATOM     19  H   UNL     1      31.267  39.223   6.270  1.00  0.00     0.296 HD
ENDBRANCH  16  18
ENDBRANCH   9  16
BRANCH  12  20
ATOM     20  O   UNL     1      36.323  37.523   5.441  1.00  0.00    -0.391 OA
ATOM     21  H   UNL     1      35.661  36.840   5.167  1.00  0.00     0.211 HD
ENDBRANCH  12  20
BRANCH  13  22
ATOM     22  N   UNL     1      38.017  39.946   5.854  1.00  0.00    -0.348 N 
ATOM     23  C   UNL     1      38.660  39.838   7.105  1.00  0.00     0.217 C 
ATOM     24  H   UNL     1      38.629  40.046   5.020  1.00  0.00     0.163 HD
ATOM     25  C   UNL     1      40.124  39.885   7.301  1.00  0.00     0.114 C 
ATOM     26  O   UNL     1      37.942  39.691   8.118  1.00  0.00    -0.275 OA
ENDBRANCH  13  22
ENDBRANCH   7   8
BRANCH   7  27
ATOM     27  O   UNL     1      36.128  43.493   4.872  1.00  0.00    -0.388 OA
ATOM     28  H   UNL     1      36.195  43.183   3.919  1.00  0.00     0.211 HD
ENDBRANCH   7  27
ENDBRANCH   6   7
BRANCH   6  29
ATOM     29  O   UNL     1      35.916  41.663   7.986  1.00  0.00    -0.388 OA
ATOM     30  H   UNL     1      35.748  41.947   8.927  1.00  0.00     0.211 HD
ENDBRANCH   6  29
ENDBRANCH   5   6
ENDBRANCH   1   5
BRANCH   2  31
ATOM     31  O   UNL     1      31.588  42.776   7.191  1.00  0.00    -0.443 OA
BRANCH  31  32
ATOM     32  C   UNL     1      30.471  42.508   8.022  1.00  0.00     0.294 C 
BRANCH  32  33
ATOM     33  C   UNL     1      30.193  41.040   8.057  1.00  0.00     0.121 A 
ATOM     34  C   UNL     1      28.938  40.461   8.042  1.00  0.00     0.144 A 
ATOM     35  N   UNL     1      31.074  40.030   8.109  1.00  0.00    -0.131 NA
ATOM     36  N   UNL     1      29.114  39.106   8.086  1.00  0.00    -0.220 N 
ATOM     37  N   UNL     1      30.395  38.884   8.124  1.00  0.00    -0.062 NA
BRANCH  36  38
ATOM     38  C   UNL     1      28.053  38.143   8.095  1.00  0.00     0.079 A 
ATOM     39  C   UNL     1      27.579  37.568   6.940  1.00  0.00     0.065 A 
ATOM     40  C   UNL     1      27.500  37.795   9.323  1.00  0.00     0.029 A 
ATOM     41  C   UNL     1      26.541  36.635   7.032  1.00  0.00     0.016 A 
ATOM     42  C   UNL     1      26.480  36.878   9.393  1.00  0.00     0.002 A 
ATOM     43  C   UNL     1      26.008  36.305   8.242  1.00  0.00     0.001 A 
BRANCH  39  44
ATOM     44  C   UNL     1      28.113  37.886   5.625  1.00  0.00     0.250 C 
ATOM     45  O   UNL     1      29.254  37.405   5.325  1.00  0.00    -0.269 OA
ATOM     46  N   UNL     1      27.422  38.696   4.685  1.00  0.00    -0.366 N 
ATOM     47  H   UNL     1      26.580  38.370   4.183  1.00  0.00     0.159 HD
ATOM     48  H   UNL     1      27.823  39.667   4.515  1.00  0.00     0.159 HD
ENDBRANCH  39  44
ENDBRANCH  36  38
ENDBRANCH  32  33
ENDBRANCH  31  32
ENDBRANCH   2  31
TORSDOF 16
BEGIN_RES LYS A 135
REMARK  4 active torsions:
REMARK  status: ('A' for Active; 'I' for Inactive)
REMARK    1  A    between atoms: CA   and  CB  
REMARK    2  A    between atoms: CB   and  CG  
REMARK    3  A    between atoms: CG   and  CD  
REMARK    4  A    between atoms: CD   and  CE  
ROOT
ATOM      1  CA  LYS A 135      33.193  34.663   9.290  1.00 25.02     0.186 C 
ENDROOT
BRANCH   1   2
ATOM      2  CB  LYS A 135      32.060  35.360  10.034  1.00 26.63     0.034 C 
BRANCH   2   3
ATOM      3  CG  LYS A 135      30.804  35.510   9.215  1.00 29.45     0.005 C 
BRANCH   3   4
ATOM      4  CD  LYS A 135      30.258  34.149   8.815  1.00 32.00     0.041 C 
BRANCH   4   5
ATOM      5  CE  LYS A 135      28.802  34.019   9.220  1.00 34.25     0.338 C 
ATOM      6  NZ  LYS A 135      28.615  34.345  10.661  1.00 35.99     0.618 N 
ENDBRANCH   4   5
ENDBRANCH   3   4
ENDBRANCH   2   3
ENDBRANCH   1   2
END_RES LYS A 135
BEGIN_RES ARG A 124
REMARK  4 active torsions:
REMARK  status: ('A' for Active; 'I' for Inactive)
REMARK    5  A    between atoms: CA   and  CB  
REMARK    6  A    between atoms: CB   and  CG  
REMARK    7  A    between atoms: CG   and  CD  
REMARK    8  A    between atoms: CD   and  NE  
REMARK       I    between atoms: NE   and  CZ  
ROOT
ATOM      7  CA  ARG A 124      31.045  26.515   9.594  1.00 17.84     0.186 C 
ENDROOT
BRANCH   7   8
ATOM      8  CB  ARG A 124      29.529  26.705   9.647  1.00 16.18     0.036 C 
BRANCH   8   9
ATOM      9  CG  ARG A 124      28.898  26.735  11.085  1.00 16.22     0.029 C 
BRANCH   9  10
ATOM     10  CD  ARG A 124      27.513  26.053  11.147  1.00 15.09     0.145 C 
BRANCH  10  11
ATOM     11  NE  ARG A 124      26.396  26.989  11.402  1.00 16.98    -0.083 NA
ATOM     12  CZ  ARG A 124      26.104  27.521  12.584  1.00 18.21     0.782 C 
ATOM     13  NH1 ARG A 124      26.831  27.249  13.661  1.00 21.11     0.063 N 
ATOM     14  NH2 ARG A 124      25.086  28.359  12.699  1.00 21.25     0.063 N 
ENDBRANCH  10  11
ENDBRANCH   9  10
ENDBRANCH   8   9
ENDBRANCH   7   8
END_RES ARG A 124
BEGIN_RES ASN A 133
REMARK  2 active torsions:
REMARK  status: ('A' for Active; 'I' for Inactive)
REMARK    9  A    between atoms: CA   and  CB  
REMARK   10  A    between atoms: CB   and  CG  
ROOT
ATOM     15  CA  ASN A 133      31.225  30.257  11.749  1.00 18.15     0.196 C 
ENDROOT
BRANCH  15  16
ATOM     16  CB  ASN A 133      30.092  31.240  11.460  1.00 18.27     0.126 C 
BRANCH  16  17
ATOM     17  CG  ASN A 133      28.733  30.618  11.545  1.00 18.94     0.276 C 
ATOM     18  OD1 ASN A 133      28.363  29.777  10.723  1.00 18.09    -0.269 OA
ATOM     19  ND2 ASN A 133      27.964  31.031  12.552  1.00 18.93    -0.107 N 
ENDBRANCH  16  17
ENDBRANCH  15  16
END_RES ASN A 133
BEGIN_RES LYS A 131
REMARK  4 active torsions:
REMARK  status: ('A' for Active; 'I' for Inactive)
REMARK   11  A    between atoms: CA   and  CB  
REMARK   12  A    between atoms: CB   and  CG  
REMARK   13  A    between atoms: CG   and  CD  
REMARK   14  A    between atoms: CD   and  CE  
ROOT
ATOM     20  CA  LYS A 131      29.867  25.555  16.977  1.00 20.52     0.186 C 
ENDROOT
BRANCH  20  21
ATOM     21  CB  LYS A 131      28.345  25.722  17.026  1.00 20.94     0.034 C 
BRANCH  21  22
ATOM     22  CG  LYS A 131      27.600  24.408  16.847  1.00 22.96     0.005 C 
BRANCH  22  23
ATOM     23  CD  LYS A 131      26.550  24.204  17.903  1.00 24.33     0.041 C 
BRANCH  23  24
ATOM     24  CE  LYS A 131      25.742  22.950  17.583  1.00 26.91     0.338 C 
ATOM     25  NZ  LYS A 131      24.365  23.311  17.171  1.00 27.40     0.618 N 
ENDBRANCH  23  24
ENDBRANCH  22  23
ENDBRANCH  21  22
ENDBRANCH  20  21
END_RES LYS A 131
