REMARK VINA RESULT:    -4.540      8.934     13.174
REMARK INTER + INTRA:         -17.617
REMARK INTER:                  -8.986
REMARK INTRA:                  -8.631
REMARK UNBOUND:                -9.495
REMARK SMILES CC(=O)N[C@@H]1[C@@H](O)C[C@](O)(C(=O)O)O[C@H]1C(O)[C@H](O)CNC(=O)OCc1cn(-c2ccccc2C(N)=O)nn1
REMARK SMILES IDX 21 1 22 2 23 3 20 5 18 6 16 7 15 8 9 9 8 10 14 11 6 12 5 13
REMARK SMILES IDX 10 14 11 16 12 17 13 18 7 20 4 22 2 23 1 25 3 26 17 27 19 29
REMARK SMILES IDX 24 31 25 32 26 33 27 34 39 35 28 36 38 37 29 38 34 39 30 40
REMARK SMILES IDX 33 41 31 42 32 43 35 44 37 45 36 46
REMARK H PARENT 21 4 10 15 13 19 7 21 4 24 17 28 19 30 36 47 36 48
REMARK Flexibility Score: inf
ROOT
ATOM      1  N   UNL     1      30.362  33.019  14.461  1.00  0.00    -0.319 N 
ATOM      2  C   UNL     1      29.919  34.272  13.961  1.00  0.00     0.407 C 
ATOM      3  O   UNL     1      30.545  35.301  14.270  1.00  0.00    -0.225 OA
ATOM      4  H   UNL     1      29.784  32.183  14.160  1.00  0.00     0.167 HD
ENDROOT
BRANCH   1   5
ATOM      5  C   UNL     1      31.506  32.833  15.319  1.00  0.00     0.154 C 
BRANCH   5   6
ATOM      6  C   UNL     1      31.147  32.910  16.793  1.00  0.00     0.165 C 
BRANCH   6   7
ATOM      7  C   UNL     1      30.407  31.690  17.253  1.00  0.00     0.176 C 
BRANCH   7   8
ATOM      8  C   UNL     1      30.378  31.498  18.722  1.00  0.00     0.178 C 
ATOM      9  C   UNL     1      30.595  29.743  20.254  1.00  0.00     0.269 C 
ATOM     10  C   UNL     1      30.598  30.885  21.227  1.00  0.00     0.112 C 
ATOM     11  O   UNL     1      30.600  30.113  18.947  1.00  0.00    -0.332 OA
ATOM     12  C   UNL     1      29.569  31.927  20.952  1.00  0.00     0.145 C 
ATOM     13  C   UNL     1      29.166  31.853  19.483  1.00  0.00     0.142 C 
BRANCH   9  14
ATOM     14  O   UNL     1      29.525  28.873  20.568  1.00  0.00    -0.357 OA
ATOM     15  H   UNL     1      28.918  29.361  21.198  1.00  0.00     0.214 HD
ENDBRANCH   9  14
BRANCH   9  16
ATOM     16  C   UNL     1      31.836  28.956  20.512  1.00  0.00     0.364 C 
ATOM     17  O   UNL     1      32.681  29.429  21.333  1.00  0.00    -0.246 OA
BRANCH  16  18
ATOM     18  O   UNL     1      32.116  27.748  19.912  1.00  0.00    -0.477 OA
ATOM     19  H   UNL     1      31.551  27.398  19.155  1.00  0.00     0.296 HD
ENDBRANCH  16  18
ENDBRANCH   9  16
BRANCH  12  20
ATOM     20  O   UNL     1      28.482  31.720  21.786  1.00  0.00    -0.391 OA
ATOM     21  H   UNL     1      28.373  32.420  22.477  1.00  0.00     0.211 HD
ENDBRANCH  12  20
BRANCH  13  22
ATOM     22  N   UNL     1      28.386  32.955  19.070  1.00  0.00    -0.348 N 
ATOM     23  C   UNL     1      26.977  32.901  19.015  1.00  0.00     0.217 C 
ATOM     24  H   UNL     1      28.831  33.858  18.810  1.00  0.00     0.163 HD
ATOM     25  C   UNL     1      26.112  34.022  18.591  1.00  0.00     0.114 C 
ATOM     26  O   UNL     1      26.422  31.832  19.349  1.00  0.00    -0.275 OA
ENDBRANCH  13  22
ENDBRANCH   7   8
BRANCH   7  27
ATOM     27  O   UNL     1      29.261  31.392  16.554  1.00  0.00    -0.388 OA
ATOM     28  H   UNL     1      28.472  31.844  16.982  1.00  0.00     0.211 HD
ENDBRANCH   7  27
ENDBRANCH   6   7
BRANCH   6  29
ATOM     29  O   UNL     1      30.594  34.111  17.136  1.00  0.00    -0.388 OA
ATOM     30  H   UNL     1      31.294  34.767  17.407  1.00  0.00     0.211 HD
ENDBRANCH   6  29
ENDBRANCH   5   6
ENDBRANCH   1   5
BRANCH   2  31
ATOM     31  O   UNL     1      28.808  34.391  13.135  1.00  0.00    -0.443 OA
BRANCH  31  32
ATOM     32  C   UNL     1      27.525  34.720  13.638  1.00  0.00     0.294 C 
BRANCH  32  33
ATOM     33  C   UNL     1      26.879  33.514  14.238  1.00  0.00     0.121 A 
ATOM     34  C   UNL     1      25.851  32.787  13.667  1.00  0.00     0.144 A 
ATOM     35  N   UNL     1      27.158  32.919  15.407  1.00  0.00    -0.131 NA
ATOM     36  N   UNL     1      25.547  31.767  14.525  1.00  0.00    -0.220 N 
ATOM     37  N   UNL     1      26.342  31.874  15.549  1.00  0.00    -0.062 NA
BRANCH  36  38
ATOM     38  C   UNL     1      24.525  30.789  14.304  1.00  0.00     0.079 A 
ATOM     39  C   UNL     1      23.908  30.129  15.341  1.00  0.00     0.065 A 
ATOM     40  C   UNL     1      24.161  30.513  12.990  1.00  0.00     0.029 A 
ATOM     41  C   UNL     1      22.919  29.187  15.043  1.00  0.00     0.016 A 
ATOM     42  C   UNL     1      23.187  29.583  12.717  1.00  0.00     0.002 A 
ATOM     43  C   UNL     1      22.574  28.926  13.751  1.00  0.00     0.001 A 
BRANCH  39  44
ATOM     44  C   UNL     1      24.240  30.371  16.737  1.00  0.00     0.250 C 
ATOM     45  O   UNL     1      24.921  29.479  17.339  1.00  0.00    -0.269 OA
ATOM     46  N   UNL     1      23.841  31.543  17.434  1.00  0.00    -0.366 N 
ATOM     47  H   UNL     1      24.259  32.469  17.250  1.00  0.00     0.159 HD
ATOM     48  H   UNL     1      23.084  31.417  18.172  1.00  0.00     0.159 HD
ENDBRANCH  39  44
ENDBRANCH  36  38
ENDBRANCH  32  33
ENDBRANCH  31  32
ENDBRANCH   2  31
TORSDOF 16
BEGIN_RES LYS A 135
REMARK  4 active torsions:
REMARK  status: ('A' for Active; 'I' for Inactive)
REMARK    1  A    between atoms: CA   and  CB  
REMARK    2  A    between atoms: CB   and  CG  
REMARK    3  A    between atoms: CG   and  CD  
REMARK    4  A    between atoms: CD   and  CE  
ROOT
ATOM      1  CA  LYS A 135      33.193  34.663   9.290  1.00 25.02     0.186 C 
ENDROOT
BRANCH   1   2
ATOM      2  CB  LYS A 135      32.060  35.360  10.034  1.00 26.63     0.034 C 
BRANCH   2   3
ATOM      3  CG  LYS A 135      30.803  35.508   9.216  1.00 29.45     0.005 C 
BRANCH   3   4
ATOM      4  CD  LYS A 135      30.135  34.158   9.009  1.00 32.00     0.041 C 
BRANCH   4   5
ATOM      5  CE  LYS A 135      28.663  34.335   8.688  1.00 34.25     0.338 C 
ATOM      6  NZ  LYS A 135      27.807  33.675   9.712  1.00 35.99     0.618 N 
ENDBRANCH   4   5
ENDBRANCH   3   4
ENDBRANCH   2   3
ENDBRANCH   1   2
END_RES LYS A 135
BEGIN_RES ARG A 124
REMARK  4 active torsions:
REMARK  status: ('A' for Active; 'I' for Inactive)
REMARK    5  A    between atoms: CA   and  CB  
REMARK    6  A    between atoms: CB   and  CG  
REMARK    7  A    between atoms: CG   and  CD  
REMARK    8  A    between atoms: CD   and  NE  
REMARK       I    between atoms: NE   and  CZ  
ROOT
ATOM      7  CA  ARG A 124      31.045  26.515   9.594  1.00 17.84     0.186 C 
ENDROOT
BRANCH   7   8
ATOM      8  CB  ARG A 124      29.529  26.705   9.647  1.00 16.18     0.036 C 
BRANCH   8   9
ATOM      9  CG  ARG A 124      28.994  27.565  10.847  1.00 16.22     0.029 C 
BRANCH   9  10
ATOM     10  CD  ARG A 124      28.456  26.702  12.011  1.00 15.09     0.145 C 
BRANCH  10  11
ATOM     11  NE  ARG A 124      28.313  27.439  13.286  1.00 16.98    -0.083 NA
ATOM     12  CZ  ARG A 124      27.155  27.749  13.859  1.00 18.21     0.782 C 
ATOM     13  NH1 ARG A 124      25.998  27.394  13.313  1.00 21.11     0.063 N 
ATOM     14  NH2 ARG A 124      27.142  28.404  15.010  1.00 21.25     0.063 N 
ENDBRANCH  10  11
ENDBRANCH   9  10
ENDBRANCH   8   9
ENDBRANCH   7   8
END_RES ARG A 124
BEGIN_RES ASN A 133
REMARK  2 active torsions:
REMARK  status: ('A' for Active; 'I' for Inactive)
REMARK    9  A    between atoms: CA   and  CB  
REMARK   10  A    between atoms: CB   and  CG  
ROOT
ATOM     15  CA  ASN A 133      31.225  30.257  11.749  1.00 18.15     0.196 C 
ENDROOT
BRANCH  15  16
ATOM     16  CB  ASN A 133      30.092  31.240  11.460  1.00 18.27     0.126 C 
BRANCH  16  17
ATOM     17  CG  ASN A 133      28.832  30.926  12.205  1.00 18.94     0.276 C 
ATOM     18  OD1 ASN A 133      28.807  30.901  13.437  1.00 18.09    -0.269 OA
ATOM     19  ND2 ASN A 133      27.758  30.677  11.455  1.00 18.93    -0.107 N 
ENDBRANCH  16  17
ENDBRANCH  15  16
END_RES ASN A 133
BEGIN_RES LYS A 131
REMARK  4 active torsions:
REMARK  status: ('A' for Active; 'I' for Inactive)
REMARK   11  A    between atoms: CA   and  CB  
REMARK   12  A    between atoms: CB   and  CG  
REMARK   13  A    between atoms: CG   and  CD  
REMARK   14  A    between atoms: CD   and  CE  
ROOT
ATOM     20  CA  LYS A 131      29.867  25.555  16.977  1.00 20.52     0.186 C 
ENDROOT
BRANCH  20  21
ATOM     21  CB  LYS A 131      28.345  25.722  17.026  1.00 20.94     0.034 C 
BRANCH  21  22
ATOM     22  CG  LYS A 131      27.600  24.409  16.842  1.00 22.96     0.005 C 
BRANCH  22  23
ATOM     23  CD  LYS A 131      26.159  24.512  17.257  1.00 24.33     0.041 C 
BRANCH  23  24
ATOM     24  CE  LYS A 131      25.724  25.974  17.228  1.00 26.91     0.338 C 
ATOM     25  NZ  LYS A 131      24.579  26.157  16.306  1.00 27.40     0.618 N 
ENDBRANCH  23  24
ENDBRANCH  22  23
ENDBRANCH  21  22
ENDBRANCH  20  21
END_RES LYS A 131
