REMARK VINA RESULT:    -6.738      3.101      8.714
REMARK INTER + INTRA:         -20.441
REMARK INTER:                  -9.394
REMARK INTRA:                 -11.047
REMARK UNBOUND:                -7.795
REMARK SMILES CC(=O)N[C@@H]1[C@@H](O)C[C@](O)(C(=O)O)O[C@H]1C(O)[C@H](O)CNC(=O)OCc1cn(-c2ccc(-c3c4ccc(=O)cc-4oc4cc(O)ccc34)c(C(=O)[O-])c2)nn1
REMARK SMILES IDX 21 1 22 2 23 3 20 5 18 6 16 7 15 8 9 9 8 10 14 11 6 12 5 13
REMARK SMILES IDX 10 14 11 16 12 17 13 18 7 20 4 22 2 23 1 25 3 26 17 27 19 29
REMARK SMILES IDX 24 31 25 32 26 33 27 34 55 35 28 36 54 37 29 38 53 39 30 40
REMARK SMILES IDX 49 41 31 42 32 43 50 44 51 45 52 46 33 47 48 48 34 49 47 50
REMARK SMILES IDX 42 51 40 52 35 53 46 54 43 55 41 56 39 57 36 58 44 59 37 60
REMARK SMILES IDX 38 61 45 62
REMARK H PARENT 21 4 10 15 13 19 7 21 4 24 17 28 19 30 45 63
REMARK Flexibility Score: inf
ROOT
ATOM      1  N   UNL     1      25.247  33.867  14.114  1.00  0.00    -0.319 N 
ATOM      2  C   UNL     1      24.518  32.673  14.010  1.00  0.00     0.407 C 
ATOM      3  O   UNL     1      24.489  32.044  12.946  1.00  0.00    -0.225 OA
ATOM      4  H   UNL     1      25.214  34.333  15.077  1.00  0.00     0.167 HD
ENDROOT
BRANCH   1   5
ATOM      5  C   UNL     1      26.012  34.505  13.079  1.00  0.00     0.154 C 
BRANCH   5   6
ATOM      6  C   UNL     1      27.490  34.435  13.217  1.00  0.00     0.165 C 
BRANCH   6   7
ATOM      7  C   UNL     1      28.130  35.561  13.963  1.00  0.00     0.176 C 
BRANCH   7   8
ATOM      8  C   UNL     1      29.409  35.149  14.655  1.00  0.00     0.178 C 
ATOM      9  C   UNL     1      31.671  34.983  14.436  1.00  0.00     0.269 C 
ATOM     10  C   UNL     1      31.641  33.943  15.564  1.00  0.00     0.112 C 
ATOM     11  O   UNL     1      30.461  35.101  13.781  1.00  0.00    -0.332 OA
ATOM     12  C   UNL     1      30.460  33.031  15.238  1.00  0.00     0.145 C 
ATOM     13  C   UNL     1      29.185  33.821  15.403  1.00  0.00     0.142 C 
BRANCH   9  14
ATOM     14  O   UNL     1      32.580  34.539  13.437  1.00  0.00    -0.357 OA
ATOM     15  H   UNL     1      32.463  35.116  12.636  1.00  0.00     0.214 HD
ENDBRANCH   9  14
BRANCH   9  16
ATOM     16  C   UNL     1      32.205  36.261  14.951  1.00  0.00     0.364 C 
ATOM     17  O   UNL     1      32.767  36.301  16.061  1.00  0.00    -0.246 OA
BRANCH  16  18
ATOM     18  O   UNL     1      32.124  37.469  14.263  1.00  0.00    -0.477 OA
ATOM     19  H   UNL     1      32.763  38.232  14.464  1.00  0.00     0.296 HD
ENDBRANCH  16  18
ENDBRANCH   9  16
BRANCH  12  20
ATOM     20  O   UNL     1      30.573  32.711  13.885  1.00  0.00    -0.391 OA
ATOM     21  H   UNL     1      31.500  32.761  13.560  1.00  0.00     0.211 HD
ENDBRANCH  12  20
BRANCH  13  22
ATOM     22  N   UNL     1      28.888  34.143  16.761  1.00  0.00    -0.348 N 
ATOM     23  C   UNL     1      27.589  34.113  17.343  1.00  0.00     0.217 C 
ATOM     24  H   UNL     1      29.705  34.426  17.372  1.00  0.00     0.163 HD
ATOM     25  C   UNL     1      27.450  34.475  18.760  1.00  0.00     0.114 C 
ATOM     26  O   UNL     1      26.635  33.777  16.602  1.00  0.00    -0.275 OA
ENDBRANCH  13  22
ENDBRANCH   7   8
BRANCH   7  27
ATOM     27  O   UNL     1      27.297  36.144  14.907  1.00  0.00    -0.388 OA
ATOM     28  H   UNL     1      27.562  35.793  15.798  1.00  0.00     0.211 HD
ENDBRANCH   7  27
ENDBRANCH   6   7
BRANCH   6  29
ATOM     29  O   UNL     1      28.143  34.244  11.982  1.00  0.00    -0.388 OA
ATOM     30  H   UNL     1      29.104  34.436  12.089  1.00  0.00     0.211 HD
ENDBRANCH   6  29
ENDBRANCH   5   6
ENDBRANCH   1   5
BRANCH   2  31
ATOM     31  O   UNL     1      23.797  32.140  15.084  1.00  0.00    -0.443 OA
BRANCH  31  32
ATOM     32  C   UNL     1      23.551  30.743  15.181  1.00  0.00     0.294 C 
BRANCH  32  33
ATOM     33  C   UNL     1      24.660  30.162  15.982  1.00  0.00     0.121 A 
ATOM     34  C   UNL     1      25.639  30.893  16.624  1.00  0.00     0.144 A 
ATOM     35  N   UNL     1      24.951  28.879  16.250  1.00  0.00    -0.131 NA
ATOM     36  N   UNL     1      26.467  30.030  17.243  1.00  0.00    -0.220 N 
ATOM     37  N   UNL     1      26.034  28.801  17.005  1.00  0.00    -0.062 NA
BRANCH  36  38
ATOM     38  C   UNL     1      27.605  30.428  18.009  1.00  0.00     0.067 A 
ATOM     39  C   UNL     1      27.528  30.753  19.346  1.00  0.00     0.039 A 
ATOM     40  C   UNL     1      28.860  30.502  17.421  1.00  0.00     0.029 A 
ATOM     41  C   UNL     1      28.650  31.138  20.076  1.00  0.00     0.007 A 
ATOM     42  C   UNL     1      29.974  30.883  18.141  1.00  0.00     0.012 A 
ATOM     43  C   UNL     1      29.889  31.205  19.477  1.00  0.00    -0.008 A 
BRANCH  41  44
ATOM     44  C   UNL     1      28.534  31.475  21.489  1.00  0.00     0.072 C 
ATOM     45  O   UNL     1      28.366  32.657  21.860  1.00  0.00    -0.545 OA
ATOM     46  O   UNL     1      28.614  30.454  22.421  1.00  0.00    -0.545 OA
ENDBRANCH  41  44
BRANCH  43  47
ATOM     47  C   UNL     1      31.048  31.607  20.260  1.00  0.00     0.004 A 
ATOM     48  C   UNL     1      31.796  30.682  20.967  1.00  0.00     0.026 A 
ATOM     49  C   UNL     1      31.467  32.923  20.345  1.00  0.00     0.026 A 
ATOM     50  C   UNL     1      31.455  29.339  20.944  1.00  0.00     0.016 A 
ATOM     51  C   UNL     1      32.898  31.098  21.705  1.00  0.00     0.139 A 
ATOM     52  C   UNL     1      32.633  33.309  21.135  1.00  0.00     0.139 A 
ATOM     53  C   UNL     1      30.762  33.890  19.661  1.00  0.00     0.016 A 
ATOM     54  C   UNL     1      32.195  28.405  21.647  1.00  0.00     0.047 A 
ATOM     55  C   UNL     1      33.636  30.167  22.405  1.00  0.00     0.093 A 
ATOM     56  O   UNL     1      33.276  32.363  21.769  1.00  0.00    -0.456 OA
ATOM     57  C   UNL     1      33.046  34.616  21.216  1.00  0.00     0.099 A 
ATOM     58  C   UNL     1      31.201  35.198  19.761  1.00  0.00     0.053 A 
ATOM     59  C   UNL     1      33.284  28.830  22.374  1.00  0.00     0.119 A 
ATOM     60  C   UNL     1      32.316  35.554  20.521  1.00  0.00     0.182 A 
ATOM     61  O   UNL     1      32.602  36.777  20.522  1.00  0.00    -0.290 OA
BRANCH  59  62
ATOM     62  O   UNL     1      34.050  27.914  23.093  1.00  0.00    -0.508 OA
ATOM     63  H   UNL     1      33.670  27.087  23.490  1.00  0.00     0.293 HD
ENDBRANCH  59  62
ENDBRANCH  43  47
ENDBRANCH  36  38
ENDBRANCH  32  33
ENDBRANCH  31  32
ENDBRANCH   2  31
TORSDOF 18
BEGIN_RES LYS A 135
REMARK  4 active torsions:
REMARK  status: ('A' for Active; 'I' for Inactive)
REMARK    1  A    between atoms: CA   and  CB  
REMARK    2  A    between atoms: CB   and  CG  
REMARK    3  A    between atoms: CG   and  CD  
REMARK    4  A    between atoms: CD   and  CE  
ROOT
ATOM      1  CA  LYS A 135      33.193  34.663   9.290  1.00 25.02     0.186 C 
ENDROOT
BRANCH   1   2
ATOM      2  CB  LYS A 135      32.060  35.360  10.034  1.00 26.63     0.034 C 
BRANCH   2   3
ATOM      3  CG  LYS A 135      30.694  34.823   9.691  1.00 29.45     0.005 C 
BRANCH   3   4
ATOM      4  CD  LYS A 135      30.587  34.542   8.201  1.00 32.00     0.041 C 
BRANCH   4   5
ATOM      5  CE  LYS A 135      29.237  34.988   7.671  1.00 34.25     0.338 C 
ATOM      6  NZ  LYS A 135      28.133  34.522   8.554  1.00 35.99     0.618 N 
ENDBRANCH   4   5
ENDBRANCH   3   4
ENDBRANCH   2   3
ENDBRANCH   1   2
END_RES LYS A 135
BEGIN_RES ARG A 124
REMARK  4 active torsions:
REMARK  status: ('A' for Active; 'I' for Inactive)
REMARK    5  A    between atoms: CA   and  CB  
REMARK    6  A    between atoms: CB   and  CG  
REMARK    7  A    between atoms: CG   and  CD  
REMARK    8  A    between atoms: CD   and  NE  
REMARK       I    between atoms: NE   and  CZ  
ROOT
ATOM      7  CA  ARG A 124      31.045  26.515   9.594  1.00 17.84     0.186 C 
ENDROOT
BRANCH   7   8
ATOM      8  CB  ARG A 124      29.529  26.705   9.647  1.00 16.18     0.036 C 
BRANCH   8   9
ATOM      9  CG  ARG A 124      28.902  26.763  11.086  1.00 16.22     0.029 C 
BRANCH   9  10
ATOM     10  CD  ARG A 124      27.499  26.119  11.155  1.00 15.09     0.145 C 
BRANCH  10  11
ATOM     11  NE  ARG A 124      26.410  27.084  11.421  1.00 16.98    -0.083 NA
ATOM     12  CZ  ARG A 124      26.089  27.556  12.621  1.00 18.21     0.782 C 
ATOM     13  NH1 ARG A 124      26.757  27.191  13.708  1.00 21.11     0.063 N 
ATOM     14  NH2 ARG A 124      25.100  28.428  12.745  1.00 21.25     0.063 N 
ENDBRANCH  10  11
ENDBRANCH   9  10
ENDBRANCH   8   9
ENDBRANCH   7   8
END_RES ARG A 124
BEGIN_RES ASN A 133
REMARK  2 active torsions:
REMARK  status: ('A' for Active; 'I' for Inactive)
REMARK    9  A    between atoms: CA   and  CB  
REMARK   10  A    between atoms: CB   and  CG  
ROOT
ATOM     15  CA  ASN A 133      31.225  30.257  11.749  1.00 18.15     0.196 C 
ENDROOT
BRANCH  15  16
ATOM     16  CB  ASN A 133      30.092  31.240  11.460  1.00 18.27     0.126 C 
BRANCH  16  17
ATOM     17  CG  ASN A 133      28.738  30.600  11.464  1.00 18.94     0.276 C 
ATOM     18  OD1 ASN A 133      28.385  29.847  10.554  1.00 18.09    -0.269 OA
ATOM     19  ND2 ASN A 133      27.956  30.898  12.500  1.00 18.93    -0.107 N 
ENDBRANCH  16  17
ENDBRANCH  15  16
END_RES ASN A 133
BEGIN_RES LYS A 131
REMARK  4 active torsions:
REMARK  status: ('A' for Active; 'I' for Inactive)
REMARK   11  A    between atoms: CA   and  CB  
REMARK   12  A    between atoms: CB   and  CG  
REMARK   13  A    between atoms: CG   and  CD  
REMARK   14  A    between atoms: CD   and  CE  
ROOT
ATOM     20  CA  LYS A 131      29.867  25.555  16.977  1.00 20.52     0.186 C 
ENDROOT
BRANCH  20  21
ATOM     21  CB  LYS A 131      28.345  25.722  17.026  1.00 20.94     0.034 C 
BRANCH  21  22
ATOM     22  CG  LYS A 131      27.601  24.406  16.857  1.00 22.96     0.005 C 
BRANCH  22  23
ATOM     23  CD  LYS A 131      26.714  24.103  18.033  1.00 24.33     0.041 C 
BRANCH  23  24
ATOM     24  CE  LYS A 131      25.560  23.212  17.584  1.00 26.91     0.338 C 
ATOM     25  NZ  LYS A 131      24.916  22.567  18.753  1.00 27.40     0.618 N 
ENDBRANCH  23  24
ENDBRANCH  22  23
ENDBRANCH  21  22
ENDBRANCH  20  21
END_RES LYS A 131
