REMARK VINA RESULT:    -7.016      2.561      9.243
REMARK INTER + INTRA:         -20.963
REMARK INTER:                 -13.303
REMARK INTRA:                  -7.660
REMARK UNBOUND:                -7.795
REMARK SMILES CC(=O)N[C@@H]1[C@@H](O)C[C@](O)(C(=O)O)O[C@H]1C(O)[C@H](O)CNC(=O)OCc1cn(-c2ccc(-c3c4ccc(=O)cc-4oc4cc(O)ccc34)c(C(=O)[O-])c2)nn1
REMARK SMILES IDX 21 1 22 2 23 3 20 5 18 6 16 7 15 8 9 9 8 10 14 11 6 12 5 13
REMARK SMILES IDX 10 14 11 16 12 17 13 18 7 20 4 22 2 23 1 25 3 26 17 27 19 29
REMARK SMILES IDX 24 31 25 32 26 33 27 34 55 35 28 36 54 37 29 38 53 39 30 40
REMARK SMILES IDX 49 41 31 42 32 43 50 44 51 45 52 46 33 47 48 48 34 49 47 50
REMARK SMILES IDX 42 51 40 52 35 53 46 54 43 55 41 56 39 57 36 58 44 59 37 60
REMARK SMILES IDX 38 61 45 62
REMARK H PARENT 21 4 10 15 13 19 7 21 4 24 17 28 19 30 45 63
REMARK Flexibility Score: inf
ROOT
ATOM      1  N   UNL     1      25.276  37.679   7.165  1.00  0.00    -0.319 N 
ATOM      2  C   UNL     1      26.601  38.098   7.351  1.00  0.00     0.407 C 
ATOM      3  O   UNL     1      26.867  39.008   8.143  1.00  0.00    -0.225 OA
ATOM      4  H   UNL     1      25.149  36.881   6.462  1.00  0.00     0.167 HD
ENDROOT
BRANCH   1   5
ATOM      5  C   UNL     1      24.104  38.205   7.809  1.00  0.00     0.154 C 
BRANCH   5   6
ATOM      6  C   UNL     1      22.901  37.331   7.800  1.00  0.00     0.165 C 
BRANCH   6   7
ATOM      7  C   UNL     1      22.995  36.083   8.616  1.00  0.00     0.176 C 
BRANCH   7   8
ATOM      8  C   UNL     1      21.668  35.676   9.214  1.00  0.00     0.178 C 
ATOM      9  C   UNL     1      19.405  35.846   9.005  1.00  0.00     0.269 C 
ATOM     10  C   UNL     1      19.304  35.484  10.493  1.00  0.00     0.112 C 
ATOM     11  O   UNL     1      20.631  36.381   8.664  1.00  0.00    -0.332 OA
ATOM     12  C   UNL     1      20.385  36.314  11.183  1.00  0.00     0.145 C 
ATOM     13  C   UNL     1      21.735  35.799  10.748  1.00  0.00     0.142 C 
BRANCH   9  14
ATOM     14  O   UNL     1      18.470  36.880   8.728  1.00  0.00    -0.357 OA
ATOM     15  H   UNL     1      18.914  37.547   8.140  1.00  0.00     0.214 HD
ENDBRANCH   9  14
BRANCH   9  16
ATOM     16  C   UNL     1      19.004  34.686   8.183  1.00  0.00     0.364 C 
ATOM     17  O   UNL     1      18.372  33.745   8.698  1.00  0.00    -0.246 OA
BRANCH  16  18
ATOM     18  O   UNL     1      19.288  34.562   6.826  1.00  0.00    -0.477 OA
ATOM     19  H   UNL     1      20.213  34.770   6.461  1.00  0.00     0.296 HD
ENDBRANCH  16  18
ENDBRANCH   9  16
BRANCH  12  20
ATOM     20  O   UNL     1      20.260  37.611  10.686  1.00  0.00    -0.391 OA
ATOM     21  H   UNL     1      20.059  38.269  11.388  1.00  0.00     0.211 HD
ENDBRANCH  12  20
BRANCH  13  22
ATOM     22  N   UNL     1      22.043  34.505  11.264  1.00  0.00    -0.348 N 
ATOM     23  C   UNL     1      23.039  34.232  12.245  1.00  0.00     0.217 C 
ATOM     24  H   UNL     1      21.481  33.694  10.880  1.00  0.00     0.163 HD
ATOM     25  C   UNL     1      23.234  32.840  12.673  1.00  0.00     0.114 C 
ATOM     26  O   UNL     1      23.693  35.206  12.686  1.00  0.00    -0.275 OA
ENDBRANCH  13  22
ENDBRANCH   7   8
BRANCH   7  27
ATOM     27  O   UNL     1      23.925  36.161   9.642  1.00  0.00    -0.388 OA
ATOM     28  H   UNL     1      23.448  36.472  10.456  1.00  0.00     0.211 HD
ENDBRANCH   7  27
ENDBRANCH   6   7
BRANCH   6  29
ATOM     29  O   UNL     1      22.464  37.021   6.495  1.00  0.00    -0.388 OA
ATOM     30  H   UNL     1      22.840  37.678   5.862  1.00  0.00     0.211 HD
ENDBRANCH   6  29
ENDBRANCH   5   6
ENDBRANCH   1   5
BRANCH   2  31
ATOM     31  O   UNL     1      27.672  37.520   6.663  1.00  0.00    -0.443 OA
BRANCH  31  32
ATOM     32  C   UNL     1      27.780  36.109   6.526  1.00  0.00     0.294 C 
BRANCH  32  33
ATOM     33  C   UNL     1      27.520  35.521   7.865  1.00  0.00     0.121 A 
ATOM     34  C   UNL     1      28.411  35.528   8.919  1.00  0.00     0.144 A 
ATOM     35  N   UNL     1      26.431  34.889   8.334  1.00  0.00    -0.131 NA
ATOM     36  N   UNL     1      27.830  34.906   9.963  1.00  0.00    -0.220 N 
ATOM     37  N   UNL     1      26.619  34.521   9.590  1.00  0.00    -0.062 NA
BRANCH  36  38
ATOM     38  C   UNL     1      28.461  34.721  11.231  1.00  0.00     0.067 A 
ATOM     39  C   UNL     1      27.957  35.251  12.399  1.00  0.00     0.039 A 
ATOM     40  C   UNL     1      29.631  33.982  11.335  1.00  0.00     0.029 A 
ATOM     41  C   UNL     1      28.587  35.057  13.627  1.00  0.00     0.007 A 
ATOM     42  C   UNL     1      30.257  33.787  12.549  1.00  0.00     0.012 A 
ATOM     43  C   UNL     1      29.747  34.319  13.712  1.00  0.00    -0.008 A 
BRANCH  41  44
ATOM     44  C   UNL     1      28.028  35.631  14.844  1.00  0.00     0.072 C 
ATOM     45  O   UNL     1      28.367  36.768  15.237  1.00  0.00    -0.545 OA
ATOM     46  O   UNL     1      27.107  34.887  15.563  1.00  0.00    -0.545 OA
ENDBRANCH  41  44
BRANCH  43  47
ATOM     47  C   UNL     1      30.387  34.128  15.006  1.00  0.00     0.004 A 
ATOM     48  C   UNL     1      30.063  33.055  15.818  1.00  0.00     0.026 A 
ATOM     49  C   UNL     1      31.345  34.997  15.497  1.00  0.00     0.026 A 
ATOM     50  C   UNL     1      29.114  32.130  15.413  1.00  0.00     0.016 A 
ATOM     51  C   UNL     1      30.692  32.900  17.048  1.00  0.00     0.139 A 
ATOM     52  C   UNL     1      31.977  34.789  16.797  1.00  0.00     0.139 A 
ATOM     53  C   UNL     1      31.710  36.084  14.732  1.00  0.00     0.016 A 
ATOM     54  C   UNL     1      28.782  31.054  16.217  1.00  0.00     0.047 A 
ATOM     55  C   UNL     1      30.361  31.828  17.848  1.00  0.00     0.093 A 
ATOM     56  O   UNL     1      31.605  33.747  17.492  1.00  0.00    -0.456 OA
ATOM     57  C   UNL     1      32.929  35.654  17.280  1.00  0.00     0.099 A 
ATOM     58  C   UNL     1      32.670  36.938  15.244  1.00  0.00     0.053 A 
ATOM     59  C   UNL     1      29.412  30.912  17.432  1.00  0.00     0.119 A 
ATOM     60  C   UNL     1      33.266  36.728  16.489  1.00  0.00     0.182 A 
ATOM     61  O   UNL     1      34.122  37.582  16.828  1.00  0.00    -0.290 OA
BRANCH  59  62
ATOM     62  O   UNL     1      29.099  29.839  18.265  1.00  0.00    -0.508 OA
ATOM     63  H   UNL     1      28.812  28.954  17.920  1.00  0.00     0.293 HD
ENDBRANCH  59  62
ENDBRANCH  43  47
ENDBRANCH  36  38
ENDBRANCH  32  33
ENDBRANCH  31  32
ENDBRANCH   2  31
TORSDOF 18
BEGIN_RES LYS A 135
REMARK  4 active torsions:
REMARK  status: ('A' for Active; 'I' for Inactive)
REMARK    1  A    between atoms: CA   and  CB  
REMARK    2  A    between atoms: CB   and  CG  
REMARK    3  A    between atoms: CG   and  CD  
REMARK    4  A    between atoms: CD   and  CE  
ROOT
ATOM      1  CA  LYS A 135      33.193  34.663   9.290  1.00 25.02     0.186 C 
ENDROOT
BRANCH   1   2
ATOM      2  CB  LYS A 135      32.060  35.360  10.034  1.00 26.63     0.034 C 
BRANCH   2   3
ATOM      3  CG  LYS A 135      32.527  36.194  11.199  1.00 29.45     0.005 C 
BRANCH   3   4
ATOM      4  CD  LYS A 135      31.617  37.395  11.399  1.00 32.00     0.041 C 
BRANCH   4   5
ATOM      5  CE  LYS A 135      31.266  38.025  10.064  1.00 34.25     0.338 C 
ATOM      6  NZ  LYS A 135      29.890  38.595  10.085  1.00 35.99     0.618 N 
ENDBRANCH   4   5
ENDBRANCH   3   4
ENDBRANCH   2   3
ENDBRANCH   1   2
END_RES LYS A 135
BEGIN_RES ARG A 124
REMARK  4 active torsions:
REMARK  status: ('A' for Active; 'I' for Inactive)
REMARK    5  A    between atoms: CA   and  CB  
REMARK    6  A    between atoms: CB   and  CG  
REMARK    7  A    between atoms: CG   and  CD  
REMARK    8  A    between atoms: CD   and  NE  
REMARK       I    between atoms: NE   and  CZ  
ROOT
ATOM      7  CA  ARG A 124      31.045  26.515   9.594  1.00 17.84     0.186 C 
ENDROOT
BRANCH   7   8
ATOM      8  CB  ARG A 124      29.529  26.705   9.647  1.00 16.18     0.036 C 
BRANCH   8   9
ATOM      9  CG  ARG A 124      28.780  25.880  10.754  1.00 16.22     0.029 C 
BRANCH   9  10
ATOM     10  CD  ARG A 124      28.619  26.661  12.078  1.00 15.09     0.145 C 
BRANCH  10  11
ATOM     11  NE  ARG A 124      27.219  27.014  12.399  1.00 16.98    -0.083 NA
ATOM     12  CZ  ARG A 124      26.832  27.687  13.477  1.00 18.21     0.782 C 
ATOM     13  NH1 ARG A 124      27.712  28.117  14.374  1.00 21.11     0.063 N 
ATOM     14  NH2 ARG A 124      25.550  27.960  13.661  1.00 21.25     0.063 N 
ENDBRANCH  10  11
ENDBRANCH   9  10
ENDBRANCH   8   9
ENDBRANCH   7   8
END_RES ARG A 124
BEGIN_RES ASN A 133
REMARK  2 active torsions:
REMARK  status: ('A' for Active; 'I' for Inactive)
REMARK    9  A    between atoms: CA   and  CB  
REMARK   10  A    between atoms: CB   and  CG  
ROOT
ATOM     15  CA  ASN A 133      31.225  30.257  11.749  1.00 18.15     0.196 C 
ENDROOT
BRANCH  15  16
ATOM     16  CB  ASN A 133      30.092  31.240  11.460  1.00 18.27     0.126 C 
BRANCH  16  17
ATOM     17  CG  ASN A 133      28.744  30.591  11.409  1.00 18.94     0.276 C 
ATOM     18  OD1 ASN A 133      28.484  29.724  10.572  1.00 18.09    -0.269 OA
ATOM     19  ND2 ASN A 133      27.861  31.009  12.315  1.00 18.93    -0.107 N 
ENDBRANCH  16  17
ENDBRANCH  15  16
END_RES ASN A 133
BEGIN_RES LYS A 131
REMARK  4 active torsions:
REMARK  status: ('A' for Active; 'I' for Inactive)
REMARK   11  A    between atoms: CA   and  CB  
REMARK   12  A    between atoms: CB   and  CG  
REMARK   13  A    between atoms: CG   and  CD  
REMARK   14  A    between atoms: CD   and  CE  
ROOT
ATOM     20  CA  LYS A 131      29.867  25.555  16.977  1.00 20.52     0.186 C 
ENDROOT
BRANCH  20  21
ATOM     21  CB  LYS A 131      28.345  25.722  17.026  1.00 20.94     0.034 C 
BRANCH  21  22
ATOM     22  CG  LYS A 131      27.600  24.412  16.821  1.00 22.96     0.005 C 
BRANCH  22  23
ATOM     23  CD  LYS A 131      26.153  24.515  17.218  1.00 24.33     0.041 C 
BRANCH  23  24
ATOM     24  CE  LYS A 131      26.048  24.623  18.736  1.00 26.91     0.338 C 
ATOM     25  NZ  LYS A 131      25.466  23.385  19.305  1.00 27.40     0.618 N 
ENDBRANCH  23  24
ENDBRANCH  22  23
ENDBRANCH  21  22
ENDBRANCH  20  21
END_RES LYS A 131
