REMARK VINA RESULT:    -4.189      9.305     15.623
REMARK INTER + INTRA:         -18.703
REMARK INTER:                  -8.146
REMARK INTRA:                 -10.557
REMARK UNBOUND:               -10.472
REMARK SMILES CC(=O)N[C@@H]1[C@@H](O)C[C@](O)(C(=O)O)O[C@H]1C(O)[C@H](O)CNC(=O)OCc1cn(CCNC(=O)NCc2ccco2)nn1
REMARK SMILES IDX 24 1 22 2 21 3 23 5 20 6 18 7 16 8 15 9 9 10 8 11 14 12 6 13
REMARK SMILES IDX 5 14 10 15 11 17 12 18 13 19 7 21 4 23 2 24 1 26 3 27 17 28
REMARK SMILES IDX 19 30 25 32 26 33 27 34 42 35 28 36 41 37 29 38 30 39 31 40
REMARK SMILES IDX 32 41 33 43 34 44 35 46 36 47 37 48 40 49 38 50 39 51
REMARK H PARENT 21 4 10 16 13 20 7 22 4 25 17 29 19 31 31 42 34 45
REMARK Flexibility Score: inf
ROOT
ATOM      1  O   UNL     1      28.024  14.922  17.990  1.00  0.00    -0.443 OA
ENDROOT
BRANCH   1   2
ATOM      2  C   UNL     1      27.926  15.681  16.810  1.00  0.00     0.407 C 
ATOM      3  N   UNL     1      27.700  17.073  16.841  1.00  0.00    -0.319 N 
ATOM      4  H   UNL     1      27.624  17.473  17.833  1.00  0.00     0.167 HD
ATOM      5  O   UNL     1      28.041  15.092  15.722  1.00  0.00    -0.225 OA
BRANCH   3   6
ATOM      6  C   UNL     1      27.571  17.953  15.712  1.00  0.00     0.154 C 
BRANCH   6   7
ATOM      7  C   UNL     1      26.298  18.755  15.662  1.00  0.00     0.165 C 
BRANCH   7   8
ATOM      8  C   UNL     1      25.398  18.200  16.739  1.00  0.00     0.176 C 
BRANCH   8   9
ATOM      9  C   UNL     1      24.345  19.167  17.188  1.00  0.00     0.178 C 
ATOM     10  C   UNL     1      23.225  21.100  16.589  1.00  0.00     0.269 C 
ATOM     11  C   UNL     1      22.571  20.847  17.956  1.00  0.00     0.112 C 
ATOM     12  O   UNL     1      24.405  20.367  16.499  1.00  0.00    -0.332 OA
ATOM     13  C   UNL     1      23.701  20.699  18.935  1.00  0.00     0.145 C 
ATOM     14  C   UNL     1      24.374  19.390  18.698  1.00  0.00     0.142 C 
BRANCH  10  15
ATOM     15  O   UNL     1      23.596  22.443  16.601  1.00  0.00    -0.357 OA
ATOM     16  H   UNL     1      23.308  22.917  17.403  1.00  0.00     0.214 HD
ENDBRANCH  10  15
BRANCH  10  17
ATOM     17  C   UNL     1      22.297  20.835  15.490  1.00  0.00     0.364 C 
ATOM     18  O   UNL     1      22.270  21.495  14.425  1.00  0.00    -0.246 OA
BRANCH  17  19
ATOM     19  O   UNL     1      21.383  19.799  15.607  1.00  0.00    -0.477 OA
ATOM     20  H   UNL     1      20.817  19.629  16.425  1.00  0.00     0.296 HD
ENDBRANCH  17  19
ENDBRANCH  10  17
BRANCH  13  21
ATOM     21  O   UNL     1      24.642  21.699  18.610  1.00  0.00    -0.391 OA
ATOM     22  H   UNL     1      24.408  22.533  19.074  1.00  0.00     0.211 HD
ENDBRANCH  13  21
BRANCH  14  23
ATOM     23  N   UNL     1      23.814  18.256  19.318  1.00  0.00    -0.348 N 
ATOM     24  C   UNL     1      24.025  17.858  20.665  1.00  0.00     0.217 C 
ATOM     25  H   UNL     1      23.178  17.633  18.751  1.00  0.00     0.163 HD
ATOM     26  C   UNL     1      23.406  16.655  21.252  1.00  0.00     0.114 C 
ATOM     27  O   UNL     1      24.794  18.625  21.325  1.00  0.00    -0.275 OA
ENDBRANCH  14  23
ENDBRANCH   8   9
BRANCH   8  28
ATOM     28  O   UNL     1      24.746  17.086  16.213  1.00  0.00    -0.388 OA
ATOM     29  H   UNL     1      23.796  17.299  15.955  1.00  0.00     0.211 HD
ENDBRANCH   8  28
ENDBRANCH   7   8
BRANCH   7  30
ATOM     30  O   UNL     1      25.750  18.722  14.419  1.00  0.00    -0.388 OA
ATOM     31  H   UNL     1      25.745  19.651  14.025  1.00  0.00     0.211 HD
ENDBRANCH   7  30
ENDBRANCH   6   7
ENDBRANCH   3   6
ENDBRANCH   1   2
BRANCH   1  32
ATOM     32  C   UNL     1      27.223  13.763  18.106  1.00  0.00     0.294 C 
BRANCH  32  33
ATOM     33  C   UNL     1      25.800  14.158  17.978  1.00  0.00     0.120 A 
ATOM     34  C   UNL     1      24.818  13.475  17.304  1.00  0.00     0.138 A 
ATOM     35  N   UNL     1      25.199  15.245  18.486  1.00  0.00    -0.132 NA
ATOM     36  N   UNL     1      23.644  14.152  17.411  1.00  0.00    -0.250 N 
ATOM     37  N   UNL     1      23.926  15.219  18.138  1.00  0.00    -0.067 NA
BRANCH  36  38
ATOM     38  C   UNL     1      22.352  13.789  16.852  1.00  0.00     0.167 C 
BRANCH  38  39
ATOM     39  C   UNL     1      22.288  14.198  15.399  1.00  0.00     0.141 C 
BRANCH  39  40
ATOM     40  N   UNL     1      22.434  15.636  15.319  1.00  0.00    -0.336 N 
ATOM     41  C   UNL     1      22.495  16.232  14.042  1.00  0.00     0.315 C 
ATOM     42  H   UNL     1      22.493  16.223  16.175  1.00  0.00     0.165 HD
ATOM     43  O   UNL     1      22.431  15.600  12.957  1.00  0.00    -0.249 OA
ATOM     44  N   UNL     1      22.637  17.648  13.956  1.00  0.00    -0.331 N 
ATOM     45  H   UNL     1      22.692  18.185  14.846  1.00  0.00     0.165 HD
BRANCH  44  46
ATOM     46  C   UNL     1      22.708  18.340  12.710  1.00  0.00     0.193 C 
BRANCH  46  47
ATOM     47  C   UNL     1      21.352  18.686  12.172  1.00  0.00     0.122 A 
ATOM     48  C   UNL     1      20.935  18.303  10.928  1.00  0.00     0.047 A 
ATOM     49  O   UNL     1      20.388  19.360  12.737  1.00  0.00    -0.467 OA
ATOM     50  C   UNL     1      19.659  18.790  10.778  1.00  0.00     0.042 A 
ATOM     51  C   UNL     1      19.372  19.441  11.939  1.00  0.00     0.195 A 
ENDBRANCH  46  47
ENDBRANCH  44  46
ENDBRANCH  39  40
ENDBRANCH  38  39
ENDBRANCH  36  38
ENDBRANCH  32  33
ENDBRANCH   1  32
TORSDOF 19
BEGIN_RES LYS A 135
REMARK  4 active torsions:
REMARK  status: ('A' for Active; 'I' for Inactive)
REMARK    1  A    between atoms: CA   and  CB  
REMARK    2  A    between atoms: CB   and  CG  
REMARK    3  A    between atoms: CG   and  CD  
REMARK    4  A    between atoms: CD   and  CE  
ROOT
ATOM      1  CA  LYS A 135      33.193  34.663   9.290  1.00 25.02     0.186 C 
ENDROOT
BRANCH   1   2
ATOM      2  CB  LYS A 135      32.060  35.360  10.034  1.00 26.63     0.034 C 
BRANCH   2   3
ATOM      3  CG  LYS A 135      30.703  35.124   9.423  1.00 29.45     0.005 C 
BRANCH   3   4
ATOM      4  CD  LYS A 135      29.667  34.854  10.504  1.00 32.00     0.041 C 
BRANCH   4   5
ATOM      5  CE  LYS A 135      28.446  34.176   9.914  1.00 34.25     0.338 C 
ATOM      6  NZ  LYS A 135      28.286  34.517   8.473  1.00 35.99     0.618 N 
ENDBRANCH   4   5
ENDBRANCH   3   4
ENDBRANCH   2   3
ENDBRANCH   1   2
END_RES LYS A 135
BEGIN_RES ARG A 124
REMARK  4 active torsions:
REMARK  status: ('A' for Active; 'I' for Inactive)
REMARK    5  A    between atoms: CA   and  CB  
REMARK    6  A    between atoms: CB   and  CG  
REMARK    7  A    between atoms: CG   and  CD  
REMARK    8  A    between atoms: CD   and  NE  
REMARK       I    between atoms: NE   and  CZ  
ROOT
ATOM      7  CA  ARG A 124      31.045  26.515   9.594  1.00 17.84     0.186 C 
ENDROOT
BRANCH   7   8
ATOM      8  CB  ARG A 124      29.529  26.705   9.647  1.00 16.18     0.036 C 
BRANCH   8   9
ATOM      9  CG  ARG A 124      28.899  26.742  11.085  1.00 16.22     0.029 C 
BRANCH   9  10
ATOM     10  CD  ARG A 124      27.509  26.069  11.149  1.00 15.09     0.145 C 
BRANCH  10  11
ATOM     11  NE  ARG A 124      26.397  27.014  11.390  1.00 16.98    -0.083 NA
ATOM     12  CZ  ARG A 124      26.015  27.449  12.585  1.00 18.21     0.782 C 
ATOM     13  NH1 ARG A 124      26.637  27.061  13.692  1.00 21.11     0.063 N 
ATOM     14  NH2 ARG A 124      25.011  28.307  12.687  1.00 21.25     0.063 N 
ENDBRANCH  10  11
ENDBRANCH   9  10
ENDBRANCH   8   9
ENDBRANCH   7   8
END_RES ARG A 124
BEGIN_RES ASN A 133
REMARK  2 active torsions:
REMARK  status: ('A' for Active; 'I' for Inactive)
REMARK    9  A    between atoms: CA   and  CB  
REMARK   10  A    between atoms: CB   and  CG  
ROOT
ATOM     15  CA  ASN A 133      31.225  30.257  11.749  1.00 18.15     0.196 C 
ENDROOT
BRANCH  15  16
ATOM     16  CB  ASN A 133      30.092  31.240  11.460  1.00 18.27     0.126 C 
BRANCH  16  17
ATOM     17  CG  ASN A 133      28.738  30.601  11.467  1.00 18.94     0.276 C 
ATOM     18  OD1 ASN A 133      28.408  29.796  10.593  1.00 18.09    -0.269 OA
ATOM     19  ND2 ASN A 133      27.930  30.958  12.464  1.00 18.93    -0.107 N 
ENDBRANCH  16  17
ENDBRANCH  15  16
END_RES ASN A 133
BEGIN_RES LYS A 131
REMARK  4 active torsions:
REMARK  status: ('A' for Active; 'I' for Inactive)
REMARK   11  A    between atoms: CA   and  CB  
REMARK   12  A    between atoms: CB   and  CG  
REMARK   13  A    between atoms: CG   and  CD  
REMARK   14  A    between atoms: CD   and  CE  
ROOT
ATOM     20  CA  LYS A 131      29.867  25.555  16.977  1.00 20.52     0.186 C 
ENDROOT
BRANCH  20  21
ATOM     21  CB  LYS A 131      28.345  25.722  17.026  1.00 20.94     0.034 C 
BRANCH  21  22
ATOM     22  CG  LYS A 131      27.601  24.403  16.884  1.00 22.96     0.005 C 
BRANCH  22  23
ATOM     23  CD  LYS A 131      26.159  24.519  17.294  1.00 24.33     0.041 C 
BRANCH  23  24
ATOM     24  CE  LYS A 131      26.079  24.933  18.760  1.00 26.91     0.338 C 
ATOM     25  NZ  LYS A 131      25.206  26.120  18.917  1.00 27.40     0.618 N 
ENDBRANCH  23  24
ENDBRANCH  22  23
ENDBRANCH  21  22
ENDBRANCH  20  21
END_RES LYS A 131
