REMARK VINA RESULT:    -5.772      2.206      3.201
REMARK INTER + INTRA:         -17.723
REMARK INTER:                  -7.577
REMARK INTRA:                 -10.146
REMARK UNBOUND:                -6.721
REMARK SMILES CC(=O)N[C@@H]1[C@@H](O)C[C@](O)(C(=O)O)O[C@H]1C(O)[C@H](O)CNC(=O)OCc1cn(CC(=O)NCc2cccs2)nn1
REMARK SMILES IDX 21 1 22 2 23 3 20 5 18 6 16 7 15 8 9 9 8 10 14 11 6 12 5 13
REMARK SMILES IDX 10 14 11 16 12 17 13 18 7 20 4 22 2 23 1 25 3 26 17 27 19 29
REMARK SMILES IDX 24 31 25 32 26 33 27 34 40 35 28 36 39 37 29 38 30 39 31 40
REMARK SMILES IDX 32 41 33 43 34 44 35 45 38 46 36 47 37 48
REMARK H PARENT 21 4 10 15 13 19 7 21 4 24 17 28 19 30 32 42
REMARK Flexibility Score: inf
ROOT
ATOM      1  N   UNL     1      26.626  15.792  15.756  1.00  0.00    -0.319 N 
ATOM      2  C   UNL     1      26.314  14.444  15.966  1.00  0.00     0.407 C 
ATOM      3  O   UNL     1      26.516  13.937  17.113  1.00  0.00    -0.225 OA
ATOM      4  H   UNL     1      26.446  16.184  14.781  1.00  0.00     0.167 HD
ENDROOT
BRANCH   1   5
ATOM      5  C   UNL     1      27.174  16.640  16.790  1.00  0.00     0.154 C 
BRANCH   5   6
ATOM      6  C   UNL     1      27.292  18.040  16.294  1.00  0.00     0.165 C 
BRANCH   6   7
ATOM      7  C   UNL     1      26.027  18.820  16.269  1.00  0.00     0.176 C 
BRANCH   7   8
ATOM      8  C   UNL     1      25.095  18.490  17.385  1.00  0.00     0.178 C 
ATOM      9  C   UNL     1      23.088  17.795  16.427  1.00  0.00     0.269 C 
ATOM     10  C   UNL     1      22.307  18.958  17.006  1.00  0.00     0.112 C 
ATOM     11  O   UNL     1      24.213  17.472  17.159  1.00  0.00    -0.332 OA
ATOM     12  C   UNL     1      23.224  20.147  17.027  1.00  0.00     0.145 C 
ATOM     13  C   UNL     1      24.432  19.784  17.826  1.00  0.00     0.142 C 
BRANCH   9  14
ATOM     14  O   UNL     1      23.387  18.130  15.111  1.00  0.00    -0.357 OA
ATOM     15  H   UNL     1      22.499  18.299  14.674  1.00  0.00     0.214 HD
ENDBRANCH   9  14
BRANCH   9  16
ATOM     16  C   UNL     1      22.175  16.634  16.446  1.00  0.00     0.364 C 
ATOM     17  O   UNL     1      22.488  15.616  17.140  1.00  0.00    -0.246 OA
BRANCH  16  18
ATOM     18  O   UNL     1      20.989  16.581  15.749  1.00  0.00    -0.477 OA
ATOM     19  H   UNL     1      20.411  15.725  15.791  1.00  0.00     0.296 HD
ENDBRANCH  16  18
ENDBRANCH   9  16
BRANCH  12  20
ATOM     20  O   UNL     1      23.522  20.469  15.705  1.00  0.00    -0.391 OA
ATOM     21  H   UNL     1      24.348  20.997  15.615  1.00  0.00     0.211 HD
ENDBRANCH  12  20
BRANCH  13  22
ATOM     22  N   UNL     1      24.028  19.623  19.207  1.00  0.00    -0.348 N 
ATOM     23  C   UNL     1      24.175  20.715  20.113  1.00  0.00     0.217 C 
ATOM     24  H   UNL     1      23.629  18.740  19.586  1.00  0.00     0.163 HD
ATOM     25  C   UNL     1      23.760  20.545  21.514  1.00  0.00     0.114 C 
ATOM     26  O   UNL     1      24.645  21.810  19.749  1.00  0.00    -0.275 OA
ENDBRANCH  13  22
ENDBRANCH   7   8
BRANCH   7  27
ATOM     27  O   UNL     1      26.404  20.178  16.448  1.00  0.00    -0.388 OA
ATOM     28  H   UNL     1      26.734  20.312  17.377  1.00  0.00     0.211 HD
ENDBRANCH   7  27
ENDBRANCH   6   7
BRANCH   6  29
ATOM     29  O   UNL     1      27.886  18.057  15.022  1.00  0.00    -0.388 OA
ATOM     30  H   UNL     1      28.566  18.756  15.046  1.00  0.00     0.211 HD
ENDBRANCH   6  29
ENDBRANCH   5   6
ENDBRANCH   1   5
BRANCH   2  31
ATOM     31  O   UNL     1      25.787  13.560  15.026  1.00  0.00    -0.443 OA
BRANCH  31  32
ATOM     32  C   UNL     1      24.368  13.390  14.968  1.00  0.00     0.294 C 
BRANCH  32  33
ATOM     33  C   UNL     1      23.774  14.407  14.114  1.00  0.00     0.120 A 
ATOM     34  C   UNL     1      22.527  14.315  13.519  1.00  0.00     0.138 A 
ATOM     35  N   UNL     1      24.275  15.594  13.712  1.00  0.00    -0.132 NA
ATOM     36  N   UNL     1      22.347  15.423  12.808  1.00  0.00    -0.243 N 
ATOM     37  N   UNL     1      23.426  16.214  12.927  1.00  0.00    -0.067 NA
BRANCH  36  38
ATOM     38  C   UNL     1      21.157  15.720  12.025  1.00  0.00     0.245 C 
BRANCH  38  39
ATOM     39  C   UNL     1      21.028  17.199  11.943  1.00  0.00     0.242 C 
ATOM     40  O   UNL     1      20.894  17.723  10.814  1.00  0.00    -0.273 OA
ATOM     41  N   UNL     1      21.050  18.036  13.083  1.00  0.00    -0.350 N 
ATOM     42  H   UNL     1      21.164  17.644  14.038  1.00  0.00     0.163 HD
BRANCH  41  43
ATOM     43  C   UNL     1      20.914  19.464  12.920  1.00  0.00     0.162 C 
BRANCH  43  44
ATOM     44  C   UNL     1      20.187  20.021  14.119  1.00  0.00     0.024 A 
ATOM     45  C   UNL     1      19.314  19.458  14.947  1.00  0.00     0.017 A 
ATOM     46  S   UNL     1      20.343  21.641  14.720  1.00  0.00    -0.147 S 
ATOM     47  C   UNL     1      18.786  20.158  15.961  1.00  0.00     0.012 A 
ATOM     48  C   UNL     1      19.196  21.482  16.094  1.00  0.00     0.065 A 
ENDBRANCH  43  44
ENDBRANCH  41  43
ENDBRANCH  38  39
ENDBRANCH  36  38
ENDBRANCH  32  33
ENDBRANCH  31  32
ENDBRANCH   2  31
TORSDOF 18
BEGIN_RES LYS A 135
REMARK  4 active torsions:
REMARK  status: ('A' for Active; 'I' for Inactive)
REMARK    1  A    between atoms: CA   and  CB  
REMARK    2  A    between atoms: CB   and  CG  
REMARK    3  A    between atoms: CG   and  CD  
REMARK    4  A    between atoms: CD   and  CE  
ROOT
ATOM      1  CA  LYS A 135      33.193  34.663   9.290  1.00 25.02     0.186 C 
ENDROOT
BRANCH   1   2
ATOM      2  CB  LYS A 135      32.060  35.360  10.034  1.00 26.63     0.034 C 
BRANCH   2   3
ATOM      3  CG  LYS A 135      30.695  34.819   9.696  1.00 29.45     0.005 C 
BRANCH   3   4
ATOM      4  CD  LYS A 135      30.581  34.545   8.204  1.00 32.00     0.041 C 
BRANCH   4   5
ATOM      5  CE  LYS A 135      29.204  34.927   7.696  1.00 34.25     0.338 C 
ATOM      6  NZ  LYS A 135      28.140  34.466   8.630  1.00 35.99     0.618 N 
ENDBRANCH   4   5
ENDBRANCH   3   4
ENDBRANCH   2   3
ENDBRANCH   1   2
END_RES LYS A 135
BEGIN_RES ARG A 124
REMARK  4 active torsions:
REMARK  status: ('A' for Active; 'I' for Inactive)
REMARK    5  A    between atoms: CA   and  CB  
REMARK    6  A    between atoms: CB   and  CG  
REMARK    7  A    between atoms: CG   and  CD  
REMARK    8  A    between atoms: CD   and  NE  
REMARK       I    between atoms: NE   and  CZ  
ROOT
ATOM      7  CA  ARG A 124      31.045  26.515   9.594  1.00 17.84     0.186 C 
ENDROOT
BRANCH   7   8
ATOM      8  CB  ARG A 124      29.529  26.705   9.647  1.00 16.18     0.036 C 
BRANCH   8   9
ATOM      9  CG  ARG A 124      28.783  25.900  10.770  1.00 16.22     0.029 C 
BRANCH   9  10
ATOM     10  CD  ARG A 124      28.360  26.786  11.964  1.00 15.09     0.145 C 
BRANCH  10  11
ATOM     11  NE  ARG A 124      26.965  27.273  11.883  1.00 16.98    -0.083 NA
ATOM     12  CZ  ARG A 124      26.150  27.418  12.922  1.00 18.21     0.782 C 
ATOM     13  NH1 ARG A 124      26.548  27.137  14.156  1.00 21.11     0.063 N 
ATOM     14  NH2 ARG A 124      24.920  27.874  12.738  1.00 21.25     0.063 N 
ENDBRANCH  10  11
ENDBRANCH   9  10
ENDBRANCH   8   9
ENDBRANCH   7   8
END_RES ARG A 124
BEGIN_RES ASN A 133
REMARK  2 active torsions:
REMARK  status: ('A' for Active; 'I' for Inactive)
REMARK    9  A    between atoms: CA   and  CB  
REMARK   10  A    between atoms: CB   and  CG  
ROOT
ATOM     15  CA  ASN A 133      31.225  30.257  11.749  1.00 18.15     0.196 C 
ENDROOT
BRANCH  15  16
ATOM     16  CB  ASN A 133      30.092  31.240  11.460  1.00 18.27     0.126 C 
BRANCH  16  17
ATOM     17  CG  ASN A 133      28.746  30.588  11.391  1.00 18.94     0.276 C 
ATOM     18  OD1 ASN A 133      28.445  29.841  10.458  1.00 18.09    -0.269 OA
ATOM     19  ND2 ASN A 133      27.911  30.868  12.391  1.00 18.93    -0.107 N 
ENDBRANCH  16  17
ENDBRANCH  15  16
END_RES ASN A 133
BEGIN_RES LYS A 131
REMARK  4 active torsions:
REMARK  status: ('A' for Active; 'I' for Inactive)
REMARK   11  A    between atoms: CA   and  CB  
REMARK   12  A    between atoms: CB   and  CG  
REMARK   13  A    between atoms: CG   and  CD  
REMARK   14  A    between atoms: CD   and  CE  
ROOT
ATOM     20  CA  LYS A 131      29.867  25.555  16.977  1.00 20.52     0.186 C 
ENDROOT
BRANCH  20  21
ATOM     21  CB  LYS A 131      28.345  25.722  17.026  1.00 20.94     0.034 C 
BRANCH  21  22
ATOM     22  CG  LYS A 131      27.600  24.410  16.830  1.00 22.96     0.005 C 
BRANCH  22  23
ATOM     23  CD  LYS A 131      26.477  24.244  17.816  1.00 24.33     0.041 C 
BRANCH  23  24
ATOM     24  CE  LYS A 131      25.184  24.779  17.209  1.00 26.91     0.338 C 
ATOM     25  NZ  LYS A 131      24.264  23.664  16.882  1.00 27.40     0.618 N 
ENDBRANCH  23  24
ENDBRANCH  22  23
ENDBRANCH  21  22
ENDBRANCH  20  21
END_RES LYS A 131
