REMARK VINA RESULT:    -4.507      8.491     13.926
REMARK INTER + INTRA:         -17.559
REMARK INTER:                  -8.550
REMARK INTRA:                  -9.009
REMARK UNBOUND:                -9.495
REMARK SMILES CC(=O)N[C@@H]1[C@@H](O)C[C@](O)(C(=O)O)O[C@H]1C(O)[C@H](O)CNC(=O)OCc1cn(-c2ccccc2C(N)=O)nn1
REMARK SMILES IDX 21 1 22 2 23 3 20 5 18 6 16 7 15 8 9 9 8 10 14 11 6 12 5 13
REMARK SMILES IDX 10 14 11 16 12 17 13 18 7 20 4 22 2 23 1 25 3 26 17 27 19 29
REMARK SMILES IDX 24 31 25 32 26 33 27 34 39 35 28 36 38 37 29 38 34 39 30 40
REMARK SMILES IDX 33 41 31 42 32 43 35 44 37 45 36 46
REMARK H PARENT 21 4 10 15 13 19 7 21 4 24 17 28 19 30 36 47 36 48
REMARK Flexibility Score: inf
ROOT
ATOM      1  N   UNL     1      29.420  34.697  15.527  1.00  0.00    -0.319 N 
ATOM      2  C   UNL     1      29.542  35.352  14.273  1.00  0.00     0.407 C 
ATOM      3  O   UNL     1      30.551  35.141  13.577  1.00  0.00    -0.225 OA
ATOM      4  H   UNL     1      28.537  34.921  16.070  1.00  0.00     0.167 HD
ENDROOT
BRANCH   1   5
ATOM      5  C   UNL     1      30.392  33.784  16.078  1.00  0.00     0.154 C 
BRANCH   5   6
ATOM      6  C   UNL     1      30.274  32.388  15.492  1.00  0.00     0.165 C 
BRANCH   6   7
ATOM      7  C   UNL     1      29.561  31.450  16.420  1.00  0.00     0.176 C 
BRANCH   7   8
ATOM      8  C   UNL     1      28.181  31.100  16.011  1.00  0.00     0.178 C 
ATOM      9  C   UNL     1      26.189  32.206  15.476  1.00  0.00     0.269 C 
ATOM     10  C   UNL     1      25.782  30.817  15.081  1.00  0.00     0.112 C 
ATOM     11  O   UNL     1      27.491  32.330  15.844  1.00  0.00    -0.332 OA
ATOM     12  C   UNL     1      26.176  29.761  16.056  1.00  0.00     0.145 C 
ATOM     13  C   UNL     1      27.342  30.271  16.896  1.00  0.00     0.142 C 
BRANCH   9  14
ATOM     14  O   UNL     1      25.298  32.684  16.466  1.00  0.00    -0.357 OA
ATOM     15  H   UNL     1      24.845  31.886  16.870  1.00  0.00     0.214 HD
ENDBRANCH   9  14
BRANCH   9  16
ATOM     16  C   UNL     1      25.964  33.075  14.285  1.00  0.00     0.364 C 
ATOM     17  O   UNL     1      25.873  34.327  14.469  1.00  0.00    -0.246 OA
BRANCH  16  18
ATOM     18  O   UNL     1      25.850  32.596  12.998  1.00  0.00    -0.477 OA
ATOM     19  H   UNL     1      25.754  33.222  12.215  1.00  0.00     0.296 HD
ENDBRANCH  16  18
ENDBRANCH   9  16
BRANCH  12  20
ATOM     20  O   UNL     1      25.083  29.445  16.847  1.00  0.00    -0.391 OA
ATOM     21  H   UNL     1      25.325  29.171  17.767  1.00  0.00     0.211 HD
ENDBRANCH  12  20
BRANCH  13  22
ATOM     22  N   UNL     1      27.946  29.258  17.673  1.00  0.00    -0.348 N 
ATOM     23  C   UNL     1      27.572  29.012  19.011  1.00  0.00     0.217 C 
ATOM     24  H   UNL     1      28.679  28.640  17.271  1.00  0.00     0.163 HD
ATOM     25  C   UNL     1      28.168  27.967  19.869  1.00  0.00     0.114 C 
ATOM     26  O   UNL     1      26.673  29.727  19.505  1.00  0.00    -0.275 OA
ENDBRANCH  13  22
ENDBRANCH   7   8
BRANCH   7  27
ATOM     27  O   UNL     1      30.334  30.448  16.959  1.00  0.00    -0.388 OA
ATOM     28  H   UNL     1      31.011  30.841  17.589  1.00  0.00     0.211 HD
ENDBRANCH   7  27
ENDBRANCH   6   7
BRANCH   6  29
ATOM     29  O   UNL     1      31.453  31.935  14.971  1.00  0.00    -0.388 OA
ATOM     30  H   UNL     1      31.367  30.998  14.642  1.00  0.00     0.211 HD
ENDBRANCH   6  29
ENDBRANCH   5   6
ENDBRANCH   1   5
BRANCH   2  31
ATOM     31  O   UNL     1      28.571  36.221  13.792  1.00  0.00    -0.443 OA
BRANCH  31  32
ATOM     32  C   UNL     1      28.526  36.626  12.435  1.00  0.00     0.294 C 
BRANCH  32  33
ATOM     33  C   UNL     1      27.428  35.911  11.717  1.00  0.00     0.121 A 
ATOM     34  C   UNL     1      26.209  36.460  11.364  1.00  0.00     0.144 A 
ATOM     35  N   UNL     1      27.408  34.641  11.286  1.00  0.00    -0.131 NA
ATOM     36  N   UNL     1      25.492  35.487  10.727  1.00  0.00    -0.220 N 
ATOM     37  N   UNL     1      26.233  34.418  10.697  1.00  0.00    -0.062 NA
BRANCH  36  38
ATOM     38  C   UNL     1      24.166  35.652  10.211  1.00  0.00     0.079 A 
ATOM     39  C   UNL     1      23.052  35.279  10.926  1.00  0.00     0.065 A 
ATOM     40  C   UNL     1      24.025  36.211   8.945  1.00  0.00     0.029 A 
ATOM     41  C   UNL     1      21.791  35.473  10.354  1.00  0.00     0.016 A 
ATOM     42  C   UNL     1      22.777  36.393   8.399  1.00  0.00     0.002 A 
ATOM     43  C   UNL     1      21.668  36.020   9.112  1.00  0.00     0.001 A 
BRANCH  39  44
ATOM     44  C   UNL     1      23.130  34.691  12.255  1.00  0.00     0.250 C 
ATOM     45  O   UNL     1      23.063  33.422  12.337  1.00  0.00    -0.269 OA
ATOM     46  N   UNL     1      23.274  35.467  13.436  1.00  0.00    -0.366 N 
ATOM     47  H   UNL     1      24.153  35.950  13.679  1.00  0.00     0.159 HD
ATOM     48  H   UNL     1      22.422  35.520  14.072  1.00  0.00     0.159 HD
ENDBRANCH  39  44
ENDBRANCH  36  38
ENDBRANCH  32  33
ENDBRANCH  31  32
ENDBRANCH   2  31
TORSDOF 16
BEGIN_RES LYS A 135
REMARK  4 active torsions:
REMARK  status: ('A' for Active; 'I' for Inactive)
REMARK    1  A    between atoms: CA   and  CB  
REMARK    2  A    between atoms: CB   and  CG  
REMARK    3  A    between atoms: CG   and  CD  
REMARK    4  A    between atoms: CD   and  CE  
ROOT
ATOM      1  CA  LYS A 135      33.193  34.663   9.290  1.00 25.02     0.186 C 
ENDROOT
BRANCH   1   2
ATOM      2  CB  LYS A 135      32.060  35.360  10.034  1.00 26.63     0.034 C 
BRANCH   2   3
ATOM      3  CG  LYS A 135      30.718  34.703   9.840  1.00 29.45     0.005 C 
BRANCH   3   4
ATOM      4  CD  LYS A 135      30.283  34.789   8.385  1.00 32.00     0.041 C 
BRANCH   4   5
ATOM      5  CE  LYS A 135      29.113  35.743   8.234  1.00 34.25     0.338 C 
ATOM      6  NZ  LYS A 135      28.161  35.263   7.194  1.00 35.99     0.618 N 
ENDBRANCH   4   5
ENDBRANCH   3   4
ENDBRANCH   2   3
ENDBRANCH   1   2
END_RES LYS A 135
BEGIN_RES ARG A 124
REMARK  4 active torsions:
REMARK  status: ('A' for Active; 'I' for Inactive)
REMARK    5  A    between atoms: CA   and  CB  
REMARK    6  A    between atoms: CB   and  CG  
REMARK    7  A    between atoms: CG   and  CD  
REMARK    8  A    between atoms: CD   and  NE  
REMARK       I    between atoms: NE   and  CZ  
ROOT
ATOM      7  CA  ARG A 124      31.045  26.515   9.594  1.00 17.84     0.186 C 
ENDROOT
BRANCH   7   8
ATOM      8  CB  ARG A 124      29.529  26.705   9.647  1.00 16.18     0.036 C 
BRANCH   8   9
ATOM      9  CG  ARG A 124      28.906  26.796  11.086  1.00 16.22     0.029 C 
BRANCH   9  10
ATOM     10  CD  ARG A 124      27.544  26.073  11.197  1.00 15.09     0.145 C 
BRANCH  10  11
ATOM     11  NE  ARG A 124      26.397  26.986  11.397  1.00 16.98    -0.083 NA
ATOM     12  CZ  ARG A 124      25.979  27.434  12.576  1.00 18.21     0.782 C 
ATOM     13  NH1 ARG A 124      26.594  27.091  13.702  1.00 21.11     0.063 N 
ATOM     14  NH2 ARG A 124      24.946  28.259  12.641  1.00 21.25     0.063 N 
ENDBRANCH  10  11
ENDBRANCH   9  10
ENDBRANCH   8   9
ENDBRANCH   7   8
END_RES ARG A 124
BEGIN_RES ASN A 133
REMARK  2 active torsions:
REMARK  status: ('A' for Active; 'I' for Inactive)
REMARK    9  A    between atoms: CA   and  CB  
REMARK   10  A    between atoms: CB   and  CG  
ROOT
ATOM     15  CA  ASN A 133      31.225  30.257  11.749  1.00 18.15     0.196 C 
ENDROOT
BRANCH  15  16
ATOM     16  CB  ASN A 133      30.092  31.240  11.460  1.00 18.27     0.126 C 
BRANCH  16  17
ATOM     17  CG  ASN A 133      28.733  30.614  11.531  1.00 18.94     0.276 C 
ATOM     18  OD1 ASN A 133      27.992  30.807  12.496  1.00 18.09    -0.269 OA
ATOM     19  ND2 ASN A 133      28.390  29.847  10.497  1.00 18.93    -0.107 N 
ENDBRANCH  16  17
ENDBRANCH  15  16
END_RES ASN A 133
BEGIN_RES LYS A 131
REMARK  4 active torsions:
REMARK  status: ('A' for Active; 'I' for Inactive)
REMARK   11  A    between atoms: CA   and  CB  
REMARK   12  A    between atoms: CB   and  CG  
REMARK   13  A    between atoms: CG   and  CD  
REMARK   14  A    between atoms: CD   and  CE  
ROOT
ATOM     20  CA  LYS A 131      29.867  25.555  16.977  1.00 20.52     0.186 C 
ENDROOT
BRANCH  20  21
ATOM     21  CB  LYS A 131      28.345  25.722  17.026  1.00 20.94     0.034 C 
BRANCH  21  22
ATOM     22  CG  LYS A 131      27.600  24.411  16.825  1.00 22.96     0.005 C 
BRANCH  22  23
ATOM     23  CD  LYS A 131      26.758  24.049  18.017  1.00 24.33     0.041 C 
BRANCH  23  24
ATOM     24  CE  LYS A 131      25.321  23.801  17.569  1.00 26.91     0.338 C 
ATOM     25  NZ  LYS A 131      25.021  22.350  17.571  1.00 27.40     0.618 N 
ENDBRANCH  23  24
ENDBRANCH  22  23
ENDBRANCH  21  22
ENDBRANCH  20  21
END_RES LYS A 131
