REMARK VINA RESULT:    -5.285      9.268     17.399
REMARK INTER + INTRA:         -17.099
REMARK INTER:                  -8.987
REMARK INTRA:                  -8.112
REMARK UNBOUND:                -7.952
REMARK SMILES CC(=O)N[C@@H]1[C@@H](O)C[C@](O)(C(=O)O)O[C@H]1C(O)[C@H](O)CNC(=O)OCc1cn(-c2cccc(Cl)c2)nn1
REMARK SMILES IDX 20 1 18 2 16 3 15 4 9 5 8 6 14 7 6 8 5 9 10 10 11 12 12 13
REMARK SMILES IDX 13 14 7 16 4 18 2 19 1 21 3 22 17 23 19 25 21 27 22 28 23 30
REMARK SMILES IDX 24 31 25 32 26 33 27 34 37 35 28 36 36 37 29 38 30 39 35 40
REMARK SMILES IDX 31 41 33 42 32 43 34 44
REMARK H PARENT 10 11 13 15 7 17 4 20 17 24 19 26 21 29
REMARK Flexibility Score: inf
ROOT
ATOM      1  C   UNL     1      22.261  16.147  14.271  1.00  0.00     0.154 C 
ENDROOT
BRANCH   1   2
ATOM      2  C   UNL     1      23.558  16.502  13.630  1.00  0.00     0.165 C 
BRANCH   2   3
ATOM      3  C   UNL     1      23.903  17.964  13.637  1.00  0.00     0.176 C 
BRANCH   3   4
ATOM      4  C   UNL     1      24.829  18.378  14.731  1.00  0.00     0.178 C 
ATOM      5  C   UNL     1      26.444  17.518  16.162  1.00  0.00     0.269 C 
ATOM      6  C   UNL     1      26.671  18.995  16.446  1.00  0.00     0.112 C 
ATOM      7  O   UNL     1      25.671  17.326  15.035  1.00  0.00    -0.332 OA
ATOM      8  C   UNL     1      25.347  19.616  16.745  1.00  0.00     0.145 C 
ATOM      9  C   UNL     1      24.199  18.934  15.955  1.00  0.00     0.142 C 
BRANCH   5  10
ATOM     10  O   UNL     1      25.846  16.995  17.306  1.00  0.00    -0.357 OA
ATOM     11  H   UNL     1      25.012  16.546  17.091  1.00  0.00     0.214 HD
ENDBRANCH   5  10
BRANCH   5  12
ATOM     12  C   UNL     1      27.736  16.826  15.961  1.00  0.00     0.364 C 
ATOM     13  O   UNL     1      27.814  15.592  16.070  1.00  0.00    -0.246 OA
BRANCH  12  14
ATOM     14  O   UNL     1      28.893  17.533  15.645  1.00  0.00    -0.477 OA
ATOM     15  H   UNL     1      29.490  17.143  14.929  1.00  0.00     0.296 HD
ENDBRANCH  12  14
ENDBRANCH   5  12
BRANCH   8  16
ATOM     16  O   UNL     1      25.067  19.408  18.100  1.00  0.00    -0.391 OA
ATOM     17  H   UNL     1      25.176  20.264  18.605  1.00  0.00     0.211 HD
ENDBRANCH   8  16
BRANCH   9  18
ATOM     18  N   UNL     1      23.300  20.044  15.610  1.00  0.00    -0.348 N 
ATOM     19  C   UNL     1      22.285  20.529  16.440  1.00  0.00     0.217 C 
ATOM     20  H   UNL     1      23.456  20.476  14.672  1.00  0.00     0.163 HD
ATOM     21  C   UNL     1      21.410  21.654  16.017  1.00  0.00     0.114 C 
ATOM     22  O   UNL     1      22.087  20.026  17.565  1.00  0.00    -0.275 OA
ENDBRANCH   9  18
ENDBRANCH   3   4
BRANCH   3  23
ATOM     23  O   UNL     1      24.491  18.349  12.430  1.00  0.00    -0.388 OA
ATOM     24  H   UNL     1      24.962  17.584  12.017  1.00  0.00     0.211 HD
ENDBRANCH   3  23
ENDBRANCH   2   3
BRANCH   2  25
ATOM     25  O   UNL     1      23.496  16.054  12.284  1.00  0.00    -0.388 OA
ATOM     26  H   UNL     1      24.441  15.961  11.991  1.00  0.00     0.211 HD
ENDBRANCH   2  25
ENDBRANCH   1   2
BRANCH   1  27
ATOM     27  N   UNL     1      22.330  15.857  15.684  1.00  0.00    -0.319 N 
ATOM     28  C   UNL     1      22.468  14.482  16.120  1.00  0.00     0.407 C 
ATOM     29  H   UNL     1      22.296  16.564  16.448  1.00  0.00     0.167 HD
ATOM     30  O   UNL     1      22.523  13.579  15.248  1.00  0.00    -0.225 OA
BRANCH  28  31
ATOM     31  O   UNL     1      22.539  14.148  17.445  1.00  0.00    -0.443 OA
BRANCH  31  32
ATOM     32  C   UNL     1      23.506  13.246  17.918  1.00  0.00     0.294 C 
BRANCH  32  33
ATOM     33  C   UNL     1      24.609  13.984  18.622  1.00  0.00     0.121 A 
ATOM     34  C   UNL     1      24.495  14.839  19.710  1.00  0.00     0.144 A 
ATOM     35  N   UNL     1      25.923  13.961  18.335  1.00  0.00    -0.131 NA
ATOM     36  N   UNL     1      25.717  15.293  20.037  1.00  0.00    -0.220 N 
ATOM     37  N   UNL     1      26.573  14.748  19.189  1.00  0.00    -0.062 NA
BRANCH  36  38
ATOM     38  C   UNL     1      26.094  16.186  21.077  1.00  0.00     0.068 A 
ATOM     39  C   UNL     1      27.156  15.893  21.912  1.00  0.00     0.028 A 
ATOM     40  C   UNL     1      25.432  17.375  21.306  1.00  0.00     0.049 A 
ATOM     41  C   UNL     1      27.533  16.756  22.929  1.00  0.00     0.004 A 
ATOM     42  C   UNL     1      25.797  18.243  22.315  1.00  0.00     0.043 A 
ATOM     43  C   UNL     1      26.858  17.941  23.144  1.00  0.00     0.020 A 
ATOM     44  Cl  UNL     1      24.923  19.757  22.576  1.00  0.00    -0.084 Cl
ENDBRANCH  36  38
ENDBRANCH  32  33
ENDBRANCH  31  32
ENDBRANCH  28  31
ENDBRANCH   1  27
TORSDOF 15
BEGIN_RES LYS A 135
REMARK  4 active torsions:
REMARK  status: ('A' for Active; 'I' for Inactive)
REMARK    1  A    between atoms: CA   and  CB  
REMARK    2  A    between atoms: CB   and  CG  
REMARK    3  A    between atoms: CG   and  CD  
REMARK    4  A    between atoms: CD   and  CE  
ROOT
ATOM      1  CA  LYS A 135      33.193  34.663   9.290  1.00 25.02     0.186 C 
ENDROOT
BRANCH   1   2
ATOM      2  CB  LYS A 135      32.060  35.360  10.034  1.00 26.63     0.034 C 
BRANCH   2   3
ATOM      3  CG  LYS A 135      30.698  34.793   9.726  1.00 29.45     0.005 C 
BRANCH   3   4
ATOM      4  CD  LYS A 135      30.560  34.507   8.239  1.00 32.00     0.041 C 
BRANCH   4   5
ATOM      5  CE  LYS A 135      29.207  34.968   7.732  1.00 34.25     0.338 C 
ATOM      6  NZ  LYS A 135      29.170  36.448   7.571  1.00 35.99     0.618 N 
ENDBRANCH   4   5
ENDBRANCH   3   4
ENDBRANCH   2   3
ENDBRANCH   1   2
END_RES LYS A 135
BEGIN_RES ARG A 124
REMARK  4 active torsions:
REMARK  status: ('A' for Active; 'I' for Inactive)
REMARK    5  A    between atoms: CA   and  CB  
REMARK    6  A    between atoms: CB   and  CG  
REMARK    7  A    between atoms: CG   and  CD  
REMARK    8  A    between atoms: CD   and  NE  
REMARK       I    between atoms: NE   and  CZ  
ROOT
ATOM      7  CA  ARG A 124      31.045  26.515   9.594  1.00 17.84     0.186 C 
ENDROOT
BRANCH   7   8
ATOM      8  CB  ARG A 124      29.529  26.705   9.647  1.00 16.18     0.036 C 
BRANCH   8   9
ATOM      9  CG  ARG A 124      28.868  26.501  11.057  1.00 16.22     0.029 C 
BRANCH   9  10
ATOM     10  CD  ARG A 124      27.381  26.088  10.969  1.00 15.09     0.145 C 
BRANCH  10  11
ATOM     11  NE  ARG A 124      26.449  27.082  11.545  1.00 16.98    -0.083 NA
ATOM     12  CZ  ARG A 124      26.389  27.411  12.831  1.00 18.21     0.782 C 
ATOM     13  NH1 ARG A 124      27.202  26.859  13.723  1.00 21.11     0.063 N 
ATOM     14  NH2 ARG A 124      25.521  28.324  13.239  1.00 21.25     0.063 N 
ENDBRANCH  10  11
ENDBRANCH   9  10
ENDBRANCH   8   9
ENDBRANCH   7   8
END_RES ARG A 124
BEGIN_RES ASN A 133
REMARK  2 active torsions:
REMARK  status: ('A' for Active; 'I' for Inactive)
REMARK    9  A    between atoms: CA   and  CB  
REMARK   10  A    between atoms: CB   and  CG  
ROOT
ATOM     15  CA  ASN A 133      31.225  30.257  11.749  1.00 18.15     0.196 C 
ENDROOT
BRANCH  15  16
ATOM     16  CB  ASN A 133      30.092  31.240  11.460  1.00 18.27     0.126 C 
BRANCH  16  17
ATOM     17  CG  ASN A 133      28.731  30.657  11.686  1.00 18.94     0.276 C 
ATOM     18  OD1 ASN A 133      28.036  31.010  12.640  1.00 18.09    -0.269 OA
ATOM     19  ND2 ASN A 133      28.333  29.746  10.799  1.00 18.93    -0.107 N 
ENDBRANCH  16  17
ENDBRANCH  15  16
END_RES ASN A 133
BEGIN_RES LYS A 131
REMARK  4 active torsions:
REMARK  status: ('A' for Active; 'I' for Inactive)
REMARK   11  A    between atoms: CA   and  CB  
REMARK   12  A    between atoms: CB   and  CG  
REMARK   13  A    between atoms: CG   and  CD  
REMARK   14  A    between atoms: CD   and  CE  
ROOT
ATOM     20  CA  LYS A 131      29.867  25.555  16.977  1.00 20.52     0.186 C 
ENDROOT
BRANCH  20  21
ATOM     21  CB  LYS A 131      28.345  25.722  17.026  1.00 20.94     0.034 C 
BRANCH  21  22
ATOM     22  CG  LYS A 131      27.599  24.431  16.725  1.00 22.96     0.005 C 
BRANCH  22  23
ATOM     23  CD  LYS A 131      26.923  23.870  17.945  1.00 24.33     0.041 C 
BRANCH  23  24
ATOM     24  CE  LYS A 131      25.607  23.213  17.541  1.00 26.91     0.338 C 
ATOM     25  NZ  LYS A 131      24.850  22.785  18.741  1.00 27.40     0.618 N 
ENDBRANCH  23  24
ENDBRANCH  22  23
ENDBRANCH  21  22
ENDBRANCH  20  21
END_RES LYS A 131
