REMARK VINA RESULT:    -4.839      2.265      3.700
REMARK INTER + INTRA:         -16.735
REMARK INTER:                  -8.424
REMARK INTRA:                  -8.310
REMARK UNBOUND:                -8.360
REMARK SMILES CC(=O)N[C@@H]1[C@@H](O)C[C@](O)(C(=O)O)O[C@H]1C(O)[C@H](O)CNC(=O)OCc1cn(-c2ccc(C)cc2)nn1
REMARK SMILES IDX 20 1 18 2 16 3 15 4 9 5 8 6 14 7 6 8 5 9 10 10 11 12 12 13
REMARK SMILES IDX 13 14 7 16 4 18 2 19 1 21 3 22 17 23 19 25 21 27 22 28 23 30
REMARK SMILES IDX 24 31 25 32 26 33 27 34 37 35 28 36 36 37 29 38 30 39 35 40
REMARK SMILES IDX 31 41 34 42 32 43 33 44
REMARK H PARENT 10 11 13 15 7 17 4 20 17 24 19 26 21 29
REMARK Flexibility Score: inf
ROOT
ATOM      1  C   UNL     1      30.899  33.507  17.933  1.00  0.00     0.154 C 
ENDROOT
BRANCH   1   2
ATOM      2  C   UNL     1      29.436  33.685  17.713  1.00  0.00     0.165 C 
BRANCH   2   3
ATOM      3  C   UNL     1      28.987  32.717  16.627  1.00  0.00     0.176 C 
BRANCH   3   4
ATOM      4  C   UNL     1      27.657  32.076  16.954  1.00  0.00     0.178 C 
ATOM      5  C   UNL     1      28.251  30.280  18.326  1.00  0.00     0.269 C 
ATOM      6  C   UNL     1      27.652  29.269  17.383  1.00  0.00     0.112 C 
ATOM      7  O   UNL     1      27.631  31.476  18.185  1.00  0.00    -0.332 OA
ATOM      8  C   UNL     1      27.551  29.757  15.972  1.00  0.00     0.145 C 
ATOM      9  C   UNL     1      27.173  31.196  15.829  1.00  0.00     0.142 C 
BRANCH   5  10
ATOM     10  O   UNL     1      29.618  30.296  18.161  1.00  0.00    -0.357 OA
ATOM     11  H   UNL     1      29.895  29.414  17.794  1.00  0.00     0.214 HD
ENDBRANCH   5  10
BRANCH   5  12
ATOM     12  C   UNL     1      27.969  29.785  19.702  1.00  0.00     0.364 C 
ATOM     13  O   UNL     1      28.517  28.742  20.160  1.00  0.00    -0.246 OA
BRANCH  12  14
ATOM     14  O   UNL     1      27.095  30.452  20.532  1.00  0.00    -0.477 OA
ATOM     15  H   UNL     1      26.204  30.077  20.850  1.00  0.00     0.296 HD
ENDBRANCH  12  14
ENDBRANCH   5  12
BRANCH   8  16
ATOM     16  O   UNL     1      28.756  29.460  15.326  1.00  0.00    -0.391 OA
ATOM     17  H   UNL     1      28.607  29.516  14.354  1.00  0.00     0.211 HD
ENDBRANCH   8  16
BRANCH   9  18
ATOM     18  N   UNL     1      25.742  31.326  15.644  1.00  0.00    -0.348 N 
ATOM     19  C   UNL     1      25.239  32.344  14.809  1.00  0.00     0.217 C 
ATOM     20  H   UNL     1      25.061  30.663  16.130  1.00  0.00     0.163 HD
ATOM     21  C   UNL     1      23.792  32.488  14.612  1.00  0.00     0.114 C 
ATOM     22  O   UNL     1      26.023  33.132  14.229  1.00  0.00    -0.275 OA
ENDBRANCH   9  18
ENDBRANCH   3   4
BRANCH   3  23
ATOM     23  O   UNL     1      28.866  33.357  15.400  1.00  0.00    -0.388 OA
ATOM     24  H   UNL     1      29.457  32.982  14.703  1.00  0.00     0.211 HD
ENDBRANCH   3  23
ENDBRANCH   2   3
BRANCH   2  25
ATOM     25  O   UNL     1      29.008  34.946  17.374  1.00  0.00    -0.388 OA
ATOM     26  H   UNL     1      29.613  35.447  16.784  1.00  0.00     0.211 HD
ENDBRANCH   2  25
ENDBRANCH   1   2
BRANCH   1  27
ATOM     27  N   UNL     1      31.677  34.265  16.999  1.00  0.00    -0.319 N 
ATOM     28  C   UNL     1      32.123  33.807  15.735  1.00  0.00     0.407 C 
ATOM     29  H   UNL     1      31.970  35.276  17.237  1.00  0.00     0.167 HD
ATOM     30  O   UNL     1      31.842  32.656  15.335  1.00  0.00    -0.225 OA
BRANCH  28  31
ATOM     31  O   UNL     1      32.899  34.643  14.900  1.00  0.00    -0.443 OA
BRANCH  31  32
ATOM     32  C   UNL     1      32.496  35.994  14.785  1.00  0.00     0.294 C 
BRANCH  32  33
ATOM     33  C   UNL     1      31.049  36.019  14.371  1.00  0.00     0.121 A 
ATOM     34  C   UNL     1      30.538  35.741  13.119  1.00  0.00     0.144 A 
ATOM     35  N   UNL     1      29.973  36.311  15.129  1.00  0.00    -0.131 NA
ATOM     36  N   UNL     1      29.197  35.870  13.149  1.00  0.00    -0.220 N 
ATOM     37  N   UNL     1      28.890  36.215  14.380  1.00  0.00    -0.062 NA
BRANCH  36  38
ATOM     38  C   UNL     1      28.247  35.685  12.104  1.00  0.00     0.066 A 
ATOM     39  C   UNL     1      27.697  36.770  11.446  1.00  0.00     0.029 A 
ATOM     40  C   UNL     1      27.825  34.434  11.694  1.00  0.00     0.029 A 
ATOM     41  C   UNL     1      26.775  36.619  10.432  1.00  0.00     0.005 A 
ATOM     42  C   UNL     1      26.903  34.277  10.681  1.00  0.00     0.005 A 
ATOM     43  C   UNL     1      26.361  35.366  10.032  1.00  0.00    -0.051 A 
ATOM     44  C   UNL     1      25.360  35.231   8.929  1.00  0.00     0.044 C 
ENDBRANCH  36  38
ENDBRANCH  32  33
ENDBRANCH  31  32
ENDBRANCH  28  31
ENDBRANCH   1  27
TORSDOF 15
BEGIN_RES LYS A 135
REMARK  4 active torsions:
REMARK  status: ('A' for Active; 'I' for Inactive)
REMARK    1  A    between atoms: CA   and  CB  
REMARK    2  A    between atoms: CB   and  CG  
REMARK    3  A    between atoms: CG   and  CD  
REMARK    4  A    between atoms: CD   and  CE  
ROOT
ATOM      1  CA  LYS A 135      33.193  34.663   9.290  1.00 25.02     0.186 C 
ENDROOT
BRANCH   1   2
ATOM      2  CB  LYS A 135      32.060  35.360  10.034  1.00 26.63     0.034 C 
BRANCH   2   3
ATOM      3  CG  LYS A 135      30.691  34.858   9.654  1.00 29.45     0.005 C 
BRANCH   3   4
ATOM      4  CD  LYS A 135      30.070  35.747   8.587  1.00 32.00     0.041 C 
BRANCH   4   5
ATOM      5  CE  LYS A 135      29.181  34.932   7.667  1.00 34.25     0.338 C 
ATOM      6  NZ  LYS A 135      28.284  35.814   6.869  1.00 35.99     0.618 N 
ENDBRANCH   4   5
ENDBRANCH   3   4
ENDBRANCH   2   3
ENDBRANCH   1   2
END_RES LYS A 135
BEGIN_RES ARG A 124
REMARK  4 active torsions:
REMARK  status: ('A' for Active; 'I' for Inactive)
REMARK    5  A    between atoms: CA   and  CB  
REMARK    6  A    between atoms: CB   and  CG  
REMARK    7  A    between atoms: CG   and  CD  
REMARK    8  A    between atoms: CD   and  NE  
REMARK       I    between atoms: NE   and  CZ  
ROOT
ATOM      7  CA  ARG A 124      31.045  26.515   9.594  1.00 17.84     0.186 C 
ENDROOT
BRANCH   7   8
ATOM      8  CB  ARG A 124      29.529  26.705   9.647  1.00 16.18     0.036 C 
BRANCH   8   9
ATOM      9  CG  ARG A 124      28.902  26.763  11.086  1.00 16.22     0.029 C 
BRANCH   9  10
ATOM     10  CD  ARG A 124      27.432  26.284  11.119  1.00 15.09     0.145 C 
BRANCH  10  11
ATOM     11  NE  ARG A 124      26.479  27.313  11.588  1.00 16.98    -0.083 NA
ATOM     12  CZ  ARG A 124      26.232  27.598  12.862  1.00 18.21     0.782 C 
ATOM     13  NH1 ARG A 124      26.859  26.962  13.844  1.00 21.11     0.063 N 
ATOM     14  NH2 ARG A 124      25.364  28.549  13.171  1.00 21.25     0.063 N 
ENDBRANCH  10  11
ENDBRANCH   9  10
ENDBRANCH   8   9
ENDBRANCH   7   8
END_RES ARG A 124
BEGIN_RES ASN A 133
REMARK  2 active torsions:
REMARK  status: ('A' for Active; 'I' for Inactive)
REMARK    9  A    between atoms: CA   and  CB  
REMARK   10  A    between atoms: CB   and  CG  
ROOT
ATOM     15  CA  ASN A 133      31.225  30.257  11.749  1.00 18.15     0.196 C 
ENDROOT
BRANCH  15  16
ATOM     16  CB  ASN A 133      30.092  31.240  11.460  1.00 18.27     0.126 C 
BRANCH  16  17
ATOM     17  CG  ASN A 133      28.749  30.585  11.372  1.00 18.94     0.276 C 
ATOM     18  OD1 ASN A 133      28.474  29.813  10.451  1.00 18.09    -0.269 OA
ATOM     19  ND2 ASN A 133      27.886  30.892  12.339  1.00 18.93    -0.107 N 
ENDBRANCH  16  17
ENDBRANCH  15  16
END_RES ASN A 133
BEGIN_RES LYS A 131
REMARK  4 active torsions:
REMARK  status: ('A' for Active; 'I' for Inactive)
REMARK   11  A    between atoms: CA   and  CB  
REMARK   12  A    between atoms: CB   and  CG  
REMARK   13  A    between atoms: CG   and  CD  
REMARK   14  A    between atoms: CD   and  CE  
ROOT
ATOM     20  CA  LYS A 131      29.867  25.555  16.977  1.00 20.52     0.186 C 
ENDROOT
BRANCH  20  21
ATOM     21  CB  LYS A 131      28.345  25.722  17.026  1.00 20.94     0.034 C 
BRANCH  21  22
ATOM     22  CG  LYS A 131      27.600  24.411  16.826  1.00 22.96     0.005 C 
BRANCH  22  23
ATOM     23  CD  LYS A 131      26.523  24.209  17.855  1.00 24.33     0.041 C 
BRANCH  23  24
ATOM     24  CE  LYS A 131      25.155  24.371  17.199  1.00 26.91     0.338 C 
ATOM     25  NZ  LYS A 131      24.423  23.082  17.202  1.00 27.40     0.618 N 
ENDBRANCH  23  24
ENDBRANCH  22  23
ENDBRANCH  21  22
ENDBRANCH  20  21
END_RES LYS A 131
