REMARK VINA RESULT:    -5.222      4.578      9.324
REMARK INTER + INTRA:         -17.236
REMARK INTER:                  -8.608
REMARK INTRA:                  -8.628
REMARK UNBOUND:                -8.198
REMARK SMILES CC(=O)N[C@@H]1[C@@H](O)C[C@](O)(C(=O)O)O[C@H]1C(O)[C@H](O)CNC(=O)OCc1cn(C23CC4CC(CC(C4)C2)C3)nn1
REMARK SMILES IDX 20 1 18 2 16 3 15 4 9 5 8 6 14 7 6 8 5 9 10 10 11 12 12 13
REMARK SMILES IDX 13 14 7 16 4 18 2 19 1 21 3 22 17 23 19 25 21 27 22 28 23 30
REMARK SMILES IDX 24 31 25 32 26 33 27 34 40 35 28 36 39 37 29 38 38 39 37 40
REMARK SMILES IDX 30 41 33 42 35 43 31 44 32 45 34 46 36 47
REMARK H PARENT 10 11 13 15 7 17 4 20 17 24 19 26 21 29
REMARK Flexibility Score: inf
ROOT
ATOM      1  C   UNL     1      30.915  39.365  11.196  1.00  0.00     0.154 C 
ENDROOT
BRANCH   1   2
ATOM      2  C   UNL     1      30.083  38.458  12.100  1.00  0.00     0.165 C 
BRANCH   2   3
ATOM      3  C   UNL     1      30.833  37.286  12.620  1.00  0.00     0.176 C 
BRANCH   3   4
ATOM      4  C   UNL     1      30.065  36.079  12.999  1.00  0.00     0.178 C 
ATOM      5  C   UNL     1      27.972  35.352  13.717  1.00  0.00     0.269 C 
ATOM      6  C   UNL     1      28.504  33.980  13.932  1.00  0.00     0.112 C 
ATOM      7  O   UNL     1      28.892  36.370  13.686  1.00  0.00    -0.332 OA
ATOM      8  C   UNL     1      29.910  33.733  13.514  1.00  0.00     0.145 C 
ATOM      9  C   UNL     1      30.782  34.997  13.720  1.00  0.00     0.142 C 
BRANCH   5  10
ATOM     10  O   UNL     1      27.158  35.630  14.854  1.00  0.00    -0.357 OA
ATOM     11  H   UNL     1      27.651  35.244  15.622  1.00  0.00     0.214 HD
ENDBRANCH   5  10
BRANCH   5  12
ATOM     12  C   UNL     1      27.040  35.375  12.566  1.00  0.00     0.364 C 
ATOM     13  O   UNL     1      26.381  34.341  12.309  1.00  0.00    -0.246 OA
BRANCH  12  14
ATOM     14  O   UNL     1      26.863  36.482  11.762  1.00  0.00    -0.477 OA
ATOM     15  H   UNL     1      27.423  37.309  12.002  1.00  0.00     0.296 HD
ENDBRANCH  12  14
ENDBRANCH   5  12
BRANCH   8  16
ATOM     16  O   UNL     1      30.504  32.711  14.217  1.00  0.00    -0.391 OA
ATOM     17  H   UNL     1      30.132  31.842  13.910  1.00  0.00     0.211 HD
ENDBRANCH   8  16
BRANCH   9  18
ATOM     18  N   UNL     1      32.063  34.643  13.179  1.00  0.00    -0.348 N 
ATOM     19  C   UNL     1      33.224  34.799  13.971  1.00  0.00     0.217 C 
ATOM     20  H   UNL     1      32.126  34.279  12.217  1.00  0.00     0.163 HD
ATOM     21  C   UNL     1      34.583  34.455  13.479  1.00  0.00     0.114 C 
ATOM     22  O   UNL     1      33.114  35.245  15.148  1.00  0.00    -0.275 OA
ENDBRANCH   9  18
ENDBRANCH   3   4
BRANCH   3  23
ATOM     23  O   UNL     1      31.684  37.672  13.655  1.00  0.00    -0.388 OA
ATOM     24  H   UNL     1      32.265  38.426  13.391  1.00  0.00     0.211 HD
ENDBRANCH   3  23
ENDBRANCH   2   3
BRANCH   2  25
ATOM     25  O   UNL     1      29.101  37.916  11.216  1.00  0.00    -0.388 OA
ATOM     26  H   UNL     1      29.545  37.314  10.564  1.00  0.00     0.211 HD
ENDBRANCH   2  25
ENDBRANCH   1   2
BRANCH   1  27
ATOM     27  N   UNL     1      30.581  39.095   9.791  1.00  0.00    -0.319 N 
ATOM     28  C   UNL     1      30.085  40.103   8.938  1.00  0.00     0.407 C 
ATOM     29  H   UNL     1      30.715  38.143   9.422  1.00  0.00     0.167 HD
ATOM     30  O   UNL     1      29.947  41.255   9.466  1.00  0.00    -0.225 OA
BRANCH  28  31
ATOM     31  O   UNL     1      29.760  39.886   7.609  1.00  0.00    -0.443 OA
BRANCH  31  32
ATOM     32  C   UNL     1      28.440  40.002   7.147  1.00  0.00     0.294 C 
BRANCH  32  33
ATOM     33  C   UNL     1      27.626  38.941   7.789  1.00  0.00     0.120 A 
ATOM     34  C   UNL     1      26.255  38.895   7.937  1.00  0.00     0.138 A 
ATOM     35  N   UNL     1      28.097  37.828   8.342  1.00  0.00    -0.132 NA
ATOM     36  N   UNL     1      25.939  37.755   8.574  1.00  0.00    -0.246 N 
ATOM     37  N   UNL     1      27.090  37.112   8.815  1.00  0.00    -0.066 NA
BRANCH  36  38
ATOM     38  C   UNL     1      24.610  37.340   8.914  1.00  0.00     0.065 C 
ATOM     39  C   UNL     1      24.578  35.849   9.133  1.00  0.00     0.034 C 
ATOM     40  C   UNL     1      23.649  37.621   7.753  1.00  0.00     0.034 C 
ATOM     41  C   UNL     1      24.159  38.104  10.144  1.00  0.00     0.034 C 
ATOM     42  C   UNL     1      23.191  35.415   9.544  1.00  0.00    -0.008 C 
ATOM     43  C   UNL     1      22.266  37.204   8.158  1.00  0.00    -0.008 C 
ATOM     44  C   UNL     1      22.776  37.653  10.520  1.00  0.00    -0.008 C 
ATOM     45  C   UNL     1      22.828  36.176  10.802  1.00  0.00     0.007 C 
ATOM     46  C   UNL     1      22.160  35.739   8.502  1.00  0.00     0.007 C 
ATOM     47  C   UNL     1      21.847  37.987   9.382  1.00  0.00     0.007 C 
ENDBRANCH  36  38
ENDBRANCH  32  33
ENDBRANCH  31  32
ENDBRANCH  28  31
ENDBRANCH   1  27
TORSDOF 15
BEGIN_RES LYS A 135
REMARK  4 active torsions:
REMARK  status: ('A' for Active; 'I' for Inactive)
REMARK    1  A    between atoms: CA   and  CB  
REMARK    2  A    between atoms: CB   and  CG  
REMARK    3  A    between atoms: CG   and  CD  
REMARK    4  A    between atoms: CD   and  CE  
ROOT
ATOM      1  CA  LYS A 135      33.193  34.663   9.290  1.00 25.02     0.186 C 
ENDROOT
BRANCH   1   2
ATOM      2  CB  LYS A 135      32.060  35.360  10.034  1.00 26.63     0.034 C 
BRANCH   2   3
ATOM      3  CG  LYS A 135      30.883  35.701   9.157  1.00 29.45     0.005 C 
BRANCH   3   4
ATOM      4  CD  LYS A 135      30.107  34.446   8.788  1.00 32.00     0.041 C 
BRANCH   4   5
ATOM      5  CE  LYS A 135      29.063  34.136   9.843  1.00 34.25     0.338 C 
ATOM      6  NZ  LYS A 135      27.759  33.778   9.219  1.00 35.99     0.618 N 
ENDBRANCH   4   5
ENDBRANCH   3   4
ENDBRANCH   2   3
ENDBRANCH   1   2
END_RES LYS A 135
BEGIN_RES ARG A 124
REMARK  4 active torsions:
REMARK  status: ('A' for Active; 'I' for Inactive)
REMARK    5  A    between atoms: CA   and  CB  
REMARK    6  A    between atoms: CB   and  CG  
REMARK    7  A    between atoms: CG   and  CD  
REMARK    8  A    between atoms: CD   and  NE  
REMARK       I    between atoms: NE   and  CZ  
ROOT
ATOM      7  CA  ARG A 124      31.045  26.515   9.594  1.00 17.84     0.186 C 
ENDROOT
BRANCH   7   8
ATOM      8  CB  ARG A 124      29.529  26.705   9.647  1.00 16.18     0.036 C 
BRANCH   8   9
ATOM      9  CG  ARG A 124      28.886  26.635  11.078  1.00 16.22     0.029 C 
BRANCH   9  10
ATOM     10  CD  ARG A 124      27.454  26.052  11.064  1.00 15.09     0.145 C 
BRANCH  10  11
ATOM     11  NE  ARG A 124      26.400  27.049  11.354  1.00 16.98    -0.083 NA
ATOM     12  CZ  ARG A 124      26.104  27.512  12.564  1.00 18.21     0.782 C 
ATOM     13  NH1 ARG A 124      26.768  27.106  13.639  1.00 21.11     0.063 N 
ATOM     14  NH2 ARG A 124      25.146  28.415  12.710  1.00 21.25     0.063 N 
ENDBRANCH  10  11
ENDBRANCH   9  10
ENDBRANCH   8   9
ENDBRANCH   7   8
END_RES ARG A 124
BEGIN_RES ASN A 133
REMARK  2 active torsions:
REMARK  status: ('A' for Active; 'I' for Inactive)
REMARK    9  A    between atoms: CA   and  CB  
REMARK   10  A    between atoms: CB   and  CG  
ROOT
ATOM     15  CA  ASN A 133      31.225  30.257  11.749  1.00 18.15     0.196 C 
ENDROOT
BRANCH  15  16
ATOM     16  CB  ASN A 133      30.092  31.240  11.460  1.00 18.27     0.126 C 
BRANCH  16  17
ATOM     17  CG  ASN A 133      28.733  30.614  11.531  1.00 18.94     0.276 C 
ATOM     18  OD1 ASN A 133      27.973  30.844  12.473  1.00 18.09    -0.269 OA
ATOM     19  ND2 ASN A 133      28.412  29.805  10.523  1.00 18.93    -0.107 N 
ENDBRANCH  16  17
ENDBRANCH  15  16
END_RES ASN A 133
BEGIN_RES LYS A 131
REMARK  4 active torsions:
REMARK  status: ('A' for Active; 'I' for Inactive)
REMARK   11  A    between atoms: CA   and  CB  
REMARK   12  A    between atoms: CB   and  CG  
REMARK   13  A    between atoms: CG   and  CD  
REMARK   14  A    between atoms: CD   and  CE  
ROOT
ATOM     20  CA  LYS A 131      29.867  25.555  16.977  1.00 20.52     0.186 C 
ENDROOT
BRANCH  20  21
ATOM     21  CB  LYS A 131      28.345  25.722  17.026  1.00 20.94     0.034 C 
BRANCH  21  22
ATOM     22  CG  LYS A 131      27.599  24.432  16.722  1.00 22.96     0.005 C 
BRANCH  22  23
ATOM     23  CD  LYS A 131      26.976  23.834  17.953  1.00 24.33     0.041 C 
BRANCH  23  24
ATOM     24  CE  LYS A 131      25.607  24.465  18.188  1.00 26.91     0.338 C 
ATOM     25  NZ  LYS A 131      24.880  24.619  16.905  1.00 27.40     0.618 N 
ENDBRANCH  23  24
ENDBRANCH  22  23
ENDBRANCH  21  22
ENDBRANCH  20  21
END_RES LYS A 131
