REMARK VINA RESULT:    -5.414      7.570     12.328
REMARK INTER + INTRA:         -17.731
REMARK INTER:                  -8.737
REMARK INTRA:                  -8.994
REMARK UNBOUND:                -8.360
REMARK SMILES CC(=O)N[C@@H]1[C@@H](O)C[C@](O)(C(=O)O)O[C@H]1C(O)[C@H](O)CNC(=O)OCc1cn(-c2ccc(C)cc2)nn1
REMARK SMILES IDX 20 1 18 2 16 3 15 4 9 5 8 6 14 7 6 8 5 9 10 10 11 12 12 13
REMARK SMILES IDX 13 14 7 16 4 18 2 19 1 21 3 22 17 23 19 25 21 27 22 28 23 30
REMARK SMILES IDX 24 31 25 32 26 33 27 34 37 35 28 36 36 37 29 38 30 39 35 40
REMARK SMILES IDX 31 41 34 42 32 43 33 44
REMARK H PARENT 10 11 13 15 7 17 4 20 17 24 19 26 21 29
REMARK Flexibility Score: inf
ROOT
ATOM      1  C   UNL     1      27.259  16.314  16.072  1.00  0.00     0.154 C 
ENDROOT
BRANCH   1   2
ATOM      2  C   UNL     1      27.032  17.771  15.860  1.00  0.00     0.165 C 
BRANCH   2   3
ATOM      3  C   UNL     1      25.566  17.990  15.514  1.00  0.00     0.176 C 
BRANCH   3   4
ATOM      4  C   UNL     1      24.975  19.161  16.264  1.00  0.00     0.178 C 
ATOM      5  C   UNL     1      24.377  18.233  18.324  1.00  0.00     0.269 C 
ATOM      6  C   UNL     1      22.923  18.586  18.142  1.00  0.00     0.112 C 
ATOM      7  O   UNL     1      25.158  19.087  17.620  1.00  0.00    -0.332 OA
ATOM      8  C   UNL     1      22.527  18.756  16.709  1.00  0.00     0.145 C 
ATOM      9  C   UNL     1      23.549  19.425  15.849  1.00  0.00     0.142 C 
BRANCH   5  10
ATOM     10  O   UNL     1      24.555  16.897  18.044  1.00  0.00    -0.357 OA
ATOM     11  H   UNL     1      23.685  16.526  17.739  1.00  0.00     0.214 HD
ENDBRANCH   5  10
BRANCH   5  12
ATOM     12  C   UNL     1      24.678  18.435  19.768  1.00  0.00     0.364 C 
ATOM     13  O   UNL     1      24.839  17.459  20.557  1.00  0.00    -0.246 OA
BRANCH  12  14
ATOM     14  O   UNL     1      24.794  19.699  20.301  1.00  0.00    -0.477 OA
ATOM     15  H   UNL     1      24.128  20.115  20.948  1.00  0.00     0.296 HD
ENDBRANCH  12  14
ENDBRANCH   5  12
BRANCH   8  16
ATOM     16  O   UNL     1      22.155  17.502  16.213  1.00  0.00    -0.391 OA
ATOM     17  H   UNL     1      21.350  17.205  16.697  1.00  0.00     0.211 HD
ENDBRANCH   8  16
BRANCH   9  18
ATOM     18  N   UNL     1      23.286  20.847  15.764  1.00  0.00    -0.348 N 
ATOM     19  C   UNL     1      22.396  21.332  14.783  1.00  0.00     0.217 C 
ATOM     20  H   UNL     1      23.753  21.535  16.433  1.00  0.00     0.163 HD
ATOM     21  C   UNL     1      22.120  22.770  14.686  1.00  0.00     0.114 C 
ATOM     22  O   UNL     1      21.836  20.540  13.989  1.00  0.00    -0.275 OA
ENDBRANCH   9  18
ENDBRANCH   3   4
BRANCH   3  23
ATOM     23  O   UNL     1      25.398  18.220  14.155  1.00  0.00    -0.388 OA
ATOM     24  H   UNL     1      26.251  18.285  13.660  1.00  0.00     0.211 HD
ENDBRANCH   3  23
ENDBRANCH   2   3
BRANCH   2  25
ATOM     25  O   UNL     1      27.801  18.387  14.901  1.00  0.00    -0.388 OA
ATOM     26  H   UNL     1      28.733  18.082  14.856  1.00  0.00     0.211 HD
ENDBRANCH   2  25
ENDBRANCH   1   2
BRANCH   1  27
ATOM     27  N   UNL     1      26.046  15.560  15.951  1.00  0.00    -0.319 N 
ATOM     28  C   UNL     1      25.960  14.188  15.610  1.00  0.00     0.407 C 
ATOM     29  H   UNL     1      25.095  16.038  16.126  1.00  0.00     0.167 HD
ATOM     30  O   UNL     1      26.992  13.515  15.393  1.00  0.00    -0.225 OA
BRANCH  28  31
ATOM     31  O   UNL     1      24.703  13.550  15.508  1.00  0.00    -0.443 OA
BRANCH  31  32
ATOM     32  C   UNL     1      24.206  13.304  14.207  1.00  0.00     0.294 C 
BRANCH  32  33
ATOM     33  C   UNL     1      23.442  14.522  13.759  1.00  0.00     0.121 A 
ATOM     34  C   UNL     1      22.356  14.553  12.906  1.00  0.00     0.144 A 
ATOM     35  N   UNL     1      23.657  15.809  14.096  1.00  0.00    -0.131 NA
ATOM     36  N   UNL     1      21.952  15.829  12.751  1.00  0.00    -0.220 N 
ATOM     37  N   UNL     1      22.761  16.561  13.485  1.00  0.00    -0.062 NA
BRANCH  36  38
ATOM     38  C   UNL     1      20.879  16.350  11.972  1.00  0.00     0.066 A 
ATOM     39  C   UNL     1      21.007  17.556  11.308  1.00  0.00     0.029 A 
ATOM     40  C   UNL     1      19.670  15.695  11.838  1.00  0.00     0.029 A 
ATOM     41  C   UNL     1      19.984  18.084  10.548  1.00  0.00     0.005 A 
ATOM     42  C   UNL     1      18.643  16.218  11.079  1.00  0.00     0.005 A 
ATOM     43  C   UNL     1      18.782  17.421  10.421  1.00  0.00    -0.051 A 
ATOM     44  C   UNL     1      17.690  18.016   9.590  1.00  0.00     0.044 C 
ENDBRANCH  36  38
ENDBRANCH  32  33
ENDBRANCH  31  32
ENDBRANCH  28  31
ENDBRANCH   1  27
TORSDOF 15
BEGIN_RES LYS A 135
REMARK  4 active torsions:
REMARK  status: ('A' for Active; 'I' for Inactive)
REMARK    1  A    between atoms: CA   and  CB  
REMARK    2  A    between atoms: CB   and  CG  
REMARK    3  A    between atoms: CG   and  CD  
REMARK    4  A    between atoms: CD   and  CE  
ROOT
ATOM      1  CA  LYS A 135      33.193  34.663   9.290  1.00 25.02     0.186 C 
ENDROOT
BRANCH   1   2
ATOM      2  CB  LYS A 135      32.060  35.360  10.034  1.00 26.63     0.034 C 
BRANCH   2   3
ATOM      3  CG  LYS A 135      30.825  35.565   9.195  1.00 29.45     0.005 C 
BRANCH   3   4
ATOM      4  CD  LYS A 135      30.128  34.240   8.933  1.00 32.00     0.041 C 
BRANCH   4   5
ATOM      5  CE  LYS A 135      28.742  34.470   8.362  1.00 34.25     0.338 C 
ATOM      6  NZ  LYS A 135      28.797  35.337   7.152  1.00 35.99     0.618 N 
ENDBRANCH   4   5
ENDBRANCH   3   4
ENDBRANCH   2   3
ENDBRANCH   1   2
END_RES LYS A 135
BEGIN_RES ARG A 124
REMARK  4 active torsions:
REMARK  status: ('A' for Active; 'I' for Inactive)
REMARK    5  A    between atoms: CA   and  CB  
REMARK    6  A    between atoms: CB   and  CG  
REMARK    7  A    between atoms: CG   and  CD  
REMARK    8  A    between atoms: CD   and  NE  
REMARK       I    between atoms: NE   and  CZ  
ROOT
ATOM      7  CA  ARG A 124      31.045  26.515   9.594  1.00 17.84     0.186 C 
ENDROOT
BRANCH   7   8
ATOM      8  CB  ARG A 124      29.529  26.705   9.647  1.00 16.18     0.036 C 
BRANCH   8   9
ATOM      9  CG  ARG A 124      28.907  26.801  11.086  1.00 16.22     0.029 C 
BRANCH   9  10
ATOM     10  CD  ARG A 124      27.524  26.117  11.188  1.00 15.09     0.145 C 
BRANCH  10  11
ATOM     11  NE  ARG A 124      26.413  27.053  11.470  1.00 16.98    -0.083 NA
ATOM     12  CZ  ARG A 124      26.091  27.509  12.675  1.00 18.21     0.782 C 
ATOM     13  NH1 ARG A 124      26.778  27.153  13.754  1.00 21.11     0.063 N 
ATOM     14  NH2 ARG A 124      25.082  28.354  12.814  1.00 21.25     0.063 N 
ENDBRANCH  10  11
ENDBRANCH   9  10
ENDBRANCH   8   9
ENDBRANCH   7   8
END_RES ARG A 124
BEGIN_RES ASN A 133
REMARK  2 active torsions:
REMARK  status: ('A' for Active; 'I' for Inactive)
REMARK    9  A    between atoms: CA   and  CB  
REMARK   10  A    between atoms: CB   and  CG  
ROOT
ATOM     15  CA  ASN A 133      31.225  30.257  11.749  1.00 18.15     0.196 C 
ENDROOT
BRANCH  15  16
ATOM     16  CB  ASN A 133      30.092  31.240  11.460  1.00 18.27     0.126 C 
BRANCH  16  17
ATOM     17  CG  ASN A 133      28.733  30.617  11.542  1.00 18.94     0.276 C 
ATOM     18  OD1 ASN A 133      28.334  29.838  10.674  1.00 18.09    -0.269 OA
ATOM     19  ND2 ASN A 133      27.998  30.959  12.600  1.00 18.93    -0.107 N 
ENDBRANCH  16  17
ENDBRANCH  15  16
END_RES ASN A 133
BEGIN_RES LYS A 131
REMARK  4 active torsions:
REMARK  status: ('A' for Active; 'I' for Inactive)
REMARK   11  A    between atoms: CA   and  CB  
REMARK   12  A    between atoms: CB   and  CG  
REMARK   13  A    between atoms: CG   and  CD  
REMARK   14  A    between atoms: CD   and  CE  
ROOT
ATOM     20  CA  LYS A 131      29.867  25.555  16.977  1.00 20.52     0.186 C 
ENDROOT
BRANCH  20  21
ATOM     21  CB  LYS A 131      28.345  25.722  17.026  1.00 20.94     0.034 C 
BRANCH  21  22
ATOM     22  CG  LYS A 131      27.599  24.438  16.699  1.00 22.96     0.005 C 
BRANCH  22  23
ATOM     23  CD  LYS A 131      26.986  23.812  17.921  1.00 24.33     0.041 C 
BRANCH  23  24
ATOM     24  CE  LYS A 131      25.688  23.109  17.537  1.00 26.91     0.338 C 
ATOM     25  NZ  LYS A 131      24.721  24.079  16.970  1.00 27.40     0.618 N 
ENDBRANCH  23  24
ENDBRANCH  22  23
ENDBRANCH  21  22
ENDBRANCH  20  21
END_RES LYS A 131
