REMARK VINA RESULT:    -5.450      2.395      3.327
REMARK INTER + INTRA:         -17.631
REMARK INTER:                  -9.524
REMARK INTRA:                  -8.107
REMARK UNBOUND:                -8.198
REMARK SMILES CC(=O)N[C@@H]1[C@@H](O)C[C@](O)(C(=O)O)O[C@H]1C(O)[C@H](O)CNC(=O)OCc1cn(C23CC4CC(CC(C4)C2)C3)nn1
REMARK SMILES IDX 20 1 18 2 16 3 15 4 9 5 8 6 14 7 6 8 5 9 10 10 11 12 12 13
REMARK SMILES IDX 13 14 7 16 4 18 2 19 1 21 3 22 17 23 19 25 21 27 22 28 23 30
REMARK SMILES IDX 24 31 25 32 26 33 27 34 40 35 28 36 39 37 29 38 38 39 37 40
REMARK SMILES IDX 30 41 33 42 35 43 31 44 32 45 34 46 36 47
REMARK H PARENT 10 11 13 15 7 17 4 20 17 24 19 26 21 29
REMARK Flexibility Score: inf
ROOT
ATOM      1  C   UNL     1      30.275  27.082  21.521  1.00  0.00     0.154 C 
ENDROOT
BRANCH   1   2
ATOM      2  C   UNL     1      31.734  27.430  21.236  1.00  0.00     0.165 C 
BRANCH   2   3
ATOM      3  C   UNL     1      32.047  28.872  21.401  1.00  0.00     0.176 C 
BRANCH   3   4
ATOM      4  C   UNL     1      33.060  29.255  22.409  1.00  0.00     0.178 C 
ATOM      5  C   UNL     1      34.120  28.534  24.353  1.00  0.00     0.269 C 
ATOM      6  C   UNL     1      34.776  29.859  24.507  1.00  0.00     0.112 C 
ATOM      7  O   UNL     1      32.994  28.493  23.569  1.00  0.00    -0.332 OA
ATOM      8  C   UNL     1      34.567  30.842  23.412  1.00  0.00     0.145 C 
ATOM      9  C   UNL     1      33.157  30.689  22.787  1.00  0.00     0.142 C 
BRANCH   5  10
ATOM     10  O   UNL     1      33.670  28.174  25.657  1.00  0.00    -0.357 OA
ATOM     11  H   UNL     1      34.439  27.708  26.074  1.00  0.00     0.214 HD
ENDBRANCH   5  10
BRANCH   5  12
ATOM     12  C   UNL     1      35.117  27.498  23.995  1.00  0.00     0.364 C 
ATOM     13  O   UNL     1      35.293  26.539  24.781  1.00  0.00    -0.246 OA
BRANCH  12  14
ATOM     14  O   UNL     1      35.861  27.539  22.834  1.00  0.00    -0.477 OA
ATOM     15  H   UNL     1      36.584  26.816  22.734  1.00  0.00     0.296 HD
ENDBRANCH  12  14
ENDBRANCH   5  12
BRANCH   8  16
ATOM     16  O   UNL     1      34.683  32.147  23.835  1.00  0.00    -0.391 OA
ATOM     17  H   UNL     1      35.530  32.252  24.343  1.00  0.00     0.211 HD
ENDBRANCH   8  16
BRANCH   9  18
ATOM     18  N   UNL     1      33.145  31.615  21.692  1.00  0.00    -0.348 N 
ATOM     19  C   UNL     1      32.100  32.561  21.588  1.00  0.00     0.217 C 
ATOM     20  H   UNL     1      33.898  31.582  20.989  1.00  0.00     0.163 HD
ATOM     21  C   UNL     1      32.020  33.550  20.482  1.00  0.00     0.114 C 
ATOM     22  O   UNL     1      31.192  32.578  22.466  1.00  0.00    -0.275 OA
ENDBRANCH   9  18
ENDBRANCH   3   4
BRANCH   3  23
ATOM     23  O   UNL     1      30.875  29.608  21.578  1.00  0.00    -0.388 OA
ATOM     24  H   UNL     1      31.058  30.513  21.929  1.00  0.00     0.211 HD
ENDBRANCH   3  23
ENDBRANCH   2   3
BRANCH   2  25
ATOM     25  O   UNL     1      31.874  27.170  19.839  1.00  0.00    -0.388 OA
ATOM     26  H   UNL     1      31.649  26.221  19.659  1.00  0.00     0.211 HD
ENDBRANCH   2  25
ENDBRANCH   1   2
BRANCH   1  27
ATOM     27  N   UNL     1      29.525  27.049  20.258  1.00  0.00    -0.319 N 
ATOM     28  C   UNL     1      28.372  27.837  20.058  1.00  0.00     0.407 C 
ATOM     29  H   UNL     1      29.853  26.435  19.500  1.00  0.00     0.167 HD
ATOM     30  O   UNL     1      28.027  28.572  21.041  1.00  0.00    -0.225 OA
BRANCH  28  31
ATOM     31  O   UNL     1      27.639  27.833  18.882  1.00  0.00    -0.443 OA
BRANCH  31  32
ATOM     32  C   UNL     1      26.883  28.947  18.484  1.00  0.00     0.294 C 
BRANCH  32  33
ATOM     33  C   UNL     1      27.664  29.705  17.476  1.00  0.00     0.120 A 
ATOM     34  C   UNL     1      28.285  30.928  17.627  1.00  0.00     0.138 A 
ATOM     35  N   UNL     1      27.904  29.318  16.228  1.00  0.00    -0.132 NA
ATOM     36  N   UNL     1      28.881  31.243  16.465  1.00  0.00    -0.246 N 
ATOM     37  N   UNL     1      28.634  30.236  15.615  1.00  0.00    -0.066 NA
BRANCH  36  38
ATOM     38  C   UNL     1      29.631  32.439  16.219  1.00  0.00     0.065 C 
ATOM     39  C   UNL     1      31.035  32.087  15.800  1.00  0.00     0.034 C 
ATOM     40  C   UNL     1      29.764  33.261  17.506  1.00  0.00     0.034 C 
ATOM     41  C   UNL     1      28.913  33.259  15.164  1.00  0.00     0.034 C 
ATOM     42  C   UNL     1      31.814  33.344  15.488  1.00  0.00    -0.008 C 
ATOM     43  C   UNL     1      30.525  34.517  17.202  1.00  0.00    -0.008 C 
ATOM     44  C   UNL     1      29.709  34.502  14.884  1.00  0.00    -0.008 C 
ATOM     45  C   UNL     1      31.069  34.083  14.395  1.00  0.00     0.007 C 
ATOM     46  C   UNL     1      31.913  34.261  16.672  1.00  0.00     0.007 C 
ATOM     47  C   UNL     1      29.779  35.311  16.153  1.00  0.00     0.007 C 
ENDBRANCH  36  38
ENDBRANCH  32  33
ENDBRANCH  31  32
ENDBRANCH  28  31
ENDBRANCH   1  27
TORSDOF 15
BEGIN_RES LYS A 135
REMARK  4 active torsions:
REMARK  status: ('A' for Active; 'I' for Inactive)
REMARK    1  A    between atoms: CA   and  CB  
REMARK    2  A    between atoms: CB   and  CG  
REMARK    3  A    between atoms: CG   and  CD  
REMARK    4  A    between atoms: CD   and  CE  
ROOT
ATOM      1  CA  LYS A 135      33.193  34.663   9.290  1.00 25.02     0.186 C 
ENDROOT
BRANCH   1   2
ATOM      2  CB  LYS A 135      32.060  35.360  10.034  1.00 26.63     0.034 C 
BRANCH   2   3
ATOM      3  CG  LYS A 135      30.790  35.472   9.230  1.00 29.45     0.005 C 
BRANCH   3   4
ATOM      4  CD  LYS A 135      30.099  34.121   9.128  1.00 32.00     0.041 C 
BRANCH   4   5
ATOM      5  CE  LYS A 135      28.686  34.204   9.672  1.00 34.25     0.338 C 
ATOM      6  NZ  LYS A 135      28.689  34.470  11.137  1.00 35.99     0.618 N 
ENDBRANCH   4   5
ENDBRANCH   3   4
ENDBRANCH   2   3
ENDBRANCH   1   2
END_RES LYS A 135
BEGIN_RES ARG A 124
REMARK  4 active torsions:
REMARK  status: ('A' for Active; 'I' for Inactive)
REMARK    5  A    between atoms: CA   and  CB  
REMARK    6  A    between atoms: CB   and  CG  
REMARK    7  A    between atoms: CG   and  CD  
REMARK    8  A    between atoms: CD   and  NE  
REMARK       I    between atoms: NE   and  CZ  
ROOT
ATOM      7  CA  ARG A 124      31.045  26.515   9.594  1.00 17.84     0.186 C 
ENDROOT
BRANCH   7   8
ATOM      8  CB  ARG A 124      29.529  26.705   9.647  1.00 16.18     0.036 C 
BRANCH   8   9
ATOM      9  CG  ARG A 124      28.778  25.869  10.744  1.00 16.22     0.029 C 
BRANCH   9  10
ATOM     10  CD  ARG A 124      28.365  26.719  11.968  1.00 15.09     0.145 C 
BRANCH  10  11
ATOM     11  NE  ARG A 124      27.006  27.293  11.866  1.00 16.98    -0.083 NA
ATOM     12  CZ  ARG A 124      26.159  27.426  12.882  1.00 18.21     0.782 C 
ATOM     13  NH1 ARG A 124      26.491  27.050  14.111  1.00 21.11     0.063 N 
ATOM     14  NH2 ARG A 124      24.966  27.965  12.681  1.00 21.25     0.063 N 
ENDBRANCH  10  11
ENDBRANCH   9  10
ENDBRANCH   8   9
ENDBRANCH   7   8
END_RES ARG A 124
BEGIN_RES ASN A 133
REMARK  2 active torsions:
REMARK  status: ('A' for Active; 'I' for Inactive)
REMARK    9  A    between atoms: CA   and  CB  
REMARK   10  A    between atoms: CB   and  CG  
ROOT
ATOM     15  CA  ASN A 133      31.225  30.257  11.749  1.00 18.15     0.196 C 
ENDROOT
BRANCH  15  16
ATOM     16  CB  ASN A 133      30.092  31.240  11.460  1.00 18.27     0.126 C 
BRANCH  16  17
ATOM     17  CG  ASN A 133      28.751  30.583  11.354  1.00 18.94     0.276 C 
ATOM     18  OD1 ASN A 133      28.500  29.787  10.447  1.00 18.09    -0.269 OA
ATOM     19  ND2 ASN A 133      27.864  30.914  12.291  1.00 18.93    -0.107 N 
ENDBRANCH  16  17
ENDBRANCH  15  16
END_RES ASN A 133
BEGIN_RES LYS A 131
REMARK  4 active torsions:
REMARK  status: ('A' for Active; 'I' for Inactive)
REMARK   11  A    between atoms: CA   and  CB  
REMARK   12  A    between atoms: CB   and  CG  
REMARK   13  A    between atoms: CG   and  CD  
REMARK   14  A    between atoms: CD   and  CE  
ROOT
ATOM     20  CA  LYS A 131      29.867  25.555  16.977  1.00 20.52     0.186 C 
ENDROOT
BRANCH  20  21
ATOM     21  CB  LYS A 131      28.345  25.722  17.026  1.00 20.94     0.034 C 
BRANCH  21  22
ATOM     22  CG  LYS A 131      27.599  24.427  16.742  1.00 22.96     0.005 C 
BRANCH  22  23
ATOM     23  CD  LYS A 131      26.927  23.879  17.970  1.00 24.33     0.041 C 
BRANCH  23  24
ATOM     24  CE  LYS A 131      25.540  23.361  17.603  1.00 26.91     0.338 C 
ATOM     25  NZ  LYS A 131      24.769  24.404  16.887  1.00 27.40     0.618 N 
ENDBRANCH  23  24
ENDBRANCH  22  23
ENDBRANCH  21  22
ENDBRANCH  20  21
END_RES LYS A 131
