REMARK VINA RESULT:    -4.612      2.255      4.736
REMARK INTER + INTRA:         -17.746
REMARK INTER:                  -8.047
REMARK INTRA:                  -9.699
REMARK UNBOUND:                -9.495
REMARK SMILES CC(=O)N[C@@H]1[C@@H](O)C[C@](O)(C(=O)O)O[C@H]1C(O)[C@H](O)CNC(=O)OCc1cn(-c2ccccc2C(N)=O)nn1
REMARK SMILES IDX 21 1 22 2 23 3 20 5 18 6 16 7 15 8 9 9 8 10 14 11 6 12 5 13
REMARK SMILES IDX 10 14 11 16 12 17 13 18 7 20 4 22 2 23 1 25 3 26 17 27 19 29
REMARK SMILES IDX 24 31 25 32 26 33 27 34 39 35 28 36 38 37 29 38 34 39 30 40
REMARK SMILES IDX 33 41 31 42 32 43 35 44 37 45 36 46
REMARK H PARENT 21 4 10 15 13 19 7 21 4 24 17 28 19 30 36 47 36 48
REMARK Flexibility Score: inf
ROOT
ATOM      1  N   UNL     1      22.417  17.298  11.965  1.00  0.00    -0.319 N 
ATOM      2  C   UNL     1      21.256  16.481  11.997  1.00  0.00     0.407 C 
ATOM      3  O   UNL     1      21.229  15.499  12.760  1.00  0.00    -0.225 OA
ATOM      4  H   UNL     1      22.374  18.117  11.293  1.00  0.00     0.167 HD
ENDROOT
BRANCH   1   5
ATOM      5  C   UNL     1      23.598  17.082  12.762  1.00  0.00     0.154 C 
BRANCH   5   6
ATOM      6  C   UNL     1      23.862  18.222  13.730  1.00  0.00     0.165 C 
BRANCH   6   7
ATOM      7  C   UNL     1      22.843  18.272  14.829  1.00  0.00     0.176 C 
BRANCH   7   8
ATOM      8  C   UNL     1      23.381  18.633  16.160  1.00  0.00     0.178 C 
ATOM      9  C   UNL     1      24.414  20.466  17.183  1.00  0.00     0.269 C 
ATOM     10  C   UNL     1      24.195  19.627  18.408  1.00  0.00     0.112 C 
ATOM     11  O   UNL     1      23.865  19.963  16.047  1.00  0.00    -0.332 OA
ATOM     12  C   UNL     1      24.532  18.186  18.231  1.00  0.00     0.145 C 
ATOM     13  C   UNL     1      24.477  17.841  16.747  1.00  0.00     0.142 C 
BRANCH   9  14
ATOM     14  O   UNL     1      25.797  20.731  17.048  1.00  0.00    -0.357 OA
ATOM     15  H   UNL     1      25.929  21.181  16.163  1.00  0.00     0.214 HD
ENDBRANCH   9  14
BRANCH   9  16
ATOM     16  C   UNL     1      23.780  21.790  17.451  1.00  0.00     0.364 C 
ATOM     17  O   UNL     1      23.099  21.920  18.515  1.00  0.00    -0.246 OA
BRANCH  16  18
ATOM     18  O   UNL     1      23.892  22.877  16.613  1.00  0.00    -0.477 OA
ATOM     19  H   UNL     1      24.155  23.784  16.965  1.00  0.00     0.296 HD
ENDBRANCH  16  18
ENDBRANCH   9  16
BRANCH  12  20
ATOM     20  O   UNL     1      25.790  17.948  18.760  1.00  0.00    -0.391 OA
ATOM     21  H   UNL     1      25.811  17.207  19.416  1.00  0.00     0.211 HD
ENDBRANCH  12  20
BRANCH  13  22
ATOM     22  N   UNL     1      24.536  16.451  16.503  1.00  0.00    -0.348 N 
ATOM     23  C   UNL     1      25.735  15.800  16.147  1.00  0.00     0.217 C 
ATOM     24  H   UNL     1      23.690  15.855  16.599  1.00  0.00     0.163 HD
ATOM     25  C   UNL     1      25.854  14.351  15.881  1.00  0.00     0.114 C 
ATOM     26  O   UNL     1      26.770  16.495  16.052  1.00  0.00    -0.275 OA
ENDBRANCH  13  22
ENDBRANCH   7   8
BRANCH   7  27
ATOM     27  O   UNL     1      21.619  18.793  14.478  1.00  0.00    -0.388 OA
ATOM     28  H   UNL     1      21.663  19.797  14.477  1.00  0.00     0.211 HD
ENDBRANCH   7  27
ENDBRANCH   6   7
BRANCH   6  29
ATOM     29  O   UNL     1      24.116  19.404  13.093  1.00  0.00    -0.388 OA
ATOM     30  H   UNL     1      24.214  20.152  13.744  1.00  0.00     0.211 HD
ENDBRANCH   6  29
ENDBRANCH   5   6
ENDBRANCH   1   5
BRANCH   2  31
ATOM     31  O   UNL     1      20.143  16.739  11.206  1.00  0.00    -0.443 OA
BRANCH  31  32
ATOM     32  C   UNL     1      19.889  18.020  10.655  1.00  0.00     0.294 C 
BRANCH  32  33
ATOM     33  C   UNL     1      19.480  18.974  11.730  1.00  0.00     0.121 A 
ATOM     34  C   UNL     1      19.658  20.344  11.697  1.00  0.00     0.144 A 
ATOM     35  N   UNL     1      18.879  18.699  12.898  1.00  0.00    -0.131 NA
ATOM     36  N   UNL     1      19.152  20.849  12.862  1.00  0.00    -0.220 N 
ATOM     37  N   UNL     1      18.697  19.846  13.553  1.00  0.00    -0.062 NA
BRANCH  36  38
ATOM     38  C   UNL     1      19.152  22.236  13.221  1.00  0.00     0.079 A 
ATOM     39  C   UNL     1      20.064  22.761  14.106  1.00  0.00     0.065 A 
ATOM     40  C   UNL     1      18.191  23.059  12.643  1.00  0.00     0.029 A 
ATOM     41  C   UNL     1      19.999  24.126  14.405  1.00  0.00     0.016 A 
ATOM     42  C   UNL     1      18.143  24.397  12.950  1.00  0.00     0.002 A 
ATOM     43  C   UNL     1      19.051  24.919  13.832  1.00  0.00     0.001 A 
BRANCH  39  44
ATOM     44  C   UNL     1      21.095  21.957  14.744  1.00  0.00     0.250 C 
ATOM     45  O   UNL     1      20.783  21.355  15.823  1.00  0.00    -0.269 OA
ATOM     46  N   UNL     1      22.407  21.824  14.218  1.00  0.00    -0.366 N 
ATOM     47  H   UNL     1      22.612  21.278  13.366  1.00  0.00     0.159 HD
ATOM     48  H   UNL     1      23.183  22.316  14.756  1.00  0.00     0.159 HD
ENDBRANCH  39  44
ENDBRANCH  36  38
ENDBRANCH  32  33
ENDBRANCH  31  32
ENDBRANCH   2  31
TORSDOF 16
BEGIN_RES LYS A 135
REMARK  4 active torsions:
REMARK  status: ('A' for Active; 'I' for Inactive)
REMARK    1  A    between atoms: CA   and  CB  
REMARK    2  A    between atoms: CB   and  CG  
REMARK    3  A    between atoms: CG   and  CD  
REMARK    4  A    between atoms: CD   and  CE  
ROOT
ATOM      1  CA  LYS A 135      33.193  34.663   9.290  1.00 25.02     0.186 C 
ENDROOT
BRANCH   1   2
ATOM      2  CB  LYS A 135      32.060  35.360  10.034  1.00 26.63     0.034 C 
BRANCH   2   3
ATOM      3  CG  LYS A 135      30.725  34.681   9.872  1.00 29.45     0.005 C 
BRANCH   3   4
ATOM      4  CD  LYS A 135      30.360  34.559   8.400  1.00 32.00     0.041 C 
BRANCH   4   5
ATOM      5  CE  LYS A 135      28.855  34.611   8.219  1.00 34.25     0.338 C 
ATOM      6  NZ  LYS A 135      28.155  33.921   9.337  1.00 35.99     0.618 N 
ENDBRANCH   4   5
ENDBRANCH   3   4
ENDBRANCH   2   3
ENDBRANCH   1   2
END_RES LYS A 135
BEGIN_RES ARG A 124
REMARK  4 active torsions:
REMARK  status: ('A' for Active; 'I' for Inactive)
REMARK    5  A    between atoms: CA   and  CB  
REMARK    6  A    between atoms: CB   and  CG  
REMARK    7  A    between atoms: CG   and  CD  
REMARK    8  A    between atoms: CD   and  NE  
REMARK       I    between atoms: NE   and  CZ  
ROOT
ATOM      7  CA  ARG A 124      31.045  26.515   9.594  1.00 17.84     0.186 C 
ENDROOT
BRANCH   7   8
ATOM      8  CB  ARG A 124      29.529  26.705   9.647  1.00 16.18     0.036 C 
BRANCH   8   9
ATOM      9  CG  ARG A 124      28.966  27.300  10.987  1.00 16.22     0.029 C 
BRANCH   9  10
ATOM     10  CD  ARG A 124      28.324  26.228  11.897  1.00 15.09     0.145 C 
BRANCH  10  11
ATOM     11  NE  ARG A 124      27.925  26.734  13.228  1.00 16.98    -0.083 NA
ATOM     12  CZ  ARG A 124      26.749  27.282  13.512  1.00 18.21     0.782 C 
ATOM     13  NH1 ARG A 124      25.805  27.408  12.587  1.00 21.11     0.063 N 
ATOM     14  NH2 ARG A 124      26.491  27.693  14.744  1.00 21.25     0.063 N 
ENDBRANCH  10  11
ENDBRANCH   9  10
ENDBRANCH   8   9
ENDBRANCH   7   8
END_RES ARG A 124
BEGIN_RES ASN A 133
REMARK  2 active torsions:
REMARK  status: ('A' for Active; 'I' for Inactive)
REMARK    9  A    between atoms: CA   and  CB  
REMARK   10  A    between atoms: CB   and  CG  
ROOT
ATOM     15  CA  ASN A 133      31.225  30.257  11.749  1.00 18.15     0.196 C 
ENDROOT
BRANCH  15  16
ATOM     16  CB  ASN A 133      30.092  31.240  11.460  1.00 18.27     0.126 C 
BRANCH  16  17
ATOM     17  CG  ASN A 133      28.787  30.835  12.071  1.00 18.94     0.276 C 
ATOM     18  OD1 ASN A 133      28.465  31.214  13.199  1.00 18.09    -0.269 OA
ATOM     19  ND2 ASN A 133      28.013  30.048  11.325  1.00 18.93    -0.107 N 
ENDBRANCH  16  17
ENDBRANCH  15  16
END_RES ASN A 133
BEGIN_RES LYS A 131
REMARK  4 active torsions:
REMARK  status: ('A' for Active; 'I' for Inactive)
REMARK   11  A    between atoms: CA   and  CB  
REMARK   12  A    between atoms: CB   and  CG  
REMARK   13  A    between atoms: CG   and  CD  
REMARK   14  A    between atoms: CD   and  CE  
ROOT
ATOM     20  CA  LYS A 131      29.867  25.555  16.977  1.00 20.52     0.186 C 
ENDROOT
BRANCH  20  21
ATOM     21  CB  LYS A 131      28.345  25.722  17.026  1.00 20.94     0.034 C 
BRANCH  21  22
ATOM     22  CG  LYS A 131      27.600  24.410  16.832  1.00 22.96     0.005 C 
BRANCH  22  23
ATOM     23  CD  LYS A 131      26.809  24.022  18.050  1.00 24.33     0.041 C 
BRANCH  23  24
ATOM     24  CE  LYS A 131      25.891  25.173  18.449  1.00 26.91     0.338 C 
ATOM     25  NZ  LYS A 131      25.598  25.125  19.900  1.00 27.40     0.618 N 
ENDBRANCH  23  24
ENDBRANCH  22  23
ENDBRANCH  21  22
ENDBRANCH  20  21
END_RES LYS A 131
