REMARK VINA RESULT:    -6.886      1.062      2.596
REMARK INTER + INTRA:         -20.719
REMARK INTER:                 -11.641
REMARK INTRA:                  -9.078
REMARK UNBOUND:                -7.795
REMARK SMILES CC(=O)N[C@@H]1[C@@H](O)C[C@](O)(C(=O)O)O[C@H]1C(O)[C@H](O)CNC(=O)OCc1cn(-c2ccc(-c3c4ccc(=O)cc-4oc4cc(O)ccc34)c(C(=O)[O-])c2)nn1
REMARK SMILES IDX 21 1 22 2 23 3 20 5 18 6 16 7 15 8 9 9 8 10 14 11 6 12 5 13
REMARK SMILES IDX 10 14 11 16 12 17 13 18 7 20 4 22 2 23 1 25 3 26 17 27 19 29
REMARK SMILES IDX 24 31 25 32 26 33 27 34 55 35 28 36 54 37 29 38 53 39 30 40
REMARK SMILES IDX 49 41 31 42 32 43 50 44 51 45 52 46 33 47 48 48 34 49 47 50
REMARK SMILES IDX 42 51 40 52 35 53 46 54 43 55 41 56 39 57 36 58 44 59 37 60
REMARK SMILES IDX 38 61 45 62
REMARK H PARENT 21 4 10 15 13 19 7 21 4 24 17 28 19 30 45 63
REMARK Flexibility Score: inf
ROOT
ATOM      1  N   UNL     1      29.369  30.662  16.343  1.00  0.00    -0.319 N 
ATOM      2  C   UNL     1      28.318  30.067  17.057  1.00  0.00     0.407 C 
ATOM      3  O   UNL     1      28.367  29.977  18.288  1.00  0.00    -0.225 OA
ATOM      4  H   UNL     1      29.231  30.697  15.282  1.00  0.00     0.167 HD
ENDROOT
BRANCH   1   5
ATOM      5  C   UNL     1      30.579  31.214  16.885  1.00  0.00     0.154 C 
BRANCH   5   6
ATOM      6  C   UNL     1      31.093  32.443  16.227  1.00  0.00     0.165 C 
BRANCH   6   7
ATOM      7  C   UNL     1      30.220  33.651  16.328  1.00  0.00     0.176 C 
BRANCH   7   8
ATOM      8  C   UNL     1      30.980  34.886  16.753  1.00  0.00     0.178 C 
ATOM      9  C   UNL     1      31.575  36.184  18.529  1.00  0.00     0.269 C 
ATOM     10  C   UNL     1      31.813  37.327  17.534  1.00  0.00     0.112 C 
ATOM     11  O   UNL     1      30.703  35.227  18.050  1.00  0.00    -0.332 OA
ATOM     12  C   UNL     1      30.619  37.289  16.583  1.00  0.00     0.145 C 
ATOM     13  C   UNL     1      30.704  36.029  15.757  1.00  0.00     0.142 C 
BRANCH   9  14
ATOM     14  O   UNL     1      30.930  36.715  19.679  1.00  0.00    -0.357 OA
ATOM     15  H   UNL     1      30.348  37.466  19.387  1.00  0.00     0.214 HD
ENDBRANCH   9  14
BRANCH   9  16
ATOM     16  C   UNL     1      32.871  35.644  18.987  1.00  0.00     0.364 C 
ATOM     17  O   UNL     1      32.908  34.796  19.897  1.00  0.00    -0.246 OA
BRANCH  16  18
ATOM     18  O   UNL     1      34.101  36.027  18.458  1.00  0.00    -0.477 OA
ATOM     19  H   UNL     1      34.373  37.004  18.412  1.00  0.00     0.296 HD
ENDBRANCH  16  18
ENDBRANCH   9  16
BRANCH  12  20
ATOM     20  O   UNL     1      29.483  37.178  17.385  1.00  0.00    -0.391 OA
ATOM     21  H   UNL     1      29.514  37.769  18.171  1.00  0.00     0.211 HD
ENDBRANCH  12  20
BRANCH  13  22
ATOM     22  N   UNL     1      31.776  36.039  14.815  1.00  0.00    -0.348 N 
ATOM     23  C   UNL     1      31.737  35.435  13.526  1.00  0.00     0.217 C 
ATOM     24  H   UNL     1      32.663  36.535  15.110  1.00  0.00     0.163 HD
ATOM     25  C   UNL     1      32.929  35.534  12.672  1.00  0.00     0.114 C 
ATOM     26  O   UNL     1      30.677  34.851  13.196  1.00  0.00    -0.275 OA
ENDBRANCH  13  22
ENDBRANCH   7   8
BRANCH   7  27
ATOM     27  O   UNL     1      29.146  33.487  17.190  1.00  0.00    -0.388 OA
ATOM     28  H   UNL     1      28.988  34.359  17.641  1.00  0.00     0.211 HD
ENDBRANCH   7  27
ENDBRANCH   6   7
BRANCH   6  29
ATOM     29  O   UNL     1      31.462  32.227  14.883  1.00  0.00    -0.388 OA
ATOM     30  H   UNL     1      30.693  31.854  14.391  1.00  0.00     0.211 HD
ENDBRANCH   6  29
ENDBRANCH   5   6
ENDBRANCH   1   5
BRANCH   2  31
ATOM     31  O   UNL     1      27.182  29.552  16.425  1.00  0.00    -0.443 OA
BRANCH  31  32
ATOM     32  C   UNL     1      25.903  30.142  16.621  1.00  0.00     0.294 C 
BRANCH  32  33
ATOM     33  C   UNL     1      26.002  31.553  16.167  1.00  0.00     0.121 A 
ATOM     34  C   UNL     1      25.806  31.982  14.871  1.00  0.00     0.144 A 
ATOM     35  N   UNL     1      26.287  32.666  16.863  1.00  0.00    -0.131 NA
ATOM     36  N   UNL     1      25.980  33.318  14.841  1.00  0.00    -0.220 N 
ATOM     37  N   UNL     1      26.273  33.722  16.068  1.00  0.00    -0.062 NA
BRANCH  36  38
ATOM     38  C   UNL     1      25.857  34.111  13.659  1.00  0.00     0.067 A 
ATOM     39  C   UNL     1      25.398  35.409  13.676  1.00  0.00     0.039 A 
ATOM     40  C   UNL     1      26.208  33.590  12.421  1.00  0.00     0.029 A 
ATOM     41  C   UNL     1      25.288  36.167  12.512  1.00  0.00     0.007 A 
ATOM     42  C   UNL     1      26.101  34.336  11.266  1.00  0.00     0.012 A 
ATOM     43  C   UNL     1      25.642  35.634  11.291  1.00  0.00    -0.008 A 
BRANCH  41  44
ATOM     44  C   UNL     1      24.798  37.538  12.565  1.00  0.00     0.072 C 
ATOM     45  O   UNL     1      25.586  38.501  12.687  1.00  0.00    -0.545 OA
ATOM     46  O   UNL     1      23.434  37.756  12.476  1.00  0.00    -0.545 OA
ENDBRANCH  41  44
BRANCH  43  47
ATOM     47  C   UNL     1      25.521  36.444  10.088  1.00  0.00     0.004 A 
ATOM     48  C   UNL     1      24.353  36.462   9.346  1.00  0.00     0.026 A 
ATOM     49  C   UNL     1      26.554  37.235   9.618  1.00  0.00     0.026 A 
ATOM     50  C   UNL     1      23.261  35.703   9.737  1.00  0.00     0.016 A 
ATOM     51  C   UNL     1      24.269  37.247   8.202  1.00  0.00     0.139 A 
ATOM     52  C   UNL     1      26.415  38.042   8.409  1.00  0.00     0.139 A 
ATOM     53  C   UNL     1      27.743  37.259  10.316  1.00  0.00     0.016 A 
ATOM     54  C   UNL     1      22.088  35.713   9.003  1.00  0.00     0.047 A 
ATOM     55  C   UNL     1      23.100  37.257   7.471  1.00  0.00     0.093 A 
ATOM     56  O   UNL     1      25.273  37.994   7.775  1.00  0.00    -0.456 OA
ATOM     57  C   UNL     1      27.443  38.827   7.946  1.00  0.00     0.099 A 
ATOM     58  C   UNL     1      28.760  38.058   9.826  1.00  0.00     0.053 A 
ATOM     59  C   UNL     1      22.019  36.494   7.872  1.00  0.00     0.119 A 
ATOM     60  C   UNL     1      28.615  38.824   8.669  1.00  0.00     0.182 A 
ATOM     61  O   UNL     1      29.620  39.502   8.340  1.00  0.00    -0.290 OA
BRANCH  59  62
ATOM     62  O   UNL     1      20.851  36.525   7.111  1.00  0.00    -0.508 OA
ATOM     63  H   UNL     1      20.730  37.130   6.334  1.00  0.00     0.293 HD
ENDBRANCH  59  62
ENDBRANCH  43  47
ENDBRANCH  36  38
ENDBRANCH  32  33
ENDBRANCH  31  32
ENDBRANCH   2  31
TORSDOF 18
BEGIN_RES LYS A 135
REMARK  4 active torsions:
REMARK  status: ('A' for Active; 'I' for Inactive)
REMARK    1  A    between atoms: CA   and  CB  
REMARK    2  A    between atoms: CB   and  CG  
REMARK    3  A    between atoms: CG   and  CD  
REMARK    4  A    between atoms: CD   and  CE  
ROOT
ATOM      1  CA  LYS A 135      33.193  34.663   9.290  1.00 25.02     0.186 C 
ENDROOT
BRANCH   1   2
ATOM      2  CB  LYS A 135      32.060  35.360  10.034  1.00 26.63     0.034 C 
BRANCH   2   3
ATOM      3  CG  LYS A 135      30.693  34.839   9.674  1.00 29.45     0.005 C 
BRANCH   3   4
ATOM      4  CD  LYS A 135      30.603  34.551   8.184  1.00 32.00     0.041 C 
BRANCH   4   5
ATOM      5  CE  LYS A 135      29.328  35.134   7.605  1.00 34.25     0.338 C 
ATOM      6  NZ  LYS A 135      28.125  34.501   8.212  1.00 35.99     0.618 N 
ENDBRANCH   4   5
ENDBRANCH   3   4
ENDBRANCH   2   3
ENDBRANCH   1   2
END_RES LYS A 135
BEGIN_RES ARG A 124
REMARK  4 active torsions:
REMARK  status: ('A' for Active; 'I' for Inactive)
REMARK    5  A    between atoms: CA   and  CB  
REMARK    6  A    between atoms: CB   and  CG  
REMARK    7  A    between atoms: CG   and  CD  
REMARK    8  A    between atoms: CD   and  NE  
REMARK       I    between atoms: NE   and  CZ  
ROOT
ATOM      7  CA  ARG A 124      31.045  26.515   9.594  1.00 17.84     0.186 C 
ENDROOT
BRANCH   7   8
ATOM      8  CB  ARG A 124      29.529  26.705   9.647  1.00 16.18     0.036 C 
BRANCH   8   9
ATOM      9  CG  ARG A 124      28.987  27.493  10.893  1.00 16.22     0.029 C 
BRANCH   9  10
ATOM     10  CD  ARG A 124      28.008  26.659  11.751  1.00 15.09     0.145 C 
BRANCH  10  11
ATOM     11  NE  ARG A 124      26.618  27.163  11.733  1.00 16.98    -0.083 NA
ATOM     12  CZ  ARG A 124      25.886  27.412  12.814  1.00 18.21     0.782 C 
ATOM     13  NH1 ARG A 124      26.374  27.229  14.035  1.00 21.11     0.063 N 
ATOM     14  NH2 ARG A 124      24.651  27.873  12.684  1.00 21.25     0.063 N 
ENDBRANCH  10  11
ENDBRANCH   9  10
ENDBRANCH   8   9
ENDBRANCH   7   8
END_RES ARG A 124
BEGIN_RES ASN A 133
REMARK  2 active torsions:
REMARK  status: ('A' for Active; 'I' for Inactive)
REMARK    9  A    between atoms: CA   and  CB  
REMARK   10  A    between atoms: CB   and  CG  
ROOT
ATOM     15  CA  ASN A 133      31.225  30.257  11.749  1.00 18.15     0.196 C 
ENDROOT
BRANCH  15  16
ATOM     16  CB  ASN A 133      30.092  31.240  11.460  1.00 18.27     0.126 C 
BRANCH  16  17
ATOM     17  CG  ASN A 133      29.002  31.205  12.486  1.00 18.94     0.276 C 
ATOM     18  OD1 ASN A 133      29.072  31.880  13.515  1.00 18.09    -0.269 OA
ATOM     19  ND2 ASN A 133      27.971  30.405  12.214  1.00 18.93    -0.107 N 
ENDBRANCH  16  17
ENDBRANCH  15  16
END_RES ASN A 133
BEGIN_RES LYS A 131
REMARK  4 active torsions:
REMARK  status: ('A' for Active; 'I' for Inactive)
REMARK   11  A    between atoms: CA   and  CB  
REMARK   12  A    between atoms: CB   and  CG  
REMARK   13  A    between atoms: CG   and  CD  
REMARK   14  A    between atoms: CD   and  CE  
ROOT
ATOM     20  CA  LYS A 131      29.867  25.555  16.977  1.00 20.52     0.186 C 
ENDROOT
BRANCH  20  21
ATOM     21  CB  LYS A 131      28.345  25.722  17.026  1.00 20.94     0.034 C 
BRANCH  21  22
ATOM     22  CG  LYS A 131      27.600  24.407  16.853  1.00 22.96     0.005 C 
BRANCH  22  23
ATOM     23  CD  LYS A 131      26.161  24.512  17.274  1.00 24.33     0.041 C 
BRANCH  23  24
ATOM     24  CE  LYS A 131      25.648  23.134  17.679  1.00 26.91     0.338 C 
ATOM     25  NZ  LYS A 131      25.355  23.095  19.131  1.00 27.40     0.618 N 
ENDBRANCH  23  24
ENDBRANCH  22  23
ENDBRANCH  21  22
ENDBRANCH  20  21
END_RES LYS A 131
