REMARK VINA RESULT:    -6.713      1.992      3.535
REMARK INTER + INTRA:         -20.395
REMARK INTER:                 -11.487
REMARK INTRA:                  -8.908
REMARK UNBOUND:                -7.795
REMARK SMILES CC(=O)N[C@@H]1[C@@H](O)C[C@](O)(C(=O)O)O[C@H]1C(O)[C@H](O)CNC(=O)OCc1cn(-c2ccc(-c3c4ccc(=O)cc-4oc4cc(O)ccc34)c(C(=O)[O-])c2)nn1
REMARK SMILES IDX 21 1 22 2 23 3 20 5 18 6 16 7 15 8 9 9 8 10 14 11 6 12 5 13
REMARK SMILES IDX 10 14 11 16 12 17 13 18 7 20 4 22 2 23 1 25 3 26 17 27 19 29
REMARK SMILES IDX 24 31 25 32 26 33 27 34 55 35 28 36 54 37 29 38 53 39 30 40
REMARK SMILES IDX 49 41 31 42 32 43 50 44 51 45 52 46 33 47 48 48 34 49 47 50
REMARK SMILES IDX 42 51 40 52 35 53 46 54 43 55 41 56 39 57 36 58 44 59 37 60
REMARK SMILES IDX 38 61 45 62
REMARK H PARENT 21 4 10 15 13 19 7 21 4 24 17 28 19 30 45 63
REMARK Flexibility Score: inf
ROOT
ATOM      1  N   UNL     1      27.275  32.427  19.564  1.00  0.00    -0.319 N 
ATOM      2  C   UNL     1      26.279  33.379  19.826  1.00  0.00     0.407 C 
ATOM      3  O   UNL     1      26.579  34.555  20.058  1.00  0.00    -0.225 OA
ATOM      4  H   UNL     1      26.914  31.438  19.370  1.00  0.00     0.167 HD
ENDROOT
BRANCH   1   5
ATOM      5  C   UNL     1      28.695  32.647  19.533  1.00  0.00     0.154 C 
BRANCH   5   6
ATOM      6  C   UNL     1      29.260  33.109  18.239  1.00  0.00     0.165 C 
BRANCH   6   7
ATOM      7  C   UNL     1      29.315  34.589  18.042  1.00  0.00     0.176 C 
BRANCH   7   8
ATOM      8  C   UNL     1      30.346  35.002  17.016  1.00  0.00     0.178 C 
ATOM      9  C   UNL     1      30.676  35.549  14.829  1.00  0.00     0.269 C 
ATOM     10  C   UNL     1      32.154  35.188  15.027  1.00  0.00     0.112 C 
ATOM     11  O   UNL     1      29.845  34.935  15.744  1.00  0.00    -0.332 OA
ATOM     12  C   UNL     1      32.146  33.882  15.818  1.00  0.00     0.145 C 
ATOM     13  C   UNL     1      31.625  34.166  17.206  1.00  0.00     0.142 C 
BRANCH   9  14
ATOM     14  O   UNL     1      30.255  35.050  13.567  1.00  0.00    -0.357 OA
ATOM     15  H   UNL     1      30.923  35.329  12.887  1.00  0.00     0.214 HD
ENDBRANCH   9  14
BRANCH   9  16
ATOM     16  C   UNL     1      30.526  37.018  14.770  1.00  0.00     0.364 C 
ATOM     17  O   UNL     1      31.516  37.738  14.547  1.00  0.00    -0.246 OA
BRANCH  16  18
ATOM     18  O   UNL     1      29.316  37.682  14.952  1.00  0.00    -0.477 OA
ATOM     19  H   UNL     1      28.696  37.446  15.722  1.00  0.00     0.296 HD
ENDBRANCH  16  18
ENDBRANCH   9  16
BRANCH  12  20
ATOM     20  O   UNL     1      31.217  33.050  15.193  1.00  0.00    -0.391 OA
ATOM     21  H   UNL     1      31.556  32.668  14.353  1.00  0.00     0.211 HD
ENDBRANCH  12  20
BRANCH  13  22
ATOM     22  N   UNL     1      32.523  34.938  18.003  1.00  0.00    -0.348 N 
ATOM     23  C   UNL     1      32.777  34.725  19.388  1.00  0.00     0.217 C 
ATOM     24  H   UNL     1      33.031  35.728  17.515  1.00  0.00     0.163 HD
ATOM     25  C   UNL     1      33.732  35.611  20.067  1.00  0.00     0.114 C 
ATOM     26  O   UNL     1      32.163  33.785  19.946  1.00  0.00    -0.275 OA
ENDBRANCH  13  22
ENDBRANCH   7   8
BRANCH   7  27
ATOM     27  O   UNL     1      29.562  35.294  19.211  1.00  0.00    -0.388 OA
ATOM     28  H   UNL     1      29.766  36.233  18.956  1.00  0.00     0.211 HD
ENDBRANCH   7  27
ENDBRANCH   6   7
BRANCH   6  29
ATOM     29  O   UNL     1      28.643  32.497  17.127  1.00  0.00    -0.388 OA
ATOM     30  H   UNL     1      29.038  32.856  16.299  1.00  0.00     0.211 HD
ENDBRANCH   6  29
ENDBRANCH   5   6
ENDBRANCH   1   5
BRANCH   2  31
ATOM     31  O   UNL     1      24.919  33.055  19.839  1.00  0.00    -0.443 OA
BRANCH  31  32
ATOM     32  C   UNL     1      24.069  33.412  18.756  1.00  0.00     0.294 C 
BRANCH  32  33
ATOM     33  C   UNL     1      24.780  33.040  17.506  1.00  0.00     0.121 A 
ATOM     34  C   UNL     1      24.860  33.829  16.377  1.00  0.00     0.144 A 
ATOM     35  N   UNL     1      25.465  31.926  17.200  1.00  0.00    -0.131 NA
ATOM     36  N   UNL     1      25.579  33.165  15.451  1.00  0.00    -0.220 N 
ATOM     37  N   UNL     1      25.943  32.002  15.970  1.00  0.00    -0.062 NA
BRANCH  36  38
ATOM     38  C   UNL     1      25.867  33.677  14.149  1.00  0.00     0.067 A 
ATOM     39  C   UNL     1      26.345  34.952  13.937  1.00  0.00     0.039 A 
ATOM     40  C   UNL     1      25.673  32.888  13.023  1.00  0.00     0.029 A 
ATOM     41  C   UNL     1      26.621  35.431  12.658  1.00  0.00     0.007 A 
ATOM     42  C   UNL     1      25.945  33.359  11.755  1.00  0.00     0.012 A 
ATOM     43  C   UNL     1      26.424  34.634  11.552  1.00  0.00    -0.008 A 
BRANCH  41  44
ATOM     44  C   UNL     1      27.127  36.785  12.469  1.00  0.00     0.072 C 
ATOM     45  O   UNL     1      26.355  37.769  12.476  1.00  0.00    -0.545 OA
ATOM     46  O   UNL     1      28.486  36.962  12.278  1.00  0.00    -0.545 OA
ENDBRANCH  41  44
BRANCH  43  47
ATOM     47  C   UNL     1      26.721  35.155  10.225  1.00  0.00     0.004 A 
ATOM     48  C   UNL     1      27.948  34.935   9.624  1.00  0.00     0.026 A 
ATOM     49  C   UNL     1      25.808  35.894   9.495  1.00  0.00     0.026 A 
ATOM     50  C   UNL     1      28.929  34.206  10.276  1.00  0.00     0.016 A 
ATOM     51  C   UNL     1      28.202  35.446   8.356  1.00  0.00     0.139 A 
ATOM     52  C   UNL     1      26.123  36.409   8.166  1.00  0.00     0.139 A 
ATOM     53  C   UNL     1      24.568  36.145  10.042  1.00  0.00     0.016 A 
ATOM     54  C   UNL     1      30.159  33.979   9.685  1.00  0.00     0.047 A 
ATOM     55  C   UNL     1      29.427  35.220   7.766  1.00  0.00     0.093 A 
ATOM     56  O   UNL     1      27.309  36.149   7.680  1.00  0.00    -0.456 OA
ATOM     57  C   UNL     1      25.213  37.142   7.443  1.00  0.00     0.099 A 
ATOM     58  C   UNL     1      23.672  36.886   9.293  1.00  0.00     0.053 A 
ATOM     59  C   UNL     1      30.397  34.491   8.429  1.00  0.00     0.119 A 
ATOM     60  C   UNL     1      23.986  37.373   8.023  1.00  0.00     0.182 A 
ATOM     61  O   UNL     1      23.078  38.029   7.456  1.00  0.00    -0.290 OA
BRANCH  59  62
ATOM     62  O   UNL     1      31.627  34.280   7.806  1.00  0.00    -0.508 OA
ATOM     63  H   UNL     1      31.954  33.380   7.550  1.00  0.00     0.293 HD
ENDBRANCH  59  62
ENDBRANCH  43  47
ENDBRANCH  36  38
ENDBRANCH  32  33
ENDBRANCH  31  32
ENDBRANCH   2  31
TORSDOF 18
BEGIN_RES LYS A 135
REMARK  4 active torsions:
REMARK  status: ('A' for Active; 'I' for Inactive)
REMARK    1  A    between atoms: CA   and  CB  
REMARK    2  A    between atoms: CB   and  CG  
REMARK    3  A    between atoms: CG   and  CD  
REMARK    4  A    between atoms: CD   and  CE  
ROOT
ATOM      1  CA  LYS A 135      33.193  34.663   9.290  1.00 25.02     0.186 C 
ENDROOT
BRANCH   1   2
ATOM      2  CB  LYS A 135      32.060  35.360  10.034  1.00 26.63     0.034 C 
BRANCH   2   3
ATOM      3  CG  LYS A 135      32.534  36.266  11.141  1.00 29.45     0.005 C 
BRANCH   3   4
ATOM      4  CD  LYS A 135      31.790  37.592  11.104  1.00 32.00     0.041 C 
BRANCH   4   5
ATOM      5  CE  LYS A 135      31.356  37.921   9.688  1.00 34.25     0.338 C 
ATOM      6  NZ  LYS A 135      29.928  38.340   9.649  1.00 35.99     0.618 N 
ENDBRANCH   4   5
ENDBRANCH   3   4
ENDBRANCH   2   3
ENDBRANCH   1   2
END_RES LYS A 135
BEGIN_RES ARG A 124
REMARK  4 active torsions:
REMARK  status: ('A' for Active; 'I' for Inactive)
REMARK    5  A    between atoms: CA   and  CB  
REMARK    6  A    between atoms: CB   and  CG  
REMARK    7  A    between atoms: CG   and  CD  
REMARK    8  A    between atoms: CD   and  NE  
REMARK       I    between atoms: NE   and  CZ  
ROOT
ATOM      7  CA  ARG A 124      31.045  26.515   9.594  1.00 17.84     0.186 C 
ENDROOT
BRANCH   7   8
ATOM      8  CB  ARG A 124      29.529  26.705   9.647  1.00 16.18     0.036 C 
BRANCH   8   9
ATOM      9  CG  ARG A 124      28.981  27.439  10.923  1.00 16.22     0.029 C 
BRANCH   9  10
ATOM     10  CD  ARG A 124      28.005  26.566  11.744  1.00 15.09     0.145 C 
BRANCH  10  11
ATOM     11  NE  ARG A 124      26.619  27.084  11.773  1.00 16.98    -0.083 NA
ATOM     12  CZ  ARG A 124      25.978  27.477  12.869  1.00 18.21     0.782 C 
ATOM     13  NH1 ARG A 124      26.562  27.443  14.060  1.00 21.11     0.063 N 
ATOM     14  NH2 ARG A 124      24.739  27.936  12.780  1.00 21.25     0.063 N 
ENDBRANCH  10  11
ENDBRANCH   9  10
ENDBRANCH   8   9
ENDBRANCH   7   8
END_RES ARG A 124
BEGIN_RES ASN A 133
REMARK  2 active torsions:
REMARK  status: ('A' for Active; 'I' for Inactive)
REMARK    9  A    between atoms: CA   and  CB  
REMARK   10  A    between atoms: CB   and  CG  
ROOT
ATOM     15  CA  ASN A 133      31.225  30.257  11.749  1.00 18.15     0.196 C 
ENDROOT
BRANCH  15  16
ATOM     16  CB  ASN A 133      30.092  31.240  11.460  1.00 18.27     0.126 C 
BRANCH  16  17
ATOM     17  CG  ASN A 133      29.112  31.360  12.585  1.00 18.94     0.276 C 
ATOM     18  OD1 ASN A 133      29.185  32.282  13.400  1.00 18.09    -0.269 OA
ATOM     19  ND2 ASN A 133      28.173  30.417  12.644  1.00 18.93    -0.107 N 
ENDBRANCH  16  17
ENDBRANCH  15  16
END_RES ASN A 133
BEGIN_RES LYS A 131
REMARK  4 active torsions:
REMARK  status: ('A' for Active; 'I' for Inactive)
REMARK   11  A    between atoms: CA   and  CB  
REMARK   12  A    between atoms: CB   and  CG  
REMARK   13  A    between atoms: CG   and  CD  
REMARK   14  A    between atoms: CD   and  CE  
ROOT
ATOM     20  CA  LYS A 131      29.867  25.555  16.977  1.00 20.52     0.186 C 
ENDROOT
BRANCH  20  21
ATOM     21  CB  LYS A 131      28.345  25.722  17.026  1.00 20.94     0.034 C 
BRANCH  21  22
ATOM     22  CG  LYS A 131      27.600  24.408  16.846  1.00 22.96     0.005 C 
BRANCH  22  23
ATOM     23  CD  LYS A 131      26.162  24.509  17.273  1.00 24.33     0.041 C 
BRANCH  23  24
ATOM     24  CE  LYS A 131      25.637  23.121  17.625  1.00 26.91     0.338 C 
ATOM     25  NZ  LYS A 131      25.326  23.035  19.071  1.00 27.40     0.618 N 
ENDBRANCH  23  24
ENDBRANCH  22  23
ENDBRANCH  21  22
ENDBRANCH  20  21
END_RES LYS A 131
