REMARK VINA RESULT:    -4.906      2.668      6.015
REMARK INTER + INTRA:         -16.852
REMARK INTER:                  -7.853
REMARK INTRA:                  -8.999
REMARK UNBOUND:                -8.360
REMARK SMILES CC(=O)N[C@@H]1[C@@H](O)C[C@](O)(C(=O)O)O[C@H]1C(O)[C@H](O)CNC(=O)OCc1cn(-c2ccc(C)cc2)nn1
REMARK SMILES IDX 20 1 18 2 16 3 15 4 9 5 8 6 14 7 6 8 5 9 10 10 11 12 12 13
REMARK SMILES IDX 13 14 7 16 4 18 2 19 1 21 3 22 17 23 19 25 21 27 22 28 23 30
REMARK SMILES IDX 24 31 25 32 26 33 27 34 37 35 28 36 36 37 29 38 30 39 35 40
REMARK SMILES IDX 31 41 34 42 32 43 33 44
REMARK H PARENT 10 11 13 15 7 17 4 20 17 24 19 26 21 29
REMARK Flexibility Score: inf
ROOT
ATOM      1  C   UNL     1      25.472  28.096  19.534  1.00  0.00     0.154 C 
ENDROOT
BRANCH   1   2
ATOM      2  C   UNL     1      26.565  27.588  20.411  1.00  0.00     0.165 C 
BRANCH   2   3
ATOM      3  C   UNL     1      27.872  28.245  19.990  1.00  0.00     0.176 C 
BRANCH   3   4
ATOM      4  C   UNL     1      28.547  28.955  21.140  1.00  0.00     0.178 C 
ATOM      5  C   UNL     1      28.333  31.213  20.576  1.00  0.00     0.269 C 
ATOM      6  C   UNL     1      29.824  31.424  20.559  1.00  0.00     0.112 C 
ATOM      7  O   UNL     1      28.014  30.189  21.405  1.00  0.00    -0.332 OA
ATOM      8  C   UNL     1      30.601  30.167  20.323  1.00  0.00     0.145 C 
ATOM      9  C   UNL     1      30.047  28.951  20.993  1.00  0.00     0.142 C 
BRANCH   5  10
ATOM     10  O   UNL     1      27.878  31.093  19.282  1.00  0.00    -0.357 OA
ATOM     11  H   UNL     1      28.304  30.291  18.878  1.00  0.00     0.214 HD
ENDBRANCH   5  10
BRANCH   5  12
ATOM     12  C   UNL     1      27.742  32.455  21.148  1.00  0.00     0.364 C 
ATOM     13  O   UNL     1      27.878  32.756  22.369  1.00  0.00    -0.246 OA
BRANCH  12  14
ATOM     14  O   UNL     1      27.022  33.328  20.362  1.00  0.00    -0.477 OA
ATOM     15  H   UNL     1      27.435  34.054  19.782  1.00  0.00     0.296 HD
ENDBRANCH  12  14
ENDBRANCH   5  12
BRANCH   8  16
ATOM     16  O   UNL     1      30.735  29.995  18.941  1.00  0.00    -0.391 OA
ATOM     17  H   UNL     1      30.068  30.566  18.494  1.00  0.00     0.211 HD
ENDBRANCH   8  16
BRANCH   9  18
ATOM     18  N   UNL     1      30.696  28.739  22.272  1.00  0.00    -0.348 N 
ATOM     19  C   UNL     1      31.050  27.432  22.664  1.00  0.00     0.217 C 
ATOM     20  H   UNL     1      30.912  29.558  22.922  1.00  0.00     0.163 HD
ATOM     21  C   UNL     1      31.707  27.203  23.955  1.00  0.00     0.114 C 
ATOM     22  O   UNL     1      30.806  26.458  21.913  1.00  0.00    -0.275 OA
ENDBRANCH   9  18
ENDBRANCH   3   4
BRANCH   3  23
ATOM     23  O   UNL     1      28.763  27.311  19.478  1.00  0.00    -0.388 OA
ATOM     24  H   UNL     1      29.656  27.686  19.282  1.00  0.00     0.211 HD
ENDBRANCH   3  23
ENDBRANCH   2   3
BRANCH   2  25
ATOM     25  O   UNL     1      26.754  26.227  20.442  1.00  0.00    -0.388 OA
ATOM     26  H   UNL     1      26.274  25.756  21.159  1.00  0.00     0.211 HD
ENDBRANCH   2  25
ENDBRANCH   1   2
BRANCH   1  27
ATOM     27  N   UNL     1      25.971  28.568  18.277  1.00  0.00    -0.319 N 
ATOM     28  C   UNL     1      25.179  28.914  17.154  1.00  0.00     0.407 C 
ATOM     29  H   UNL     1      27.033  28.684  18.127  1.00  0.00     0.167 HD
ATOM     30  O   UNL     1      23.932  28.834  17.201  1.00  0.00    -0.225 OA
BRANCH  28  31
ATOM     31  O   UNL     1      25.784  29.358  15.956  1.00  0.00    -0.443 OA
BRANCH  31  32
ATOM     32  C   UNL     1      26.018  30.747  15.825  1.00  0.00     0.294 C 
BRANCH  32  33
ATOM     33  C   UNL     1      27.485  30.999  16.051  1.00  0.00     0.121 A 
ATOM     34  C   UNL     1      28.158  32.193  15.879  1.00  0.00     0.144 A 
ATOM     35  N   UNL     1      28.425  30.126  16.463  1.00  0.00    -0.131 NA
ATOM     36  N   UNL     1      29.458  32.015  16.183  1.00  0.00    -0.220 N 
ATOM     37  N   UNL     1      29.584  30.753  16.532  1.00  0.00    -0.062 NA
BRANCH  36  38
ATOM     38  C   UNL     1      30.530  32.954  16.157  1.00  0.00     0.066 A 
ATOM     39  C   UNL     1      30.929  33.605  17.310  1.00  0.00     0.029 A 
ATOM     40  C   UNL     1      31.221  33.262  15.001  1.00  0.00     0.029 A 
ATOM     41  C   UNL     1      31.963  34.518  17.313  1.00  0.00     0.005 A 
ATOM     42  C   UNL     1      32.255  34.174  14.998  1.00  0.00     0.005 A 
ATOM     43  C   UNL     1      32.645  34.819  16.152  1.00  0.00    -0.051 A 
ATOM     44  C   UNL     1      33.762  35.812  16.184  1.00  0.00     0.044 C 
ENDBRANCH  36  38
ENDBRANCH  32  33
ENDBRANCH  31  32
ENDBRANCH  28  31
ENDBRANCH   1  27
TORSDOF 15
BEGIN_RES LYS A 135
REMARK  4 active torsions:
REMARK  status: ('A' for Active; 'I' for Inactive)
REMARK    1  A    between atoms: CA   and  CB  
REMARK    2  A    between atoms: CB   and  CG  
REMARK    3  A    between atoms: CG   and  CD  
REMARK    4  A    between atoms: CD   and  CE  
ROOT
ATOM      1  CA  LYS A 135      33.193  34.663   9.290  1.00 25.02     0.186 C 
ENDROOT
BRANCH   1   2
ATOM      2  CB  LYS A 135      32.060  35.360  10.034  1.00 26.63     0.034 C 
BRANCH   2   3
ATOM      3  CG  LYS A 135      30.700  34.782   9.739  1.00 29.45     0.005 C 
BRANCH   3   4
ATOM      4  CD  LYS A 135      30.533  34.537   8.247  1.00 32.00     0.041 C 
BRANCH   4   5
ATOM      5  CE  LYS A 135      29.139  34.928   7.796  1.00 34.25     0.338 C 
ATOM      6  NZ  LYS A 135      29.009  36.406   7.677  1.00 35.99     0.618 N 
ENDBRANCH   4   5
ENDBRANCH   3   4
ENDBRANCH   2   3
ENDBRANCH   1   2
END_RES LYS A 135
BEGIN_RES ARG A 124
REMARK  4 active torsions:
REMARK  status: ('A' for Active; 'I' for Inactive)
REMARK    5  A    between atoms: CA   and  CB  
REMARK    6  A    between atoms: CB   and  CG  
REMARK    7  A    between atoms: CG   and  CD  
REMARK    8  A    between atoms: CD   and  NE  
REMARK       I    between atoms: NE   and  CZ  
ROOT
ATOM      7  CA  ARG A 124      31.045  26.515   9.594  1.00 17.84     0.186 C 
ENDROOT
BRANCH   7   8
ATOM      8  CB  ARG A 124      29.529  26.705   9.647  1.00 16.18     0.036 C 
BRANCH   8   9
ATOM      9  CG  ARG A 124      28.899  26.739  11.085  1.00 16.22     0.029 C 
BRANCH   9  10
ATOM     10  CD  ARG A 124      27.497  26.090  11.142  1.00 15.09     0.145 C 
BRANCH  10  11
ATOM     11  NE  ARG A 124      26.403  27.052  11.398  1.00 16.98    -0.083 NA
ATOM     12  CZ  ARG A 124      26.030  27.476  12.601  1.00 18.21     0.782 C 
ATOM     13  NH1 ARG A 124      26.647  27.061  13.701  1.00 21.11     0.063 N 
ATOM     14  NH2 ARG A 124      25.042  28.350  12.717  1.00 21.25     0.063 N 
ENDBRANCH  10  11
ENDBRANCH   9  10
ENDBRANCH   8   9
ENDBRANCH   7   8
END_RES ARG A 124
BEGIN_RES ASN A 133
REMARK  2 active torsions:
REMARK  status: ('A' for Active; 'I' for Inactive)
REMARK    9  A    between atoms: CA   and  CB  
REMARK   10  A    between atoms: CB   and  CG  
ROOT
ATOM     15  CA  ASN A 133      31.225  30.257  11.749  1.00 18.15     0.196 C 
ENDROOT
BRANCH  15  16
ATOM     16  CB  ASN A 133      30.092  31.240  11.460  1.00 18.27     0.126 C 
BRANCH  16  17
ATOM     17  CG  ASN A 133      28.740  30.596  11.443  1.00 18.94     0.276 C 
ATOM     18  OD1 ASN A 133      28.402  29.845  10.526  1.00 18.09    -0.269 OA
ATOM     19  ND2 ASN A 133      27.942  30.889  12.469  1.00 18.93    -0.107 N 
ENDBRANCH  16  17
ENDBRANCH  15  16
END_RES ASN A 133
BEGIN_RES LYS A 131
REMARK  4 active torsions:
REMARK  status: ('A' for Active; 'I' for Inactive)
REMARK   11  A    between atoms: CA   and  CB  
REMARK   12  A    between atoms: CB   and  CG  
REMARK   13  A    between atoms: CG   and  CD  
REMARK   14  A    between atoms: CD   and  CE  
ROOT
ATOM     20  CA  LYS A 131      29.867  25.555  16.977  1.00 20.52     0.186 C 
ENDROOT
BRANCH  20  21
ATOM     21  CB  LYS A 131      28.345  25.722  17.026  1.00 20.94     0.034 C 
BRANCH  21  22
ATOM     22  CG  LYS A 131      27.600  24.414  16.811  1.00 22.96     0.005 C 
BRANCH  22  23
ATOM     23  CD  LYS A 131      26.303  24.368  17.571  1.00 24.33     0.041 C 
BRANCH  23  24
ATOM     24  CE  LYS A 131      25.250  25.185  16.830  1.00 26.91     0.338 C 
ATOM     25  NZ  LYS A 131      23.993  24.411  16.697  1.00 27.40     0.618 N 
ENDBRANCH  23  24
ENDBRANCH  22  23
ENDBRANCH  21  22
ENDBRANCH  20  21
END_RES LYS A 131
