REMARK VINA RESULT:    -6.670      4.048      9.504
REMARK INTER + INTRA:         -20.314
REMARK INTER:                  -9.533
REMARK INTRA:                 -10.781
REMARK UNBOUND:                -7.795
REMARK SMILES CC(=O)N[C@@H]1[C@@H](O)C[C@](O)(C(=O)O)O[C@H]1C(O)[C@H](O)CNC(=O)OCc1cn(-c2ccc(-c3c4ccc(=O)cc-4oc4cc(O)ccc34)c(C(=O)[O-])c2)nn1
REMARK SMILES IDX 21 1 22 2 23 3 20 5 18 6 16 7 15 8 9 9 8 10 14 11 6 12 5 13
REMARK SMILES IDX 10 14 11 16 12 17 13 18 7 20 4 22 2 23 1 25 3 26 17 27 19 29
REMARK SMILES IDX 24 31 25 32 26 33 27 34 55 35 28 36 54 37 29 38 53 39 30 40
REMARK SMILES IDX 49 41 31 42 32 43 50 44 51 45 52 46 33 47 48 48 34 49 47 50
REMARK SMILES IDX 42 51 40 52 35 53 46 54 43 55 41 56 39 57 36 58 44 59 37 60
REMARK SMILES IDX 38 61 45 62
REMARK H PARENT 21 4 10 15 13 19 7 21 4 24 17 28 19 30 45 63
REMARK Flexibility Score: inf
ROOT
ATOM      1  N   UNL     1      33.271  42.342   4.982  1.00  0.00    -0.319 N 
ATOM      2  C   UNL     1      34.626  42.089   5.246  1.00  0.00     0.407 C 
ATOM      3  O   UNL     1      35.153  41.037   4.869  1.00  0.00    -0.225 OA
ATOM      4  H   UNL     1      32.909  43.282   5.344  1.00  0.00     0.167 HD
ENDROOT
BRANCH   1   5
ATOM      5  C   UNL     1      32.349  41.482   4.293  1.00  0.00     0.154 C 
BRANCH   5   6
ATOM      6  C   UNL     1      31.679  40.442   5.117  1.00  0.00     0.165 C 
BRANCH   6   7
ATOM      7  C   UNL     1      30.902  40.941   6.291  1.00  0.00     0.176 C 
BRANCH   7   8
ATOM      8  C   UNL     1      29.496  40.387   6.337  1.00  0.00     0.178 C 
ATOM      9  C   UNL     1      28.029  38.956   5.342  1.00  0.00     0.269 C 
ATOM     10  C   UNL     1      26.897  39.768   5.986  1.00  0.00     0.112 C 
ATOM     11  O   UNL     1      29.197  39.677   5.205  1.00  0.00    -0.332 OA
ATOM     12  C   UNL     1      27.281  41.231   5.774  1.00  0.00     0.145 C 
ATOM     13  C   UNL     1      28.501  41.531   6.611  1.00  0.00     0.142 C 
BRANCH   9  14
ATOM     14  O   UNL     1      27.648  38.629   4.012  1.00  0.00    -0.357 OA
ATOM     15  H   UNL     1      28.460  38.322   3.526  1.00  0.00     0.214 HD
ENDBRANCH   9  14
BRANCH   9  16
ATOM     16  C   UNL     1      28.191  37.674   6.059  1.00  0.00     0.364 C 
ATOM     17  O   UNL     1      27.430  37.384   6.999  1.00  0.00    -0.246 OA
BRANCH  16  18
ATOM     18  O   UNL     1      29.168  36.731   5.750  1.00  0.00    -0.477 OA
ATOM     19  H   UNL     1      29.260  36.357   4.810  1.00  0.00     0.296 HD
ENDBRANCH  16  18
ENDBRANCH   9  16
BRANCH  12  20
ATOM     20  O   UNL     1      27.662  41.347   4.437  1.00  0.00    -0.391 OA
ATOM     21  H   UNL     1      27.055  41.923   3.919  1.00  0.00     0.211 HD
ENDBRANCH  12  20
BRANCH  13  22
ATOM     22  N   UNL     1      28.240  41.539   8.014  1.00  0.00    -0.348 N 
ATOM     23  C   UNL     1      28.567  42.605   8.900  1.00  0.00     0.217 C 
ATOM     24  H   UNL     1      27.767  40.681   8.414  1.00  0.00     0.163 HD
ATOM     25  C   UNL     1      28.230  42.458  10.323  1.00  0.00     0.114 C 
ATOM     26  O   UNL     1      29.127  43.612   8.406  1.00  0.00    -0.275 OA
ENDBRANCH  13  22
ENDBRANCH   7   8
BRANCH   7  27
ATOM     27  O   UNL     1      30.823  42.324   6.356  1.00  0.00    -0.388 OA
ATOM     28  H   UNL     1      31.752  42.674   6.405  1.00  0.00     0.211 HD
ENDBRANCH   7  27
ENDBRANCH   6   7
BRANCH   6  29
ATOM     29  O   UNL     1      32.561  39.418   5.523  1.00  0.00    -0.388 OA
ATOM     30  H   UNL     1      33.142  39.171   4.766  1.00  0.00     0.211 HD
ENDBRANCH   6  29
ENDBRANCH   5   6
ENDBRANCH   1   5
BRANCH   2  31
ATOM     31  O   UNL     1      35.436  42.996   5.936  1.00  0.00    -0.443 OA
BRANCH  31  32
ATOM     32  C   UNL     1      35.735  42.812   7.313  1.00  0.00     0.294 C 
BRANCH  32  33
ATOM     33  C   UNL     1      34.445  42.573   8.010  1.00  0.00     0.121 A 
ATOM     34  C   UNL     1      34.083  41.389   8.620  1.00  0.00     0.144 A 
ATOM     35  N   UNL     1      33.400  43.395   8.197  1.00  0.00    -0.131 NA
ATOM     36  N   UNL     1      32.851  41.547   9.141  1.00  0.00    -0.220 N 
ATOM     37  N   UNL     1      32.446  42.779   8.874  1.00  0.00    -0.062 NA
BRANCH  36  38
ATOM     38  C   UNL     1      32.148  40.523   9.848  1.00  0.00     0.067 A 
ATOM     39  C   UNL     1      31.495  40.753  11.039  1.00  0.00     0.039 A 
ATOM     40  C   UNL     1      32.096  39.230   9.348  1.00  0.00     0.029 A 
ATOM     41  C   UNL     1      30.814  39.742  11.713  1.00  0.00     0.007 A 
ATOM     42  C   UNL     1      31.422  38.225  10.012  1.00  0.00     0.012 A 
ATOM     43  C   UNL     1      30.771  38.463  11.201  1.00  0.00    -0.008 A 
BRANCH  41  44
ATOM     44  C   UNL     1      30.132  40.019  12.971  1.00  0.00     0.072 C 
ATOM     45  O   UNL     1      30.737  39.942  14.063  1.00  0.00    -0.545 OA
ATOM     46  O   UNL     1      28.794  40.371  12.934  1.00  0.00    -0.545 OA
ENDBRANCH  41  44
BRANCH  43  47
ATOM     47  C   UNL     1      30.051  37.422  11.921  1.00  0.00     0.004 A 
ATOM     48  C   UNL     1      28.719  37.156  11.660  1.00  0.00     0.026 A 
ATOM     49  C   UNL     1      30.648  36.646  12.898  1.00  0.00     0.026 A 
ATOM     50  C   UNL     1      28.033  37.881  10.699  1.00  0.00     0.016 A 
ATOM     51  C   UNL     1      28.059  36.155  12.365  1.00  0.00     0.139 A 
ATOM     52  C   UNL     1      29.912  35.606  13.610  1.00  0.00     0.139 A 
ATOM     53  C   UNL     1      31.976  36.864  13.201  1.00  0.00     0.016 A 
ATOM     54  C   UNL     1      26.700  37.624  10.430  1.00  0.00     0.047 A 
ATOM     55  C   UNL     1      26.732  35.899  12.096  1.00  0.00     0.093 A 
ATOM     56  O   UNL     1      28.655  35.428  13.294  1.00  0.00    -0.456 OA
ATOM     57  C   UNL     1      30.508  34.836  14.579  1.00  0.00     0.099 A 
ATOM     58  C   UNL     1      32.550  36.075  14.181  1.00  0.00     0.053 A 
ATOM     59  C   UNL     1      26.060  36.631  11.135  1.00  0.00     0.119 A 
ATOM     60  C   UNL     1      31.834  35.084  14.854  1.00  0.00     0.182 A 
ATOM     61  O   UNL     1      32.481  34.443  15.719  1.00  0.00    -0.290 OA
BRANCH  59  62
ATOM     62  O   UNL     1      24.717  36.348  10.887  1.00  0.00    -0.508 OA
ATOM     63  H   UNL     1      23.994  36.554  11.534  1.00  0.00     0.293 HD
ENDBRANCH  59  62
ENDBRANCH  43  47
ENDBRANCH  36  38
ENDBRANCH  32  33
ENDBRANCH  31  32
ENDBRANCH   2  31
TORSDOF 18
BEGIN_RES LYS A 135
REMARK  4 active torsions:
REMARK  status: ('A' for Active; 'I' for Inactive)
REMARK    1  A    between atoms: CA   and  CB  
REMARK    2  A    between atoms: CB   and  CG  
REMARK    3  A    between atoms: CG   and  CD  
REMARK    4  A    between atoms: CD   and  CE  
ROOT
ATOM      1  CA  LYS A 135      33.193  34.663   9.290  1.00 25.02     0.186 C 
ENDROOT
BRANCH   1   2
ATOM      2  CB  LYS A 135      32.060  35.360  10.034  1.00 26.63     0.034 C 
BRANCH   2   3
ATOM      3  CG  LYS A 135      30.725  34.679   9.874  1.00 29.45     0.005 C 
BRANCH   3   4
ATOM      4  CD  LYS A 135      29.980  35.236   8.671  1.00 32.00     0.041 C 
BRANCH   4   5
ATOM      5  CE  LYS A 135      28.675  34.491   8.462  1.00 34.25     0.338 C 
ATOM      6  NZ  LYS A 135      28.299  33.716   9.677  1.00 35.99     0.618 N 
ENDBRANCH   4   5
ENDBRANCH   3   4
ENDBRANCH   2   3
ENDBRANCH   1   2
END_RES LYS A 135
BEGIN_RES ARG A 124
REMARK  4 active torsions:
REMARK  status: ('A' for Active; 'I' for Inactive)
REMARK    5  A    between atoms: CA   and  CB  
REMARK    6  A    between atoms: CB   and  CG  
REMARK    7  A    between atoms: CG   and  CD  
REMARK    8  A    between atoms: CD   and  NE  
REMARK       I    between atoms: NE   and  CZ  
ROOT
ATOM      7  CA  ARG A 124      31.045  26.515   9.594  1.00 17.84     0.186 C 
ENDROOT
BRANCH   7   8
ATOM      8  CB  ARG A 124      29.529  26.705   9.647  1.00 16.18     0.036 C 
BRANCH   8   9
ATOM      9  CG  ARG A 124      28.926  26.956  11.075  1.00 16.22     0.029 C 
BRANCH   9  10
ATOM     10  CD  ARG A 124      27.649  26.126  11.341  1.00 15.09     0.145 C 
BRANCH  10  11
ATOM     11  NE  ARG A 124      26.426  26.943  11.497  1.00 16.98    -0.083 NA
ATOM     12  CZ  ARG A 124      25.975  27.424  12.651  1.00 18.21     0.782 C 
ATOM     13  NH1 ARG A 124      26.622  27.206  13.790  1.00 21.11     0.063 N 
ATOM     14  NH2 ARG A 124      24.872  28.156  12.676  1.00 21.25     0.063 N 
ENDBRANCH  10  11
ENDBRANCH   9  10
ENDBRANCH   8   9
ENDBRANCH   7   8
END_RES ARG A 124
BEGIN_RES ASN A 133
REMARK  2 active torsions:
REMARK  status: ('A' for Active; 'I' for Inactive)
REMARK    9  A    between atoms: CA   and  CB  
REMARK   10  A    between atoms: CB   and  CG  
ROOT
ATOM     15  CA  ASN A 133      31.225  30.257  11.749  1.00 18.15     0.196 C 
ENDROOT
BRANCH  15  16
ATOM     16  CB  ASN A 133      30.092  31.240  11.460  1.00 18.27     0.126 C 
BRANCH  16  17
ATOM     17  CG  ASN A 133      28.731  30.640  11.629  1.00 18.94     0.276 C 
ATOM     18  OD1 ASN A 133      28.250  29.895  10.773  1.00 18.09    -0.269 OA
ATOM     19  ND2 ASN A 133      28.086  30.964  12.750  1.00 18.93    -0.107 N 
ENDBRANCH  16  17
ENDBRANCH  15  16
END_RES ASN A 133
BEGIN_RES LYS A 131
REMARK  4 active torsions:
REMARK  status: ('A' for Active; 'I' for Inactive)
REMARK   11  A    between atoms: CA   and  CB  
REMARK   12  A    between atoms: CB   and  CG  
REMARK   13  A    between atoms: CG   and  CD  
REMARK   14  A    between atoms: CD   and  CE  
ROOT
ATOM     20  CA  LYS A 131      29.867  25.555  16.977  1.00 20.52     0.186 C 
ENDROOT
BRANCH  20  21
ATOM     21  CB  LYS A 131      28.345  25.722  17.026  1.00 20.94     0.034 C 
BRANCH  21  22
ATOM     22  CG  LYS A 131      27.599  24.437  16.700  1.00 22.96     0.005 C 
BRANCH  22  23
ATOM     23  CD  LYS A 131      26.928  23.849  17.910  1.00 24.33     0.041 C 
BRANCH  23  24
ATOM     24  CE  LYS A 131      26.204  24.952  18.677  1.00 26.91     0.338 C 
ATOM     25  NZ  LYS A 131      25.450  24.381  19.818  1.00 27.40     0.618 N 
ENDBRANCH  23  24
ENDBRANCH  22  23
ENDBRANCH  21  22
ENDBRANCH  20  21
END_RES LYS A 131
