REMARK VINA RESULT:    -5.230      1.851      3.327
REMARK INTER + INTRA:         -17.004
REMARK INTER:                  -9.809
REMARK INTRA:                  -7.195
REMARK UNBOUND:                -7.952
REMARK SMILES CC(=O)N[C@@H]1[C@@H](O)C[C@](O)(C(=O)O)O[C@H]1C(O)[C@H](O)CNC(=O)OCc1cn(-c2cccc(Cl)c2)nn1
REMARK SMILES IDX 20 1 18 2 16 3 15 4 9 5 8 6 14 7 6 8 5 9 10 10 11 12 12 13
REMARK SMILES IDX 13 14 7 16 4 18 2 19 1 21 3 22 17 23 19 25 21 27 22 28 23 30
REMARK SMILES IDX 24 31 25 32 26 33 27 34 37 35 28 36 36 37 29 38 30 39 35 40
REMARK SMILES IDX 31 41 33 42 32 43 34 44
REMARK H PARENT 10 11 13 15 7 17 4 20 17 24 19 26 21 29
REMARK Flexibility Score: inf
ROOT
ATOM      1  C   UNL     1      30.684  37.030  18.544  1.00  0.00     0.154 C 
ENDROOT
BRANCH   1   2
ATOM      2  C   UNL     1      29.512  36.156  18.260  1.00  0.00     0.165 C 
BRANCH   2   3
ATOM      3  C   UNL     1      29.288  35.826  16.812  1.00  0.00     0.176 C 
BRANCH   3   4
ATOM      4  C   UNL     1      30.392  35.052  16.173  1.00  0.00     0.178 C 
ATOM      5  C   UNL     1      31.494  34.802  14.144  1.00  0.00     0.269 C 
ATOM      6  C   UNL     1      32.444  33.985  15.006  1.00  0.00     0.112 C 
ATOM      7  O   UNL     1      30.629  35.557  14.909  1.00  0.00    -0.332 OA
ATOM      8  C   UNL     1      31.632  33.009  15.790  1.00  0.00     0.145 C 
ATOM      9  C   UNL     1      30.232  33.576  16.141  1.00  0.00     0.142 C 
BRANCH   5  10
ATOM     10  O   UNL     1      30.821  33.885  13.339  1.00  0.00    -0.357 OA
ATOM     11  H   UNL     1      30.075  33.483  13.814  1.00  0.00     0.214 HD
ENDBRANCH   5  10
BRANCH   5  12
ATOM     12  C   UNL     1      32.251  35.718  13.263  1.00  0.00     0.364 C 
ATOM     13  O   UNL     1      32.049  36.942  13.303  1.00  0.00    -0.246 OA
BRANCH  12  14
ATOM     14  O   UNL     1      33.206  35.237  12.371  1.00  0.00    -0.477 OA
ATOM     15  H   UNL     1      33.633  34.348  12.590  1.00  0.00     0.296 HD
ENDBRANCH  12  14
ENDBRANCH   5  12
BRANCH   8  16
ATOM     16  O   UNL     1      31.409  31.885  14.987  1.00  0.00    -0.391 OA
ATOM     17  H   UNL     1      31.617  32.101  14.034  1.00  0.00     0.211 HD
ENDBRANCH   8  16
BRANCH   9  18
ATOM     18  N   UNL     1      29.970  33.059  17.492  1.00  0.00    -0.348 N 
ATOM     19  C   UNL     1      28.892  32.236  17.831  1.00  0.00     0.217 C 
ATOM     20  H   UNL     1      30.655  33.347  18.226  1.00  0.00     0.163 HD
ATOM     21  C   UNL     1      28.691  31.758  19.224  1.00  0.00     0.114 C 
ATOM     22  O   UNL     1      28.065  31.880  16.966  1.00  0.00    -0.275 OA
ENDBRANCH   9  18
ENDBRANCH   3   4
BRANCH   3  23
ATOM     23  O   UNL     1      28.113  35.090  16.637  1.00  0.00    -0.388 OA
ATOM     24  H   UNL     1      28.325  34.170  16.345  1.00  0.00     0.211 HD
ENDBRANCH   3  23
ENDBRANCH   2   3
BRANCH   2  25
ATOM     25  O   UNL     1      28.362  36.823  18.758  1.00  0.00    -0.388 OA
ATOM     26  H   UNL     1      27.831  37.075  17.956  1.00  0.00     0.211 HD
ENDBRANCH   2  25
ENDBRANCH   1   2
BRANCH   1  27
ATOM     27  N   UNL     1      31.795  36.379  19.196  1.00  0.00    -0.319 N 
ATOM     28  C   UNL     1      33.062  36.273  18.501  1.00  0.00     0.407 C 
ATOM     29  H   UNL     1      31.778  35.970  20.154  1.00  0.00     0.167 HD
ATOM     30  O   UNL     1      33.154  36.754  17.344  1.00  0.00    -0.225 OA
BRANCH  28  31
ATOM     31  O   UNL     1      34.150  35.668  19.070  1.00  0.00    -0.443 OA
BRANCH  31  32
ATOM     32  C   UNL     1      35.371  36.347  19.208  1.00  0.00     0.294 C 
BRANCH  32  33
ATOM     33  C   UNL     1      36.419  35.725  18.328  1.00  0.00     0.121 A 
ATOM     34  C   UNL     1      36.568  35.874  16.956  1.00  0.00     0.144 A 
ATOM     35  N   UNL     1      37.415  34.901  18.699  1.00  0.00    -0.131 NA
ATOM     36  N   UNL     1      37.627  35.151  16.553  1.00  0.00    -0.220 N 
ATOM     37  N   UNL     1      38.129  34.566  17.627  1.00  0.00    -0.062 NA
BRANCH  36  38
ATOM     38  C   UNL     1      38.163  34.998  15.245  1.00  0.00     0.068 A 
ATOM     39  C   UNL     1      39.294  35.691  14.857  1.00  0.00     0.028 A 
ATOM     40  C   UNL     1      37.594  34.161  14.307  1.00  0.00     0.049 A 
ATOM     41  C   UNL     1      39.825  35.549  13.584  1.00  0.00     0.004 A 
ATOM     42  C   UNL     1      38.113  34.010  13.037  1.00  0.00     0.043 A 
ATOM     43  C   UNL     1      39.242  34.707  12.659  1.00  0.00     0.020 A 
ATOM     44  Cl  UNL     1      37.353  32.928  11.864  1.00  0.00    -0.084 Cl
ENDBRANCH  36  38
ENDBRANCH  32  33
ENDBRANCH  31  32
ENDBRANCH  28  31
ENDBRANCH   1  27
TORSDOF 15
BEGIN_RES LYS A 135
REMARK  4 active torsions:
REMARK  status: ('A' for Active; 'I' for Inactive)
REMARK    1  A    between atoms: CA   and  CB  
REMARK    2  A    between atoms: CB   and  CG  
REMARK    3  A    between atoms: CG   and  CD  
REMARK    4  A    between atoms: CD   and  CE  
ROOT
ATOM      1  CA  LYS A 135      33.193  34.663   9.290  1.00 25.02     0.186 C 
ENDROOT
BRANCH   1   2
ATOM      2  CB  LYS A 135      32.060  35.360  10.034  1.00 26.63     0.034 C 
BRANCH   2   3
ATOM      3  CG  LYS A 135      30.911  35.758   9.145  1.00 29.45     0.005 C 
BRANCH   3   4
ATOM      4  CD  LYS A 135      30.222  34.528   8.574  1.00 32.00     0.041 C 
BRANCH   4   5
ATOM      5  CE  LYS A 135      29.026  34.929   7.732  1.00 34.25     0.338 C 
ATOM      6  NZ  LYS A 135      27.749  34.552   8.399  1.00 35.99     0.618 N 
ENDBRANCH   4   5
ENDBRANCH   3   4
ENDBRANCH   2   3
ENDBRANCH   1   2
END_RES LYS A 135
BEGIN_RES ARG A 124
REMARK  4 active torsions:
REMARK  status: ('A' for Active; 'I' for Inactive)
REMARK    5  A    between atoms: CA   and  CB  
REMARK    6  A    between atoms: CB   and  CG  
REMARK    7  A    between atoms: CG   and  CD  
REMARK    8  A    between atoms: CD   and  NE  
REMARK       I    between atoms: NE   and  CZ  
ROOT
ATOM      7  CA  ARG A 124      31.045  26.515   9.594  1.00 17.84     0.186 C 
ENDROOT
BRANCH   7   8
ATOM      8  CB  ARG A 124      29.529  26.705   9.647  1.00 16.18     0.036 C 
BRANCH   8   9
ATOM      9  CG  ARG A 124      28.968  27.323  10.977  1.00 16.22     0.029 C 
BRANCH   9  10
ATOM     10  CD  ARG A 124      28.125  26.320  11.797  1.00 15.09     0.145 C 
BRANCH  10  11
ATOM     11  NE  ARG A 124      27.794  26.790  13.160  1.00 16.98    -0.083 NA
ATOM     12  CZ  ARG A 124      26.608  27.256  13.536  1.00 18.21     0.782 C 
ATOM     13  NH1 ARG A 124      25.592  27.325  12.684  1.00 21.11     0.063 N 
ATOM     14  NH2 ARG A 124      26.416  27.641  14.788  1.00 21.25     0.063 N 
ENDBRANCH  10  11
ENDBRANCH   9  10
ENDBRANCH   8   9
ENDBRANCH   7   8
END_RES ARG A 124
BEGIN_RES ASN A 133
REMARK  2 active torsions:
REMARK  status: ('A' for Active; 'I' for Inactive)
REMARK    9  A    between atoms: CA   and  CB  
REMARK   10  A    between atoms: CB   and  CG  
ROOT
ATOM     15  CA  ASN A 133      31.225  30.257  11.749  1.00 18.15     0.196 C 
ENDROOT
BRANCH  15  16
ATOM     16  CB  ASN A 133      30.092  31.240  11.460  1.00 18.27     0.126 C 
BRANCH  16  17
ATOM     17  CG  ASN A 133      28.927  31.090  12.389  1.00 18.94     0.276 C 
ATOM     18  OD1 ASN A 133      28.907  31.656  13.484  1.00 18.09    -0.269 OA
ATOM     19  ND2 ASN A 133      27.933  30.315  11.957  1.00 18.93    -0.107 N 
ENDBRANCH  16  17
ENDBRANCH  15  16
END_RES ASN A 133
BEGIN_RES LYS A 131
REMARK  4 active torsions:
REMARK  status: ('A' for Active; 'I' for Inactive)
REMARK   11  A    between atoms: CA   and  CB  
REMARK   12  A    between atoms: CB   and  CG  
REMARK   13  A    between atoms: CG   and  CD  
REMARK   14  A    between atoms: CD   and  CE  
ROOT
ATOM     20  CA  LYS A 131      29.867  25.555  16.977  1.00 20.52     0.186 C 
ENDROOT
BRANCH  20  21
ATOM     21  CB  LYS A 131      28.345  25.722  17.026  1.00 20.94     0.034 C 
BRANCH  21  22
ATOM     22  CG  LYS A 131      27.600  24.410  16.831  1.00 22.96     0.005 C 
BRANCH  22  23
ATOM     23  CD  LYS A 131      26.153  24.516  17.227  1.00 24.33     0.041 C 
BRANCH  23  24
ATOM     24  CE  LYS A 131      26.050  24.696  18.738  1.00 26.91     0.338 C 
ATOM     25  NZ  LYS A 131      25.508  23.470  19.370  1.00 27.40     0.618 N 
ENDBRANCH  23  24
ENDBRANCH  22  23
ENDBRANCH  21  22
ENDBRANCH  20  21
END_RES LYS A 131
