REMARK VINA RESULT:    -4.271      2.189      5.753
REMARK INTER + INTRA:         -18.864
REMARK INTER:                  -7.732
REMARK INTRA:                 -11.132
REMARK UNBOUND:               -10.472
REMARK SMILES CC(=O)N[C@@H]1[C@@H](O)C[C@](O)(C(=O)O)O[C@H]1C(O)[C@H](O)CNC(=O)OCc1cn(CCNC(=O)NCc2ccco2)nn1
REMARK SMILES IDX 24 1 22 2 21 3 23 5 20 6 18 7 16 8 15 9 9 10 8 11 14 12 6 13
REMARK SMILES IDX 5 14 10 15 11 17 12 18 13 19 7 21 4 23 2 24 1 26 3 27 17 28
REMARK SMILES IDX 19 30 25 32 26 33 27 34 42 35 28 36 41 37 29 38 30 39 31 40
REMARK SMILES IDX 32 41 33 43 34 44 35 46 36 47 37 48 40 49 38 50 39 51
REMARK H PARENT 21 4 10 16 13 20 7 22 4 25 17 29 19 31 31 42 34 45
REMARK Flexibility Score: inf
ROOT
ATOM      1  O   UNL     1      28.492  39.138  15.647  1.00  0.00    -0.443 OA
ENDROOT
BRANCH   1   2
ATOM      2  C   UNL     1      28.977  38.451  16.775  1.00  0.00     0.407 C 
ATOM      3  N   UNL     1      29.555  37.169  16.669  1.00  0.00    -0.319 N 
ATOM      4  H   UNL     1      29.590  36.795  15.665  1.00  0.00     0.167 HD
ATOM      5  O   UNL     1      28.883  39.004  17.883  1.00  0.00    -0.225 OA
BRANCH   3   6
ATOM      6  C   UNL     1      30.076  36.365  17.742  1.00  0.00     0.154 C 
BRANCH   6   7
ATOM      7  C   UNL     1      29.068  35.491  18.438  1.00  0.00     0.165 C 
BRANCH   7   8
ATOM      8  C   UNL     1      28.542  34.529  17.400  1.00  0.00     0.176 C 
BRANCH   8   9
ATOM      9  C   UNL     1      29.624  33.790  16.675  1.00  0.00     0.178 C 
ATOM     10  C   UNL     1      30.644  33.547  14.613  1.00  0.00     0.269 C 
ATOM     11  C   UNL     1      31.449  32.510  15.412  1.00  0.00     0.112 C 
ATOM     12  O   UNL     1      29.472  33.850  15.300  1.00  0.00    -0.332 OA
ATOM     13  C   UNL     1      30.437  31.605  16.055  1.00  0.00     0.145 C 
ATOM     14  C   UNL     1      29.760  32.348  17.157  1.00  0.00     0.142 C 
BRANCH  10  15
ATOM     15  O   UNL     1      30.258  32.893  13.445  1.00  0.00    -0.357 OA
ATOM     16  H   UNL     1      29.292  32.882  13.309  1.00  0.00     0.214 HD
ENDBRANCH  10  15
BRANCH  10  17
ATOM     17  C   UNL     1      31.448  34.727  14.297  1.00  0.00     0.364 C 
ATOM     18  O   UNL     1      32.694  34.707  14.158  1.00  0.00    -0.246 OA
BRANCH  17  19
ATOM     19  O   UNL     1      30.821  35.953  14.135  1.00  0.00    -0.477 OA
ATOM     20  H   UNL     1      30.824  36.485  13.278  1.00  0.00     0.296 HD
ENDBRANCH  17  19
ENDBRANCH  10  17
BRANCH  13  21
ATOM     21  O   UNL     1      29.452  31.353  15.077  1.00  0.00    -0.391 OA
ATOM     22  H   UNL     1      28.595  31.734  15.369  1.00  0.00     0.211 HD
ENDBRANCH  13  21
BRANCH  14  23
ATOM     23  N   UNL     1      30.401  32.365  18.411  1.00  0.00    -0.348 N 
ATOM     24  C   UNL     1      30.238  31.399  19.439  1.00  0.00     0.217 C 
ATOM     25  H   UNL     1      31.066  33.155  18.628  1.00  0.00     0.163 HD
ATOM     26  C   UNL     1      30.942  31.478  20.733  1.00  0.00     0.114 C 
ATOM     27  O   UNL     1      29.433  30.458  19.153  1.00  0.00    -0.275 OA
ENDBRANCH  14  23
ENDBRANCH   8   9
BRANCH   8  28
ATOM     28  O   UNL     1      27.758  33.584  18.059  1.00  0.00    -0.388 OA
ATOM     29  H   UNL     1      26.912  33.993  18.423  1.00  0.00     0.211 HD
ENDBRANCH   8  28
ENDBRANCH   7   8
BRANCH   7  30
ATOM     30  O   UNL     1      28.101  36.239  19.031  1.00  0.00    -0.388 OA
ATOM     31  H   UNL     1      27.775  36.946  18.390  1.00  0.00     0.211 HD
ENDBRANCH   7  30
ENDBRANCH   6   7
ENDBRANCH   3   6
ENDBRANCH   1   2
BRANCH   1  32
ATOM     32  C   UNL     1      27.230  38.765  15.131  1.00  0.00     0.294 C 
BRANCH  32  33
ATOM     33  C   UNL     1      27.439  37.812  14.016  1.00  0.00     0.120 A 
ATOM     34  C   UNL     1      26.473  37.068  13.383  1.00  0.00     0.138 A 
ATOM     35  N   UNL     1      28.594  37.491  13.412  1.00  0.00    -0.132 NA
ATOM     36  N   UNL     1      27.051  36.310  12.414  1.00  0.00    -0.250 N 
ATOM     37  N   UNL     1      28.340  36.602  12.470  1.00  0.00    -0.067 NA
BRANCH  36  38
ATOM     38  C   UNL     1      26.404  35.379  11.505  1.00  0.00     0.167 C 
BRANCH  38  39
ATOM     39  C   UNL     1      27.115  34.046  11.542  1.00  0.00     0.141 C 
BRANCH  39  40
ATOM     40  N   UNL     1      27.380  33.705  12.923  1.00  0.00    -0.336 N 
ATOM     41  C   UNL     1      26.386  33.011  13.644  1.00  0.00     0.315 C 
ATOM     42  H   UNL     1      28.278  33.959  13.381  1.00  0.00     0.165 HD
ATOM     43  O   UNL     1      25.274  32.665  13.171  1.00  0.00    -0.249 OA
ATOM     44  N   UNL     1      26.642  32.671  15.004  1.00  0.00    -0.331 N 
ATOM     45  H   UNL     1      27.558  32.951  15.411  1.00  0.00     0.165 HD
BRANCH  44  46
ATOM     46  C   UNL     1      25.697  31.971  15.813  1.00  0.00     0.193 C 
BRANCH  46  47
ATOM     47  C   UNL     1      26.262  30.706  16.385  1.00  0.00     0.122 A 
ATOM     48  C   UNL     1      25.874  30.210  17.599  1.00  0.00     0.047 A 
ATOM     49  O   UNL     1      27.157  29.900  15.882  1.00  0.00    -0.467 OA
ATOM     50  C   UNL     1      26.592  29.055  17.794  1.00  0.00     0.042 A 
ATOM     51  C   UNL     1      27.375  28.914  16.691  1.00  0.00     0.195 A 
ENDBRANCH  46  47
ENDBRANCH  44  46
ENDBRANCH  39  40
ENDBRANCH  38  39
ENDBRANCH  36  38
ENDBRANCH  32  33
ENDBRANCH   1  32
TORSDOF 19
BEGIN_RES LYS A 135
REMARK  4 active torsions:
REMARK  status: ('A' for Active; 'I' for Inactive)
REMARK    1  A    between atoms: CA   and  CB  
REMARK    2  A    between atoms: CB   and  CG  
REMARK    3  A    between atoms: CG   and  CD  
REMARK    4  A    between atoms: CD   and  CE  
ROOT
ATOM      1  CA  LYS A 135      33.193  34.663   9.290  1.00 25.02     0.186 C 
ENDROOT
BRANCH   1   2
ATOM      2  CB  LYS A 135      32.060  35.360  10.034  1.00 26.63     0.034 C 
BRANCH   2   3
ATOM      3  CG  LYS A 135      30.697  34.803   9.715  1.00 29.45     0.005 C 
BRANCH   3   4
ATOM      4  CD  LYS A 135      30.594  34.447   8.239  1.00 32.00     0.041 C 
BRANCH   4   5
ATOM      5  CE  LYS A 135      29.402  35.138   7.607  1.00 34.25     0.338 C 
ATOM      6  NZ  LYS A 135      28.568  35.819   8.636  1.00 35.99     0.618 N 
ENDBRANCH   4   5
ENDBRANCH   3   4
ENDBRANCH   2   3
ENDBRANCH   1   2
END_RES LYS A 135
BEGIN_RES ARG A 124
REMARK  4 active torsions:
REMARK  status: ('A' for Active; 'I' for Inactive)
REMARK    5  A    between atoms: CA   and  CB  
REMARK    6  A    between atoms: CB   and  CG  
REMARK    7  A    between atoms: CG   and  CD  
REMARK    8  A    between atoms: CD   and  NE  
REMARK       I    between atoms: NE   and  CZ  
ROOT
ATOM      7  CA  ARG A 124      31.045  26.515   9.594  1.00 17.84     0.186 C 
ENDROOT
BRANCH   7   8
ATOM      8  CB  ARG A 124      29.529  26.705   9.647  1.00 16.18     0.036 C 
BRANCH   8   9
ATOM      9  CG  ARG A 124      28.911  26.836  11.085  1.00 16.22     0.029 C 
BRANCH   9  10
ATOM     10  CD  ARG A 124      27.479  26.262  11.177  1.00 15.09     0.145 C 
BRANCH  10  11
ATOM     11  NE  ARG A 124      26.452  27.268  11.525  1.00 16.98    -0.083 NA
ATOM     12  CZ  ARG A 124      26.131  27.629  12.763  1.00 18.21     0.782 C 
ATOM     13  NH1 ARG A 124      26.741  27.100  13.816  1.00 21.11     0.063 N 
ATOM     14  NH2 ARG A 124      25.201  28.551  12.962  1.00 21.25     0.063 N 
ENDBRANCH  10  11
ENDBRANCH   9  10
ENDBRANCH   8   9
ENDBRANCH   7   8
END_RES ARG A 124
BEGIN_RES ASN A 133
REMARK  2 active torsions:
REMARK  status: ('A' for Active; 'I' for Inactive)
REMARK    9  A    between atoms: CA   and  CB  
REMARK   10  A    between atoms: CB   and  CG  
ROOT
ATOM     15  CA  ASN A 133      31.225  30.257  11.749  1.00 18.15     0.196 C 
ENDROOT
BRANCH  15  16
ATOM     16  CB  ASN A 133      30.092  31.240  11.460  1.00 18.27     0.126 C 
BRANCH  16  17
ATOM     17  CG  ASN A 133      28.732  30.624  11.571  1.00 18.94     0.276 C 
ATOM     18  OD1 ASN A 133      28.058  30.745  12.596  1.00 18.09    -0.269 OA
ATOM     19  ND2 ASN A 133      28.310  29.947  10.504  1.00 18.93    -0.107 N 
ENDBRANCH  16  17
ENDBRANCH  15  16
END_RES ASN A 133
BEGIN_RES LYS A 131
REMARK  4 active torsions:
REMARK  status: ('A' for Active; 'I' for Inactive)
REMARK   11  A    between atoms: CA   and  CB  
REMARK   12  A    between atoms: CB   and  CG  
REMARK   13  A    between atoms: CG   and  CD  
REMARK   14  A    between atoms: CD   and  CE  
ROOT
ATOM     20  CA  LYS A 131      29.867  25.555  16.977  1.00 20.52     0.186 C 
ENDROOT
BRANCH  20  21
ATOM     21  CB  LYS A 131      28.345  25.722  17.026  1.00 20.94     0.034 C 
BRANCH  21  22
ATOM     22  CG  LYS A 131      27.600  24.409  16.838  1.00 22.96     0.005 C 
BRANCH  22  23
ATOM     23  CD  LYS A 131      26.545  24.201  17.889  1.00 24.33     0.041 C 
BRANCH  23  24
ATOM     24  CE  LYS A 131      26.390  25.475  18.713  1.00 26.91     0.338 C 
ATOM     25  NZ  LYS A 131      24.968  25.893  18.759  1.00 27.40     0.618 N 
ENDBRANCH  23  24
ENDBRANCH  22  23
ENDBRANCH  21  22
ENDBRANCH  20  21
END_RES LYS A 131
