REMARK VINA RESULT:    -5.220      4.943      9.438
REMARK INTER + INTRA:         -17.233
REMARK INTER:                  -9.785
REMARK INTRA:                  -7.448
REMARK UNBOUND:                -8.198
REMARK SMILES CC(=O)N[C@@H]1[C@@H](O)C[C@](O)(C(=O)O)O[C@H]1C(O)[C@H](O)CNC(=O)OCc1cn(C23CC4CC(CC(C4)C2)C3)nn1
REMARK SMILES IDX 20 1 18 2 16 3 15 4 9 5 8 6 14 7 6 8 5 9 10 10 11 12 12 13
REMARK SMILES IDX 13 14 7 16 4 18 2 19 1 21 3 22 17 23 19 25 21 27 22 28 23 30
REMARK SMILES IDX 24 31 25 32 26 33 27 34 40 35 28 36 39 37 29 38 38 39 37 40
REMARK SMILES IDX 30 41 33 42 35 43 31 44 32 45 34 46 36 47
REMARK H PARENT 10 11 13 15 7 17 4 20 17 24 19 26 21 29
REMARK Flexibility Score: inf
ROOT
ATOM      1  C   UNL     1      23.764  36.962   9.999  1.00  0.00     0.154 C 
ENDROOT
BRANCH   1   2
ATOM      2  C   UNL     1      24.053  36.534   8.562  1.00  0.00     0.165 C 
BRANCH   2   3
ATOM      3  C   UNL     1      25.082  37.367   7.889  1.00  0.00     0.176 C 
BRANCH   3   4
ATOM      4  C   UNL     1      26.502  36.978   8.039  1.00  0.00     0.178 C 
ATOM      5  C   UNL     1      28.045  36.112   9.553  1.00  0.00     0.269 C 
ATOM      6  C   UNL     1      29.155  36.374   8.597  1.00  0.00     0.112 C 
ATOM      7  O   UNL     1      26.891  36.830   9.366  1.00  0.00    -0.332 OA
ATOM      8  C   UNL     1      28.775  36.881   7.252  1.00  0.00     0.145 C 
ATOM      9  C   UNL     1      27.524  37.792   7.333  1.00  0.00     0.142 C 
BRANCH   5  10
ATOM     10  O   UNL     1      28.531  36.528  10.827  1.00  0.00    -0.357 OA
ATOM     11  H   UNL     1      29.479  36.239  10.846  1.00  0.00     0.214 HD
ENDBRANCH   5  10
BRANCH   5  12
ATOM     12  C   UNL     1      27.810  34.656   9.691  1.00  0.00     0.364 C 
ATOM     13  O   UNL     1      28.492  33.871   8.993  1.00  0.00    -0.246 OA
BRANCH  12  14
ATOM     14  O   UNL     1      26.875  34.123  10.554  1.00  0.00    -0.477 OA
ATOM     15  H   UNL     1      26.818  33.098  10.582  1.00  0.00     0.296 HD
ENDBRANCH  12  14
ENDBRANCH   5  12
BRANCH   8  16
ATOM     16  O   UNL     1      29.774  37.615   6.656  1.00  0.00    -0.391 OA
ATOM     17  H   UNL     1      30.492  37.791   7.320  1.00  0.00     0.211 HD
ENDBRANCH   8  16
BRANCH   9  18
ATOM     18  N   UNL     1      27.220  38.110   5.968  1.00  0.00    -0.348 N 
ATOM     19  C   UNL     1      27.543  39.388   5.458  1.00  0.00     0.217 C 
ATOM     20  H   UNL     1      26.767  37.403   5.370  1.00  0.00     0.163 HD
ATOM     21  C   UNL     1      27.257  39.789   4.056  1.00  0.00     0.114 C 
ATOM     22  O   UNL     1      28.100  40.233   6.215  1.00  0.00    -0.275 OA
ENDBRANCH   9  18
ENDBRANCH   3   4
BRANCH   3  23
ATOM     23  O   UNL     1      24.905  38.713   8.207  1.00  0.00    -0.388 OA
ATOM     24  H   UNL     1      25.038  39.298   7.421  1.00  0.00     0.211 HD
ENDBRANCH   3  23
ENDBRANCH   2   3
BRANCH   2  25
ATOM     25  O   UNL     1      22.832  36.815   7.877  1.00  0.00    -0.388 OA
ATOM     26  H   UNL     1      22.520  35.994   7.417  1.00  0.00     0.211 HD
ENDBRANCH   2  25
ENDBRANCH   1   2
BRANCH   1  27
ATOM     27  N   UNL     1      24.423  36.034  10.928  1.00  0.00    -0.319 N 
ATOM     28  C   UNL     1      23.723  34.969  11.535  1.00  0.00     0.407 C 
ATOM     29  H   UNL     1      25.421  36.166  11.139  1.00  0.00     0.167 HD
ATOM     30  O   UNL     1      22.491  34.869  11.225  1.00  0.00    -0.225 OA
BRANCH  28  31
ATOM     31  O   UNL     1      24.310  34.074  12.414  1.00  0.00    -0.443 OA
BRANCH  31  32
ATOM     32  C   UNL     1      24.614  34.434  13.736  1.00  0.00     0.294 C 
BRANCH  32  33
ATOM     33  C   UNL     1      26.082  34.614  13.845  1.00  0.00     0.120 A 
ATOM     34  C   UNL     1      26.951  34.000  14.725  1.00  0.00     0.138 A 
ATOM     35  N   UNL     1      26.826  35.415  13.089  1.00  0.00    -0.132 NA
ATOM     36  N   UNL     1      28.191  34.450  14.474  1.00  0.00    -0.246 N 
ATOM     37  N   UNL     1      28.092  35.322  13.461  1.00  0.00    -0.066 NA
BRANCH  36  38
ATOM     38  C   UNL     1      29.373  34.048  15.178  1.00  0.00     0.065 C 
ATOM     39  C   UNL     1      28.999  33.432  16.501  1.00  0.00     0.034 C 
ATOM     40  C   UNL     1      30.240  35.270  15.507  1.00  0.00     0.034 C 
ATOM     41  C   UNL     1      30.159  33.088  14.305  1.00  0.00     0.034 C 
ATOM     42  C   UNL     1      30.239  32.958  17.222  1.00  0.00    -0.008 C 
ATOM     43  C   UNL     1      31.480  34.807  16.212  1.00  0.00    -0.008 C 
ATOM     44  C   UNL     1      31.387  32.644  15.049  1.00  0.00    -0.008 C 
ATOM     45  C   UNL     1      30.943  31.967  16.318  1.00  0.00     0.007 C 
ATOM     46  C   UNL     1      31.198  34.079  17.502  1.00  0.00     0.007 C 
ATOM     47  C   UNL     1      32.240  33.857  15.314  1.00  0.00     0.007 C 
ENDBRANCH  36  38
ENDBRANCH  32  33
ENDBRANCH  31  32
ENDBRANCH  28  31
ENDBRANCH   1  27
TORSDOF 15
BEGIN_RES LYS A 135
REMARK  4 active torsions:
REMARK  status: ('A' for Active; 'I' for Inactive)
REMARK    1  A    between atoms: CA   and  CB  
REMARK    2  A    between atoms: CB   and  CG  
REMARK    3  A    between atoms: CG   and  CD  
REMARK    4  A    between atoms: CD   and  CE  
ROOT
ATOM      1  CA  LYS A 135      33.193  34.663   9.290  1.00 25.02     0.186 C 
ENDROOT
BRANCH   1   2
ATOM      2  CB  LYS A 135      32.060  35.360  10.034  1.00 26.63     0.034 C 
BRANCH   2   3
ATOM      3  CG  LYS A 135      32.012  35.031  11.504  1.00 29.45     0.005 C 
BRANCH   3   4
ATOM      4  CD  LYS A 135      32.509  36.205  12.333  1.00 32.00     0.041 C 
BRANCH   4   5
ATOM      5  CE  LYS A 135      31.793  37.481  11.932  1.00 34.25     0.338 C 
ATOM      6  NZ  LYS A 135      30.897  37.958  13.022  1.00 35.99     0.618 N 
ENDBRANCH   4   5
ENDBRANCH   3   4
ENDBRANCH   2   3
ENDBRANCH   1   2
END_RES LYS A 135
BEGIN_RES ARG A 124
REMARK  4 active torsions:
REMARK  status: ('A' for Active; 'I' for Inactive)
REMARK    5  A    between atoms: CA   and  CB  
REMARK    6  A    between atoms: CB   and  CG  
REMARK    7  A    between atoms: CG   and  CD  
REMARK    8  A    between atoms: CD   and  NE  
REMARK       I    between atoms: NE   and  CZ  
ROOT
ATOM      7  CA  ARG A 124      31.045  26.515   9.594  1.00 17.84     0.186 C 
ENDROOT
BRANCH   7   8
ATOM      8  CB  ARG A 124      29.529  26.705   9.647  1.00 16.18     0.036 C 
BRANCH   8   9
ATOM      9  CG  ARG A 124      28.758  25.742  10.618  1.00 16.22     0.029 C 
BRANCH   9  10
ATOM     10  CD  ARG A 124      28.495  26.372  12.005  1.00 15.09     0.145 C 
BRANCH  10  11
ATOM     11  NE  ARG A 124      27.128  26.915  12.166  1.00 16.98    -0.083 NA
ATOM     12  CZ  ARG A 124      26.747  27.737  13.138  1.00 18.21     0.782 C 
ATOM     13  NH1 ARG A 124      27.602  28.156  14.063  1.00 21.11     0.063 N 
ATOM     14  NH2 ARG A 124      25.498  28.173  13.182  1.00 21.25     0.063 N 
ENDBRANCH  10  11
ENDBRANCH   9  10
ENDBRANCH   8   9
ENDBRANCH   7   8
END_RES ARG A 124
BEGIN_RES ASN A 133
REMARK  2 active torsions:
REMARK  status: ('A' for Active; 'I' for Inactive)
REMARK    9  A    between atoms: CA   and  CB  
REMARK   10  A    between atoms: CB   and  CG  
ROOT
ATOM     15  CA  ASN A 133      31.225  30.257  11.749  1.00 18.15     0.196 C 
ENDROOT
BRANCH  15  16
ATOM     16  CB  ASN A 133      30.092  31.240  11.460  1.00 18.27     0.126 C 
BRANCH  16  17
ATOM     17  CG  ASN A 133      28.737  30.604  11.483  1.00 18.94     0.276 C 
ATOM     18  OD1 ASN A 133      28.483  29.615  10.793  1.00 18.09    -0.269 OA
ATOM     19  ND2 ASN A 133      27.840  31.173  12.288  1.00 18.93    -0.107 N 
ENDBRANCH  16  17
ENDBRANCH  15  16
END_RES ASN A 133
BEGIN_RES LYS A 131
REMARK  4 active torsions:
REMARK  status: ('A' for Active; 'I' for Inactive)
REMARK   11  A    between atoms: CA   and  CB  
REMARK   12  A    between atoms: CB   and  CG  
REMARK   13  A    between atoms: CG   and  CD  
REMARK   14  A    between atoms: CD   and  CE  
ROOT
ATOM     20  CA  LYS A 131      29.867  25.555  16.977  1.00 20.52     0.186 C 
ENDROOT
BRANCH  20  21
ATOM     21  CB  LYS A 131      28.345  25.722  17.026  1.00 20.94     0.034 C 
BRANCH  21  22
ATOM     22  CG  LYS A 131      27.600  24.415  16.801  1.00 22.96     0.005 C 
BRANCH  22  23
ATOM     23  CD  LYS A 131      26.144  24.525  17.160  1.00 24.33     0.041 C 
BRANCH  23  24
ATOM     24  CE  LYS A 131      25.595  23.140  17.487  1.00 26.91     0.338 C 
ATOM     25  NZ  LYS A 131      24.113  23.145  17.442  1.00 27.40     0.618 N 
ENDBRANCH  23  24
ENDBRANCH  22  23
ENDBRANCH  21  22
ENDBRANCH  20  21
END_RES LYS A 131
