REMARK VINA RESULT:    -5.907      2.251      3.362
REMARK INTER + INTRA:         -17.981
REMARK INTER:                  -7.886
REMARK INTRA:                 -10.095
REMARK UNBOUND:                -6.721
REMARK SMILES CC(=O)N[C@@H]1[C@@H](O)C[C@](O)(C(=O)O)O[C@H]1C(O)[C@H](O)CNC(=O)OCc1cn(CC(=O)NCc2cccs2)nn1
REMARK SMILES IDX 21 1 22 2 23 3 20 5 18 6 16 7 15 8 9 9 8 10 14 11 6 12 5 13
REMARK SMILES IDX 10 14 11 16 12 17 13 18 7 20 4 22 2 23 1 25 3 26 17 27 19 29
REMARK SMILES IDX 24 31 25 32 26 33 27 34 40 35 28 36 39 37 29 38 30 39 31 40
REMARK SMILES IDX 32 41 33 43 34 44 35 45 38 46 36 47 37 48
REMARK H PARENT 21 4 10 15 13 19 7 21 4 24 17 28 19 30 32 42
REMARK Flexibility Score: inf
ROOT
ATOM      1  N   UNL     1      25.311  17.622  14.593  1.00  0.00    -0.319 N 
ATOM      2  C   UNL     1      24.259  16.840  14.101  1.00  0.00     0.407 C 
ATOM      3  O   UNL     1      23.936  15.782  14.724  1.00  0.00    -0.225 OA
ATOM      4  H   UNL     1      25.558  18.502  14.043  1.00  0.00     0.167 HD
ENDROOT
BRANCH   1   5
ATOM      5  C   UNL     1      26.052  17.279  15.784  1.00  0.00     0.154 C 
BRANCH   5   6
ATOM      6  C   UNL     1      26.223  18.483  16.645  1.00  0.00     0.165 C 
BRANCH   6   7
ATOM      7  C   UNL     1      25.196  19.544  16.473  1.00  0.00     0.176 C 
BRANCH   7   8
ATOM      8  C   UNL     1      24.003  19.375  17.351  1.00  0.00     0.178 C 
ATOM      9  C   UNL     1      22.145  19.171  15.961  1.00  0.00     0.269 C 
ATOM     10  C   UNL     1      21.511  20.448  16.474  1.00  0.00     0.112 C 
ATOM     11  O   UNL     1      23.002  18.581  16.869  1.00  0.00    -0.332 OA
ATOM     12  C   UNL     1      22.623  21.410  16.777  1.00  0.00     0.145 C 
ATOM     13  C   UNL     1      23.537  20.761  17.764  1.00  0.00     0.142 C 
BRANCH   9  14
ATOM     14  O   UNL     1      22.775  19.490  14.764  1.00  0.00    -0.357 OA
ATOM     15  H   UNL     1      23.752  19.552  14.988  1.00  0.00     0.214 HD
ENDBRANCH   9  14
BRANCH   9  16
ATOM     16  C   UNL     1      21.033  18.234  15.699  1.00  0.00     0.364 C 
ATOM     17  O   UNL     1      21.128  17.036  16.112  1.00  0.00    -0.246 OA
BRANCH  16  18
ATOM     18  O   UNL     1      19.884  18.579  15.025  1.00  0.00    -0.477 OA
ATOM     19  H   UNL     1      19.093  17.914  14.992  1.00  0.00     0.296 HD
ENDBRANCH  16  18
ENDBRANCH   9  16
BRANCH  12  20
ATOM     20  O   UNL     1      23.252  21.717  15.573  1.00  0.00    -0.391 OA
ATOM     21  H   UNL     1      24.123  22.157  15.696  1.00  0.00     0.211 HD
ENDBRANCH  12  20
BRANCH  13  22
ATOM     22  N   UNL     1      22.827  20.632  19.020  1.00  0.00    -0.348 N 
ATOM     23  C   UNL     1      23.466  21.031  20.231  1.00  0.00     0.217 C 
ATOM     24  H   UNL     1      21.860  20.256  19.092  1.00  0.00     0.163 HD
ATOM     25  C   UNL     1      22.737  20.898  21.502  1.00  0.00     0.114 C 
ATOM     26  O   UNL     1      24.623  21.490  20.241  1.00  0.00    -0.275 OA
ENDBRANCH  13  22
ENDBRANCH   7   8
BRANCH   7  27
ATOM     27  O   UNL     1      25.820  20.757  16.872  1.00  0.00    -0.388 OA
ATOM     28  H   UNL     1      26.627  20.552  17.418  1.00  0.00     0.211 HD
ENDBRANCH   7  27
ENDBRANCH   6   7
BRANCH   6  29
ATOM     29  O   UNL     1      27.504  19.029  16.470  1.00  0.00    -0.388 OA
ATOM     30  H   UNL     1      27.542  19.349  15.549  1.00  0.00     0.211 HD
ENDBRANCH   6  29
ENDBRANCH   5   6
ENDBRANCH   1   5
BRANCH   2  31
ATOM     31  O   UNL     1      23.499  17.097  12.962  1.00  0.00    -0.443 OA
BRANCH  31  32
ATOM     32  C   UNL     1      22.391  16.240  12.672  1.00  0.00     0.294 C 
BRANCH  32  33
ATOM     33  C   UNL     1      21.233  17.030  12.282  1.00  0.00     0.120 A 
ATOM     34  C   UNL     1      21.287  18.229  11.590  1.00  0.00     0.138 A 
ATOM     35  N   UNL     1      19.921  16.805  12.504  1.00  0.00    -0.132 NA
ATOM     36  N   UNL     1      20.037  18.652  11.437  1.00  0.00    -0.243 N 
ATOM     37  N   UNL     1      19.192  17.772  12.001  1.00  0.00    -0.067 NA
BRANCH  36  38
ATOM     38  C   UNL     1      19.656  19.881  10.760  1.00  0.00     0.245 C 
BRANCH  38  39
ATOM     39  C   UNL     1      18.830  20.680  11.704  1.00  0.00     0.242 C 
ATOM     40  O   UNL     1      17.885  21.358  11.240  1.00  0.00    -0.273 OA
ATOM     41  N   UNL     1      19.066  20.707  13.098  1.00  0.00    -0.350 N 
ATOM     42  H   UNL     1      19.843  20.164  13.524  1.00  0.00     0.163 HD
BRANCH  41  43
ATOM     43  C   UNL     1      18.215  21.505  13.948  1.00  0.00     0.162 C 
BRANCH  43  44
ATOM     44  C   UNL     1      19.060  22.555  14.628  1.00  0.00     0.024 A 
ATOM     45  C   UNL     1      20.147  23.198  14.218  1.00  0.00     0.017 A 
ATOM     46  S   UNL     1      18.775  23.195  16.215  1.00  0.00    -0.147 S 
ATOM     47  C   UNL     1      20.742  24.104  15.006  1.00  0.00     0.012 A 
ATOM     48  C   UNL     1      20.168  24.328  16.254  1.00  0.00     0.065 A 
ENDBRANCH  43  44
ENDBRANCH  41  43
ENDBRANCH  38  39
ENDBRANCH  36  38
ENDBRANCH  32  33
ENDBRANCH  31  32
ENDBRANCH   2  31
TORSDOF 18
BEGIN_RES LYS A 135
REMARK  4 active torsions:
REMARK  status: ('A' for Active; 'I' for Inactive)
REMARK    1  A    between atoms: CA   and  CB  
REMARK    2  A    between atoms: CB   and  CG  
REMARK    3  A    between atoms: CG   and  CD  
REMARK    4  A    between atoms: CD   and  CE  
ROOT
ATOM      1  CA  LYS A 135      33.193  34.663   9.290  1.00 25.02     0.186 C 
ENDROOT
BRANCH   1   2
ATOM      2  CB  LYS A 135      32.060  35.360  10.034  1.00 26.63     0.034 C 
BRANCH   2   3
ATOM      3  CG  LYS A 135      30.690  34.869   9.642  1.00 29.45     0.005 C 
BRANCH   3   4
ATOM      4  CD  LYS A 135      30.108  35.730   8.532  1.00 32.00     0.041 C 
BRANCH   4   5
ATOM      5  CE  LYS A 135      29.078  34.950   7.738  1.00 34.25     0.338 C 
ATOM      6  NZ  LYS A 135      28.764  35.632   6.452  1.00 35.99     0.618 N 
ENDBRANCH   4   5
ENDBRANCH   3   4
ENDBRANCH   2   3
ENDBRANCH   1   2
END_RES LYS A 135
BEGIN_RES ARG A 124
REMARK  4 active torsions:
REMARK  status: ('A' for Active; 'I' for Inactive)
REMARK    5  A    between atoms: CA   and  CB  
REMARK    6  A    between atoms: CB   and  CG  
REMARK    7  A    between atoms: CG   and  CD  
REMARK    8  A    between atoms: CD   and  NE  
REMARK       I    between atoms: NE   and  CZ  
ROOT
ATOM      7  CA  ARG A 124      31.045  26.515   9.594  1.00 17.84     0.186 C 
ENDROOT
BRANCH   7   8
ATOM      8  CB  ARG A 124      29.529  26.705   9.647  1.00 16.18     0.036 C 
BRANCH   8   9
ATOM      9  CG  ARG A 124      28.882  26.604  11.074  1.00 16.22     0.029 C 
BRANCH   9  10
ATOM     10  CD  ARG A 124      27.466  25.984  11.049  1.00 15.09     0.145 C 
BRANCH  10  11
ATOM     11  NE  ARG A 124      26.383  26.952  11.331  1.00 16.98    -0.083 NA
ATOM     12  CZ  ARG A 124      26.080  27.424  12.535  1.00 18.21     0.782 C 
ATOM     13  NH1 ARG A 124      26.763  27.055  13.613  1.00 21.11     0.063 N 
ATOM     14  NH2 ARG A 124      25.096  28.298  12.674  1.00 21.25     0.063 N 
ENDBRANCH  10  11
ENDBRANCH   9  10
ENDBRANCH   8   9
ENDBRANCH   7   8
END_RES ARG A 124
BEGIN_RES ASN A 133
REMARK  2 active torsions:
REMARK  status: ('A' for Active; 'I' for Inactive)
REMARK    9  A    between atoms: CA   and  CB  
REMARK   10  A    between atoms: CB   and  CG  
ROOT
ATOM     15  CA  ASN A 133      31.225  30.257  11.749  1.00 18.15     0.196 C 
ENDROOT
BRANCH  15  16
ATOM     16  CB  ASN A 133      30.092  31.240  11.460  1.00 18.27     0.126 C 
BRANCH  16  17
ATOM     17  CG  ASN A 133      28.734  30.613  11.527  1.00 18.94     0.276 C 
ATOM     18  OD1 ASN A 133      28.446  29.638  10.831  1.00 18.09    -0.269 OA
ATOM     19  ND2 ASN A 133      27.874  31.176  12.375  1.00 18.93    -0.107 N 
ENDBRANCH  16  17
ENDBRANCH  15  16
END_RES ASN A 133
BEGIN_RES LYS A 131
REMARK  4 active torsions:
REMARK  status: ('A' for Active; 'I' for Inactive)
REMARK   11  A    between atoms: CA   and  CB  
REMARK   12  A    between atoms: CB   and  CG  
REMARK   13  A    between atoms: CG   and  CD  
REMARK   14  A    between atoms: CD   and  CE  
ROOT
ATOM     20  CA  LYS A 131      29.867  25.555  16.977  1.00 20.52     0.186 C 
ENDROOT
BRANCH  20  21
ATOM     21  CB  LYS A 131      28.345  25.722  17.026  1.00 20.94     0.034 C 
BRANCH  21  22
ATOM     22  CG  LYS A 131      27.600  24.411  16.824  1.00 22.96     0.005 C 
BRANCH  22  23
ATOM     23  CD  LYS A 131      26.547  24.191  17.875  1.00 24.33     0.041 C 
BRANCH  23  24
ATOM     24  CE  LYS A 131      25.166  24.248  17.231  1.00 26.91     0.338 C 
ATOM     25  NZ  LYS A 131      24.114  24.354  18.269  1.00 27.40     0.618 N 
ENDBRANCH  23  24
ENDBRANCH  22  23
ENDBRANCH  21  22
ENDBRANCH  20  21
END_RES LYS A 131
