REMARK VINA RESULT:    -5.634      2.100      4.430
REMARK INTER + INTRA:         -20.380
REMARK INTER:                 -10.639
REMARK INTRA:                  -9.741
REMARK UNBOUND:                -8.816
REMARK SMILES CC(=O)N[C@@H]1[C@@H](O)C[C@](O)(C(=O)O)O[C@H]1C(O)[C@H](O)CNC(=O)OCc1cn(C[C@@H](C(=O)O)C(c2ccccc2)c2ccccc2)nn1
REMARK SMILES IDX 21 1 22 2 23 3 20 5 18 6 16 7 15 8 9 9 8 10 14 11 6 12 5 13
REMARK SMILES IDX 10 14 11 16 12 17 13 18 7 20 4 22 2 23 1 25 3 26 17 27 19 29
REMARK SMILES IDX 24 31 25 32 26 33 27 34 48 35 28 36 47 37 29 38 30 39 31 40
REMARK SMILES IDX 32 41 33 42 34 44 35 45 36 46 40 47 37 48 39 49 38 50 41 51
REMARK SMILES IDX 42 52 46 53 43 54 45 55 44 56
REMARK H PARENT 21 4 10 15 13 19 7 21 4 24 17 28 19 30 33 43
REMARK Flexibility Score: inf
ROOT
ATOM      1  N   UNL     1      30.838  36.278  13.586  1.00  0.00    -0.319 N 
ATOM      2  C   UNL     1      31.289  37.438  12.941  1.00  0.00     0.407 C 
ATOM      3  O   UNL     1      32.167  37.328  12.049  1.00  0.00    -0.225 OA
ATOM      4  H   UNL     1      30.118  36.312  14.325  1.00  0.00     0.167 HD
ENDROOT
BRANCH   1   5
ATOM      5  C   UNL     1      31.381  34.952  13.228  1.00  0.00     0.154 C 
BRANCH   5   6
ATOM      6  C   UNL     1      30.243  33.974  13.248  1.00  0.00     0.165 C 
BRANCH   6   7
ATOM      7  C   UNL     1      30.145  33.085  14.438  1.00  0.00     0.176 C 
BRANCH   7   8
ATOM      8  C   UNL     1      28.798  33.097  15.141  1.00  0.00     0.178 C 
ATOM      9  C   UNL     1      26.684  34.000  14.698  1.00  0.00     0.269 C 
ATOM     10  C   UNL     1      26.622  34.534  16.122  1.00  0.00     0.112 C 
ATOM     11  O   UNL     1      27.997  33.896  14.292  1.00  0.00    -0.332 OA
ATOM     12  C   UNL     1      28.012  34.981  16.554  1.00  0.00     0.145 C 
ATOM     13  C   UNL     1      28.900  33.708  16.494  1.00  0.00     0.142 C 
BRANCH   9  14
ATOM     14  O   UNL     1      26.126  35.010  13.867  1.00  0.00    -0.357 OA
ATOM     15  H   UNL     1      26.015  35.794  14.448  1.00  0.00     0.214 HD
ENDBRANCH   9  14
BRANCH   9  16
ATOM     16  C   UNL     1      25.874  32.787  14.506  1.00  0.00     0.364 C 
ATOM     17  O   UNL     1      25.481  32.129  15.490  1.00  0.00    -0.246 OA
BRANCH  16  18
ATOM     18  O   UNL     1      25.545  32.370  13.235  1.00  0.00    -0.477 OA
ATOM     19  H   UNL     1      25.631  32.949  12.404  1.00  0.00     0.296 HD
ENDBRANCH  16  18
ENDBRANCH   9  16
BRANCH  12  20
ATOM     20  O   UNL     1      28.562  35.887  15.688  1.00  0.00    -0.391 OA
ATOM     21  H   UNL     1      27.915  36.572  15.356  1.00  0.00     0.211 HD
ENDBRANCH  12  20
BRANCH  13  22
ATOM     22  N   UNL     1      28.495  32.830  17.581  1.00  0.00    -0.348 N 
ATOM     23  C   UNL     1      29.451  31.999  18.195  1.00  0.00     0.217 C 
ATOM     24  H   UNL     1      27.510  32.798  17.923  1.00  0.00     0.163 HD
ATOM     25  C   UNL     1      28.991  31.100  19.313  1.00  0.00     0.114 C 
ATOM     26  O   UNL     1      30.664  31.944  17.886  1.00  0.00    -0.275 OA
ENDBRANCH  13  22
ENDBRANCH   7   8
BRANCH   7  27
ATOM     27  O   UNL     1      31.061  33.621  15.438  1.00  0.00    -0.388 OA
ATOM     28  H   UNL     1      31.511  34.342  14.923  1.00  0.00     0.211 HD
ENDBRANCH   7  27
ENDBRANCH   6   7
BRANCH   6  29
ATOM     29  O   UNL     1      30.039  33.367  12.027  1.00  0.00    -0.388 OA
ATOM     30  H   UNL     1      29.077  33.206  11.829  1.00  0.00     0.211 HD
ENDBRANCH   6  29
ENDBRANCH   5   6
ENDBRANCH   1   5
BRANCH   2  31
ATOM     31  O   UNL     1      30.822  38.714  13.231  1.00  0.00    -0.443 OA
BRANCH  31  32
ATOM     32  C   UNL     1      29.894  39.326  12.351  1.00  0.00     0.294 C 
BRANCH  32  33
ATOM     33  C   UNL     1      28.532  38.800  12.626  1.00  0.00     0.120 A 
ATOM     34  C   UNL     1      27.375  38.899  11.887  1.00  0.00     0.138 A 
ATOM     35  N   UNL     1      28.182  38.096  13.714  1.00  0.00    -0.132 NA
ATOM     36  N   UNL     1      26.364  38.273  12.512  1.00  0.00    -0.251 N 
ATOM     37  N   UNL     1      26.895  37.788  13.639  1.00  0.00    -0.067 NA
BRANCH  36  38
ATOM     38  C   UNL     1      24.962  38.126  12.089  1.00  0.00     0.162 C 
BRANCH  38  39
ATOM     39  C   UNL     1      24.876  36.903  11.223  1.00  0.00     0.132 C 
BRANCH  39  40
ATOM     40  C   UNL     1      23.884  35.912  11.743  1.00  0.00     0.309 C 
ATOM     41  O   UNL     1      24.165  34.664  11.748  1.00  0.00    -0.252 OA
BRANCH  40  42
ATOM     42  O   UNL     1      22.641  36.240  12.241  1.00  0.00    -0.481 OA
ATOM     43  H   UNL     1      22.344  35.974  13.189  1.00  0.00     0.296 HD
ENDBRANCH  40  42
ENDBRANCH  39  40
BRANCH  39  44
ATOM     44  C   UNL     1      24.719  37.142   9.764  1.00  0.00     0.065 C 
BRANCH  44  45
ATOM     45  C   UNL     1      23.341  36.976   9.251  1.00  0.00    -0.040 A 
ATOM     46  C   UNL     1      22.913  35.782   8.779  1.00  0.00     0.004 A 
ATOM     47  C   UNL     1      22.479  38.059   9.241  1.00  0.00     0.004 A 
ATOM     48  C   UNL     1      21.606  35.666   8.289  1.00  0.00     0.000 A 
ATOM     49  C   UNL     1      21.189  37.966   8.765  1.00  0.00     0.000 A 
ATOM     50  C   UNL     1      20.757  36.749   8.283  1.00  0.00     0.000 A 
ENDBRANCH  44  45
BRANCH  44  51
ATOM     51  C   UNL     1      25.705  36.442   8.905  1.00  0.00    -0.040 A 
ATOM     52  C   UNL     1      26.204  35.190   9.176  1.00  0.00     0.004 A 
ATOM     53  C   UNL     1      26.200  37.034   7.743  1.00  0.00     0.004 A 
ATOM     54  C   UNL     1      27.124  34.570   8.360  1.00  0.00     0.000 A 
ATOM     55  C   UNL     1      27.118  36.429   6.919  1.00  0.00     0.000 A 
ATOM     56  C   UNL     1      27.591  35.174   7.229  1.00  0.00     0.000 A 
ENDBRANCH  44  51
ENDBRANCH  39  44
ENDBRANCH  38  39
ENDBRANCH  36  38
ENDBRANCH  32  33
ENDBRANCH  31  32
ENDBRANCH   2  31
TORSDOF 21
BEGIN_RES LYS A 135
REMARK  4 active torsions:
REMARK  status: ('A' for Active; 'I' for Inactive)
REMARK    1  A    between atoms: CA   and  CB  
REMARK    2  A    between atoms: CB   and  CG  
REMARK    3  A    between atoms: CG   and  CD  
REMARK    4  A    between atoms: CD   and  CE  
ROOT
ATOM      1  CA  LYS A 135      33.193  34.663   9.290  1.00 25.02     0.186 C 
ENDROOT
BRANCH   1   2
ATOM      2  CB  LYS A 135      32.060  35.360  10.034  1.00 26.63     0.034 C 
BRANCH   2   3
ATOM      3  CG  LYS A 135      30.734  35.280   9.323  1.00 29.45     0.005 C 
BRANCH   3   4
ATOM      4  CD  LYS A 135      29.873  36.489   9.656  1.00 32.00     0.041 C 
BRANCH   4   5
ATOM      5  CE  LYS A 135      30.376  37.719   8.925  1.00 34.25     0.338 C 
ATOM      6  NZ  LYS A 135      29.287  38.719   8.745  1.00 35.99     0.618 N 
ENDBRANCH   4   5
ENDBRANCH   3   4
ENDBRANCH   2   3
ENDBRANCH   1   2
END_RES LYS A 135
BEGIN_RES ARG A 124
REMARK  4 active torsions:
REMARK  status: ('A' for Active; 'I' for Inactive)
REMARK    5  A    between atoms: CA   and  CB  
REMARK    6  A    between atoms: CB   and  CG  
REMARK    7  A    between atoms: CG   and  CD  
REMARK    8  A    between atoms: CD   and  NE  
REMARK       I    between atoms: NE   and  CZ  
ROOT
ATOM      7  CA  ARG A 124      31.045  26.515   9.594  1.00 17.84     0.186 C 
ENDROOT
BRANCH   7   8
ATOM      8  CB  ARG A 124      29.529  26.705   9.647  1.00 16.18     0.036 C 
BRANCH   8   9
ATOM      9  CG  ARG A 124      28.897  26.726  11.085  1.00 16.22     0.029 C 
BRANCH   9  10
ATOM     10  CD  ARG A 124      27.496  26.076  11.134  1.00 15.09     0.145 C 
BRANCH  10  11
ATOM     11  NE  ARG A 124      26.401  27.034  11.400  1.00 16.98    -0.083 NA
ATOM     12  CZ  ARG A 124      26.139  27.580  12.583  1.00 18.21     0.782 C 
ATOM     13  NH1 ARG A 124      26.880  27.304  13.649  1.00 21.11     0.063 N 
ATOM     14  NH2 ARG A 124      25.138  28.438  12.708  1.00 21.25     0.063 N 
ENDBRANCH  10  11
ENDBRANCH   9  10
ENDBRANCH   8   9
ENDBRANCH   7   8
END_RES ARG A 124
BEGIN_RES ASN A 133
REMARK  2 active torsions:
REMARK  status: ('A' for Active; 'I' for Inactive)
REMARK    9  A    between atoms: CA   and  CB  
REMARK   10  A    between atoms: CB   and  CG  
ROOT
ATOM     15  CA  ASN A 133      31.225  30.257  11.749  1.00 18.15     0.196 C 
ENDROOT
BRANCH  15  16
ATOM     16  CB  ASN A 133      30.092  31.240  11.460  1.00 18.27     0.126 C 
BRANCH  16  17
ATOM     17  CG  ASN A 133      28.732  30.621  11.560  1.00 18.94     0.276 C 
ATOM     18  OD1 ASN A 133      27.975  30.892  12.495  1.00 18.09    -0.269 OA
ATOM     19  ND2 ASN A 133      28.405  29.772  10.587  1.00 18.93    -0.107 N 
ENDBRANCH  16  17
ENDBRANCH  15  16
END_RES ASN A 133
BEGIN_RES LYS A 131
REMARK  4 active torsions:
REMARK  status: ('A' for Active; 'I' for Inactive)
REMARK   11  A    between atoms: CA   and  CB  
REMARK   12  A    between atoms: CB   and  CG  
REMARK   13  A    between atoms: CG   and  CD  
REMARK   14  A    between atoms: CD   and  CE  
ROOT
ATOM     20  CA  LYS A 131      29.867  25.555  16.977  1.00 20.52     0.186 C 
ENDROOT
BRANCH  20  21
ATOM     21  CB  LYS A 131      28.345  25.722  17.026  1.00 20.94     0.034 C 
BRANCH  21  22
ATOM     22  CG  LYS A 131      27.609  24.397  17.149  1.00 22.96     0.005 C 
BRANCH  22  23
ATOM     23  CD  LYS A 131      26.117  24.580  17.197  1.00 24.33     0.041 C 
BRANCH  23  24
ATOM     24  CE  LYS A 131      25.780  26.058  17.032  1.00 26.91     0.338 C 
ATOM     25  NZ  LYS A 131      24.621  26.227  16.124  1.00 27.40     0.618 N 
ENDBRANCH  23  24
ENDBRANCH  22  23
ENDBRANCH  21  22
ENDBRANCH  20  21
END_RES LYS A 131
