REMARK VINA RESULT:    -4.794      9.252     21.295
REMARK INTER + INTRA:         -18.073
REMARK INTER:                 -11.023
REMARK INTRA:                  -7.050
REMARK UNBOUND:                -9.495
REMARK SMILES CC(=O)N[C@@H]1[C@@H](O)C[C@](O)(C(=O)O)O[C@H]1C(O)[C@H](O)CNC(=O)OCc1cn(-c2ccccc2C(N)=O)nn1
REMARK SMILES IDX 21 1 22 2 23 3 20 5 18 6 16 7 15 8 9 9 8 10 14 11 6 12 5 13
REMARK SMILES IDX 10 14 11 16 12 17 13 18 7 20 4 22 2 23 1 25 3 26 17 27 19 29
REMARK SMILES IDX 24 31 25 32 26 33 27 34 39 35 28 36 38 37 29 38 34 39 30 40
REMARK SMILES IDX 33 41 31 42 32 43 35 44 37 45 36 46
REMARK H PARENT 21 4 10 15 13 19 7 21 4 24 17 28 19 30 36 47 36 48
REMARK Flexibility Score: inf
ROOT
ATOM      1  N   UNL     1      30.172  41.357   4.372  1.00  0.00    -0.319 N 
ATOM      2  C   UNL     1      28.875  41.652   3.873  1.00  0.00     0.407 C 
ATOM      3  O   UNL     1      28.761  42.430   2.910  1.00  0.00    -0.225 OA
ATOM      4  H   UNL     1      30.198  40.687   5.194  1.00  0.00     0.167 HD
ENDROOT
BRANCH   1   5
ATOM      5  C   UNL     1      31.400  41.895   3.843  1.00  0.00     0.154 C 
BRANCH   5   6
ATOM      6  C   UNL     1      32.563  41.747   4.809  1.00  0.00     0.165 C 
BRANCH   6   7
ATOM      7  C   UNL     1      32.905  40.308   5.057  1.00  0.00     0.176 C 
BRANCH   7   8
ATOM      8  C   UNL     1      34.344  40.041   5.284  1.00  0.00     0.178 C 
ATOM      9  C   UNL     1      35.871  38.305   4.930  1.00  0.00     0.269 C 
ATOM     10  C   UNL     1      36.843  39.369   5.349  1.00  0.00     0.112 C 
ATOM     11  O   UNL     1      34.589  38.732   4.793  1.00  0.00    -0.332 OA
ATOM     12  C   UNL     1      36.406  40.168   6.528  1.00  0.00     0.145 C 
ATOM     13  C   UNL     1      34.889  40.080   6.654  1.00  0.00     0.142 C 
BRANCH   9  14
ATOM     14  O   UNL     1      35.986  37.204   5.811  1.00  0.00    -0.357 OA
ATOM     15  H   UNL     1      35.717  36.385   5.302  1.00  0.00     0.214 HD
ENDBRANCH   9  14
BRANCH   9  16
ATOM     16  C   UNL     1      36.331  37.802   3.603  1.00  0.00     0.364 C 
ATOM     17  O   UNL     1      35.673  38.146   2.574  1.00  0.00    -0.246 OA
BRANCH  16  18
ATOM     18  O   UNL     1      37.428  36.986   3.431  1.00  0.00    -0.477 OA
ATOM     19  H   UNL     1      37.334  35.983   3.402  1.00  0.00     0.296 HD
ENDBRANCH  16  18
ENDBRANCH   9  16
BRANCH  12  20
ATOM     20  O   UNL     1      37.037  39.684   7.662  1.00  0.00    -0.391 OA
ATOM     21  H   UNL     1      36.983  40.295   8.439  1.00  0.00     0.211 HD
ENDBRANCH  12  20
BRANCH  13  22
ATOM     22  N   UNL     1      34.359  41.000   7.585  1.00  0.00    -0.348 N 
ATOM     23  C   UNL     1      33.456  40.612   8.596  1.00  0.00     0.217 C 
ATOM     24  H   UNL     1      34.638  42.001   7.565  1.00  0.00     0.163 HD
ATOM     25  C   UNL     1      32.871  41.531   9.595  1.00  0.00     0.114 C 
ATOM     26  O   UNL     1      33.128  39.406   8.653  1.00  0.00    -0.275 OA
ENDBRANCH  13  22
ENDBRANCH   7   8
BRANCH   7  27
ATOM     27  O   UNL     1      32.003  39.608   5.824  1.00  0.00    -0.388 OA
ATOM     28  H   UNL     1      32.360  39.500   6.756  1.00  0.00     0.211 HD
ENDBRANCH   7  27
ENDBRANCH   6   7
BRANCH   6  29
ATOM     29  O   UNL     1      32.427  42.531   5.919  1.00  0.00    -0.388 OA
ATOM     30  H   UNL     1      31.546  42.998   5.927  1.00  0.00     0.211 HD
ENDBRANCH   6  29
ENDBRANCH   5   6
ENDBRANCH   1   5
BRANCH   2  31
ATOM     31  O   UNL     1      27.724  41.100   4.423  1.00  0.00    -0.443 OA
BRANCH  31  32
ATOM     32  C   UNL     1      27.398  39.730   4.272  1.00  0.00     0.294 C 
BRANCH  32  33
ATOM     33  C   UNL     1      27.260  39.080   5.611  1.00  0.00     0.121 A 
ATOM     34  C   UNL     1      27.781  37.848   5.962  1.00  0.00     0.144 A 
ATOM     35  N   UNL     1      26.627  39.546   6.698  1.00  0.00    -0.131 NA
ATOM     36  N   UNL     1      27.438  37.616   7.264  1.00  0.00    -0.220 N 
ATOM     37  N   UNL     1      26.753  38.644   7.672  1.00  0.00    -0.062 NA
BRANCH  36  38
ATOM     38  C   UNL     1      27.781  36.439   8.004  1.00  0.00     0.079 A 
ATOM     39  C   UNL     1      28.912  36.370   8.783  1.00  0.00     0.065 A 
ATOM     40  C   UNL     1      26.929  35.343   7.916  1.00  0.00     0.029 A 
ATOM     41  C   UNL     1      29.178  35.185   9.476  1.00  0.00     0.016 A 
ATOM     42  C   UNL     1      27.209  34.187   8.603  1.00  0.00     0.002 A 
ATOM     43  C   UNL     1      28.336  34.119   9.379  1.00  0.00     0.001 A 
BRANCH  39  44
ATOM     44  C   UNL     1      29.843  37.480   8.920  1.00  0.00     0.250 C 
ATOM     45  O   UNL     1      29.543  38.395   9.753  1.00  0.00    -0.269 OA
ATOM     46  N   UNL     1      31.047  37.574   8.172  1.00  0.00    -0.366 N 
ATOM     47  H   UNL     1      31.861  36.965   8.351  1.00  0.00     0.159 HD
ATOM     48  H   UNL     1      31.073  38.320   7.413  1.00  0.00     0.159 HD
ENDBRANCH  39  44
ENDBRANCH  36  38
ENDBRANCH  32  33
ENDBRANCH  31  32
ENDBRANCH   2  31
TORSDOF 16
BEGIN_RES LYS A 135
REMARK  4 active torsions:
REMARK  status: ('A' for Active; 'I' for Inactive)
REMARK    1  A    between atoms: CA   and  CB  
REMARK    2  A    between atoms: CB   and  CG  
REMARK    3  A    between atoms: CG   and  CD  
REMARK    4  A    between atoms: CD   and  CE  
ROOT
ATOM      1  CA  LYS A 135      33.193  34.663   9.290  1.00 25.02     0.186 C 
ENDROOT
BRANCH   1   2
ATOM      2  CB  LYS A 135      32.060  35.360  10.034  1.00 26.63     0.034 C 
BRANCH   2   3
ATOM      3  CG  LYS A 135      32.399  35.704  11.461  1.00 29.45     0.005 C 
BRANCH   3   4
ATOM      4  CD  LYS A 135      32.186  37.188  11.721  1.00 32.00     0.041 C 
BRANCH   4   5
ATOM      5  CE  LYS A 135      31.257  37.395  12.902  1.00 34.25     0.338 C 
ATOM      6  NZ  LYS A 135      29.992  36.628  12.730  1.00 35.99     0.618 N 
ENDBRANCH   4   5
ENDBRANCH   3   4
ENDBRANCH   2   3
ENDBRANCH   1   2
END_RES LYS A 135
BEGIN_RES ARG A 124
REMARK  4 active torsions:
REMARK  status: ('A' for Active; 'I' for Inactive)
REMARK    5  A    between atoms: CA   and  CB  
REMARK    6  A    between atoms: CB   and  CG  
REMARK    7  A    between atoms: CG   and  CD  
REMARK    8  A    between atoms: CD   and  NE  
REMARK       I    between atoms: NE   and  CZ  
ROOT
ATOM      7  CA  ARG A 124      31.045  26.515   9.594  1.00 17.84     0.186 C 
ENDROOT
BRANCH   7   8
ATOM      8  CB  ARG A 124      29.529  26.705   9.647  1.00 16.18     0.036 C 
BRANCH   8   9
ATOM      9  CG  ARG A 124      28.778  25.870  10.745  1.00 16.22     0.029 C 
BRANCH   9  10
ATOM     10  CD  ARG A 124      28.730  26.586  12.114  1.00 15.09     0.145 C 
BRANCH  10  11
ATOM     11  NE  ARG A 124      27.390  26.589  12.741  1.00 16.98    -0.083 NA
ATOM     12  CZ  ARG A 124      27.026  27.366  13.755  1.00 18.21     0.782 C 
ATOM     13  NH1 ARG A 124      27.869  28.241  14.291  1.00 21.11     0.063 N 
ATOM     14  NH2 ARG A 124      25.794  27.295  14.234  1.00 21.25     0.063 N 
ENDBRANCH  10  11
ENDBRANCH   9  10
ENDBRANCH   8   9
ENDBRANCH   7   8
END_RES ARG A 124
BEGIN_RES ASN A 133
REMARK  2 active torsions:
REMARK  status: ('A' for Active; 'I' for Inactive)
REMARK    9  A    between atoms: CA   and  CB  
REMARK   10  A    between atoms: CB   and  CG  
ROOT
ATOM     15  CA  ASN A 133      31.225  30.257  11.749  1.00 18.15     0.196 C 
ENDROOT
BRANCH  15  16
ATOM     16  CB  ASN A 133      30.092  31.240  11.460  1.00 18.27     0.126 C 
BRANCH  16  17
ATOM     17  CG  ASN A 133      28.735  30.610  11.509  1.00 18.94     0.276 C 
ATOM     18  OD1 ASN A 133      28.462  29.626  10.818  1.00 18.09    -0.269 OA
ATOM     19  ND2 ASN A 133      27.858  31.177  12.336  1.00 18.93    -0.107 N 
ENDBRANCH  16  17
ENDBRANCH  15  16
END_RES ASN A 133
BEGIN_RES LYS A 131
REMARK  4 active torsions:
REMARK  status: ('A' for Active; 'I' for Inactive)
REMARK   11  A    between atoms: CA   and  CB  
REMARK   12  A    between atoms: CB   and  CG  
REMARK   13  A    between atoms: CG   and  CD  
REMARK   14  A    between atoms: CD   and  CE  
ROOT
ATOM     20  CA  LYS A 131      29.867  25.555  16.977  1.00 20.52     0.186 C 
ENDROOT
BRANCH  20  21
ATOM     21  CB  LYS A 131      28.345  25.722  17.026  1.00 20.94     0.034 C 
BRANCH  21  22
ATOM     22  CG  LYS A 131      27.600  24.418  16.789  1.00 22.96     0.005 C 
BRANCH  22  23
ATOM     23  CD  LYS A 131      26.195  24.462  17.324  1.00 24.33     0.041 C 
BRANCH  23  24
ATOM     24  CE  LYS A 131      26.114  23.644  18.609  1.00 26.91     0.338 C 
ATOM     25  NZ  LYS A 131      24.745  23.107  18.796  1.00 27.40     0.618 N 
ENDBRANCH  23  24
ENDBRANCH  22  23
ENDBRANCH  21  22
ENDBRANCH  20  21
END_RES LYS A 131
