REMARK VINA RESULT:    -6.134      3.062      5.859
REMARK INTER + INTRA:         -18.413
REMARK INTER:                  -8.876
REMARK INTRA:                  -9.536
REMARK UNBOUND:                -6.721
REMARK SMILES CC(=O)N[C@@H]1[C@@H](O)C[C@](O)(C(=O)O)O[C@H]1C(O)[C@H](O)CNC(=O)OCc1cn(CC(=O)NCc2cccs2)nn1
REMARK SMILES IDX 21 1 22 2 23 3 20 5 18 6 16 7 15 8 9 9 8 10 14 11 6 12 5 13
REMARK SMILES IDX 10 14 11 16 12 17 13 18 7 20 4 22 2 23 1 25 3 26 17 27 19 29
REMARK SMILES IDX 24 31 25 32 26 33 27 34 40 35 28 36 39 37 29 38 30 39 31 40
REMARK SMILES IDX 32 41 33 43 34 44 35 45 38 46 36 47 37 48
REMARK H PARENT 21 4 10 15 13 19 7 21 4 24 17 28 19 30 32 42
REMARK Flexibility Score: inf
ROOT
ATOM      1  N   UNL     1      27.868  17.170  16.673  1.00  0.00    -0.319 N 
ATOM      2  C   UNL     1      27.918  15.792  16.916  1.00  0.00     0.407 C 
ATOM      3  O   UNL     1      27.872  14.992  15.930  1.00  0.00    -0.225 OA
ATOM      4  H   UNL     1      27.906  17.812  17.523  1.00  0.00     0.167 HD
ENDROOT
BRANCH   1   5
ATOM      5  C   UNL     1      27.763  17.728  15.345  1.00  0.00     0.154 C 
BRANCH   5   6
ATOM      6  C   UNL     1      26.532  18.561  15.236  1.00  0.00     0.165 C 
BRANCH   6   7
ATOM      7  C   UNL     1      25.252  17.849  15.496  1.00  0.00     0.176 C 
BRANCH   7   8
ATOM      8  C   UNL     1      24.080  18.441  14.790  1.00  0.00     0.178 C 
ATOM      9  C   UNL     1      22.951  19.778  16.328  1.00  0.00     0.269 C 
ATOM     10  C   UNL     1      21.700  18.924  16.285  1.00  0.00     0.112 C 
ATOM     11  O   UNL     1      23.710  19.697  15.177  1.00  0.00    -0.332 OA
ATOM     12  C   UNL     1      22.136  17.499  16.098  1.00  0.00     0.145 C 
ATOM     13  C   UNL     1      22.950  17.427  14.847  1.00  0.00     0.142 C 
BRANCH   9  14
ATOM     14  O   UNL     1      23.659  19.393  17.461  1.00  0.00    -0.357 OA
ATOM     15  H   UNL     1      24.363  18.759  17.129  1.00  0.00     0.214 HD
ENDBRANCH   9  14
BRANCH   9  16
ATOM     16  C   UNL     1      22.493  21.174  16.483  1.00  0.00     0.364 C 
ATOM     17  O   UNL     1      21.617  21.440  17.364  1.00  0.00    -0.246 OA
BRANCH  16  18
ATOM     18  O   UNL     1      22.961  22.222  15.723  1.00  0.00    -0.477 OA
ATOM     19  H   UNL     1      22.994  23.172  16.130  1.00  0.00     0.296 HD
ENDBRANCH  16  18
ENDBRANCH   9  16
BRANCH  12  20
ATOM     20  O   UNL     1      22.851  17.127  17.234  1.00  0.00    -0.391 OA
ATOM     21  H   UNL     1      22.737  17.756  17.982  1.00  0.00     0.211 HD
ENDBRANCH  12  20
BRANCH  13  22
ATOM     22  N   UNL     1      22.073  17.680  13.723  1.00  0.00    -0.348 N 
ATOM     23  C   UNL     1      22.059  16.770  12.626  1.00  0.00     0.217 C 
ATOM     24  H   UNL     1      21.441  18.505  13.667  1.00  0.00     0.163 HD
ATOM     25  C   UNL     1      21.164  17.034  11.487  1.00  0.00     0.114 C 
ATOM     26  O   UNL     1      22.784  15.757  12.604  1.00  0.00    -0.275 OA
ENDBRANCH  13  22
ENDBRANCH   7   8
BRANCH   7  27
ATOM     27  O   UNL     1      25.422  16.541  14.967  1.00  0.00    -0.388 OA
ATOM     28  H   UNL     1      25.135  16.527  14.014  1.00  0.00     0.211 HD
ENDBRANCH   7  27
ENDBRANCH   6   7
BRANCH   6  29
ATOM     29  O   UNL     1      26.479  19.190  13.983  1.00  0.00    -0.388 OA
ATOM     30  H   UNL     1      27.201  18.805  13.452  1.00  0.00     0.211 HD
ENDBRANCH   6  29
ENDBRANCH   5   6
ENDBRANCH   1   5
BRANCH   2  31
ATOM     31  O   UNL     1      28.015  15.174  18.160  1.00  0.00    -0.443 OA
BRANCH  31  32
ATOM     32  C   UNL     1      26.810  14.786  18.828  1.00  0.00     0.294 C 
BRANCH  32  33
ATOM     33  C   UNL     1      26.101  15.963  19.308  1.00  0.00     0.120 A 
ATOM     34  C   UNL     1      26.161  16.452  20.602  1.00  0.00     0.138 A 
ATOM     35  N   UNL     1      25.259  16.789  18.652  1.00  0.00    -0.132 NA
ATOM     36  N   UNL     1      25.372  17.519  20.657  1.00  0.00    -0.243 N 
ATOM     37  N   UNL     1      24.814  17.729  19.452  1.00  0.00    -0.067 NA
BRANCH  36  38
ATOM     38  C   UNL     1      25.155  18.328  21.846  1.00  0.00     0.245 C 
BRANCH  38  39
ATOM     39  C   UNL     1      24.328  19.500  21.450  1.00  0.00     0.242 C 
ATOM     40  O   UNL     1      23.211  19.650  21.995  1.00  0.00    -0.273 OA
ATOM     41  N   UNL     1      24.750  20.448  20.490  1.00  0.00    -0.350 N 
ATOM     42  H   UNL     1      25.667  20.359  20.010  1.00  0.00     0.163 HD
BRANCH  41  43
ATOM     43  C   UNL     1      23.890  21.561  20.163  1.00  0.00     0.162 C 
BRANCH  43  44
ATOM     44  C   UNL     1      24.715  22.626  19.483  1.00  0.00     0.024 A 
ATOM     45  C   UNL     1      25.291  22.650  18.287  1.00  0.00     0.017 A 
ATOM     46  S   UNL     1      25.125  24.165  20.171  1.00  0.00    -0.147 S 
ATOM     47  C   UNL     1      25.990  23.721  17.887  1.00  0.00     0.012 A 
ATOM     48  C   UNL     1      26.077  24.786  18.779  1.00  0.00     0.065 A 
ENDBRANCH  43  44
ENDBRANCH  41  43
ENDBRANCH  38  39
ENDBRANCH  36  38
ENDBRANCH  32  33
ENDBRANCH  31  32
ENDBRANCH   2  31
TORSDOF 18
BEGIN_RES LYS A 135
REMARK  4 active torsions:
REMARK  status: ('A' for Active; 'I' for Inactive)
REMARK    1  A    between atoms: CA   and  CB  
REMARK    2  A    between atoms: CB   and  CG  
REMARK    3  A    between atoms: CG   and  CD  
REMARK    4  A    between atoms: CD   and  CE  
ROOT
ATOM      1  CA  LYS A 135      33.193  34.663   9.290  1.00 25.02     0.186 C 
ENDROOT
BRANCH   1   2
ATOM      2  CB  LYS A 135      32.060  35.360  10.034  1.00 26.63     0.034 C 
BRANCH   2   3
ATOM      3  CG  LYS A 135      30.744  34.631   9.947  1.00 29.45     0.005 C 
BRANCH   3   4
ATOM      4  CD  LYS A 135      30.493  34.143   8.528  1.00 32.00     0.041 C 
BRANCH   4   5
ATOM      5  CE  LYS A 135      29.547  35.080   7.802  1.00 34.25     0.338 C 
ATOM      6  NZ  LYS A 135      28.127  34.745   8.101  1.00 35.99     0.618 N 
ENDBRANCH   4   5
ENDBRANCH   3   4
ENDBRANCH   2   3
ENDBRANCH   1   2
END_RES LYS A 135
BEGIN_RES ARG A 124
REMARK  4 active torsions:
REMARK  status: ('A' for Active; 'I' for Inactive)
REMARK    5  A    between atoms: CA   and  CB  
REMARK    6  A    between atoms: CB   and  CG  
REMARK    7  A    between atoms: CG   and  CD  
REMARK    8  A    between atoms: CD   and  NE  
REMARK       I    between atoms: NE   and  CZ  
ROOT
ATOM      7  CA  ARG A 124      31.045  26.515   9.594  1.00 17.84     0.186 C 
ENDROOT
BRANCH   7   8
ATOM      8  CB  ARG A 124      29.529  26.705   9.647  1.00 16.18     0.036 C 
BRANCH   8   9
ATOM      9  CG  ARG A 124      29.021  27.855  10.589  1.00 16.22     0.029 C 
BRANCH   9  10
ATOM     10  CD  ARG A 124      28.411  27.325  11.907  1.00 15.09     0.145 C 
BRANCH  10  11
ATOM     11  NE  ARG A 124      27.355  28.196  12.469  1.00 16.98    -0.083 NA
ATOM     12  CZ  ARG A 124      26.049  27.991  12.334  1.00 18.21     0.782 C 
ATOM     13  NH1 ARG A 124      25.580  26.943  11.670  1.00 21.11     0.063 N 
ATOM     14  NH2 ARG A 124      25.188  28.830  12.890  1.00 21.25     0.063 N 
ENDBRANCH  10  11
ENDBRANCH   9  10
ENDBRANCH   8   9
ENDBRANCH   7   8
END_RES ARG A 124
BEGIN_RES ASN A 133
REMARK  2 active torsions:
REMARK  status: ('A' for Active; 'I' for Inactive)
REMARK    9  A    between atoms: CA   and  CB  
REMARK   10  A    between atoms: CB   and  CG  
ROOT
ATOM     15  CA  ASN A 133      31.225  30.257  11.749  1.00 18.15     0.196 C 
ENDROOT
BRANCH  15  16
ATOM     16  CB  ASN A 133      30.092  31.240  11.460  1.00 18.27     0.126 C 
BRANCH  16  17
ATOM     17  CG  ASN A 133      29.383  31.705  12.694  1.00 18.94     0.276 C 
ATOM     18  OD1 ASN A 133      29.937  32.446  13.508  1.00 18.09    -0.269 OA
ATOM     19  ND2 ASN A 133      28.134  31.268  12.848  1.00 18.93    -0.107 N 
ENDBRANCH  16  17
ENDBRANCH  15  16
END_RES ASN A 133
BEGIN_RES LYS A 131
REMARK  4 active torsions:
REMARK  status: ('A' for Active; 'I' for Inactive)
REMARK   11  A    between atoms: CA   and  CB  
REMARK   12  A    between atoms: CB   and  CG  
REMARK   13  A    between atoms: CG   and  CD  
REMARK   14  A    between atoms: CD   and  CE  
ROOT
ATOM     20  CA  LYS A 131      29.867  25.555  16.977  1.00 20.52     0.186 C 
ENDROOT
BRANCH  20  21
ATOM     21  CB  LYS A 131      28.345  25.722  17.026  1.00 20.94     0.034 C 
BRANCH  21  22
ATOM     22  CG  LYS A 131      27.725  25.895  15.648  1.00 22.96     0.005 C 
BRANCH  22  23
ATOM     23  CD  LYS A 131      26.569  26.856  15.664  1.00 24.33     0.041 C 
BRANCH  23  24
ATOM     24  CE  LYS A 131      26.880  28.012  16.610  1.00 26.91     0.338 C 
ATOM     25  NZ  LYS A 131      27.154  29.250  15.843  1.00 27.40     0.618 N 
ENDBRANCH  23  24
ENDBRANCH  22  23
ENDBRANCH  21  22
ENDBRANCH  20  21
END_RES LYS A 131
