REMARK VINA RESULT:    -6.937      2.015      3.771
REMARK INTER + INTRA:         -20.815
REMARK INTER:                 -12.039
REMARK INTRA:                  -8.777
REMARK UNBOUND:                -7.795
REMARK SMILES CC(=O)N[C@@H]1[C@@H](O)C[C@](O)(C(=O)O)O[C@H]1C(O)[C@H](O)CNC(=O)OCc1cn(-c2ccc(-c3c4ccc(=O)cc-4oc4cc(O)ccc34)c(C(=O)[O-])c2)nn1
REMARK SMILES IDX 21 1 22 2 23 3 20 5 18 6 16 7 15 8 9 9 8 10 14 11 6 12 5 13
REMARK SMILES IDX 10 14 11 16 12 17 13 18 7 20 4 22 2 23 1 25 3 26 17 27 19 29
REMARK SMILES IDX 24 31 25 32 26 33 27 34 55 35 28 36 54 37 29 38 53 39 30 40
REMARK SMILES IDX 49 41 31 42 32 43 50 44 51 45 52 46 33 47 48 48 34 49 47 50
REMARK SMILES IDX 42 51 40 52 35 53 46 54 43 55 41 56 39 57 36 58 44 59 37 60
REMARK SMILES IDX 38 61 45 62
REMARK H PARENT 21 4 10 15 13 19 7 21 4 24 17 28 19 30 45 63
REMARK Flexibility Score: inf
ROOT
ATOM      1  N   UNL     1      26.013  29.235  16.613  1.00  0.00    -0.319 N 
ATOM      2  C   UNL     1      25.126  29.343  17.694  1.00  0.00     0.407 C 
ATOM      3  O   UNL     1      25.524  29.180  18.853  1.00  0.00    -0.225 OA
ATOM      4  H   UNL     1      25.574  29.399  15.651  1.00  0.00     0.167 HD
ENDROOT
BRANCH   1   5
ATOM      5  C   UNL     1      27.417  28.934  16.674  1.00  0.00     0.154 C 
BRANCH   5   6
ATOM      6  C   UNL     1      28.343  30.071  16.430  1.00  0.00     0.165 C 
BRANCH   6   7
ATOM      7  C   UNL     1      27.919  31.390  16.990  1.00  0.00     0.176 C 
BRANCH   7   8
ATOM      8  C   UNL     1      28.951  32.473  16.775  1.00  0.00     0.178 C 
ATOM      9  C   UNL     1      29.593  34.185  15.416  1.00  0.00     0.269 C 
ATOM     10  C   UNL     1      31.003  34.039  16.004  1.00  0.00     0.112 C 
ATOM     11  O   UNL     1      28.841  33.033  15.531  1.00  0.00    -0.332 OA
ATOM     12  C   UNL     1      31.271  32.536  16.039  1.00  0.00     0.145 C 
ATOM     13  C   UNL     1      30.355  31.910  17.062  1.00  0.00     0.142 C 
BRANCH   9  14
ATOM     14  O   UNL     1      29.709  34.401  14.015  1.00  0.00    -0.357 OA
ATOM     15  H   UNL     1      28.997  35.038  13.742  1.00  0.00     0.214 HD
ENDBRANCH   9  14
BRANCH   9  16
ATOM     16  C   UNL     1      28.943  35.388  15.973  1.00  0.00     0.364 C 
ATOM     17  O   UNL     1      28.249  35.303  17.003  1.00  0.00    -0.246 OA
BRANCH  16  18
ATOM     18  O   UNL     1      29.053  36.659  15.414  1.00  0.00    -0.477 OA
ATOM     19  H   UNL     1      28.949  37.494  15.982  1.00  0.00     0.296 HD
ENDBRANCH  16  18
ENDBRANCH   9  16
BRANCH  12  20
ATOM     20  O   UNL     1      30.892  32.041  14.791  1.00  0.00    -0.391 OA
ATOM     21  H   UNL     1      31.653  31.940  14.176  1.00  0.00     0.211 HD
ENDBRANCH  12  20
BRANCH  13  22
ATOM     22  N   UNL     1      30.685  32.257  18.406  1.00  0.00    -0.348 N 
ATOM     23  C   UNL     1      30.662  31.358  19.511  1.00  0.00     0.217 C 
ATOM     24  H   UNL     1      30.966  33.262  18.583  1.00  0.00     0.163 HD
ATOM     25  C   UNL     1      31.029  31.873  20.838  1.00  0.00     0.114 C 
ATOM     26  O   UNL     1      30.325  30.173  19.281  1.00  0.00    -0.275 OA
ENDBRANCH  13  22
ENDBRANCH   7   8
BRANCH   7  27
ATOM     27  O   UNL     1      27.614  31.345  18.342  1.00  0.00    -0.388 OA
ATOM     28  H   UNL     1      28.264  30.732  18.776  1.00  0.00     0.211 HD
ENDBRANCH   7  27
ENDBRANCH   6   7
BRANCH   6  29
ATOM     29  O   UNL     1      28.684  30.212  15.069  1.00  0.00    -0.388 OA
ATOM     30  H   UNL     1      27.862  30.201  14.525  1.00  0.00     0.211 HD
ENDBRANCH   6  29
ENDBRANCH   5   6
ENDBRANCH   1   5
BRANCH   2  31
ATOM     31  O   UNL     1      23.769  29.634  17.522  1.00  0.00    -0.443 OA
BRANCH  31  32
ATOM     32  C   UNL     1      23.225  30.876  17.949  1.00  0.00     0.294 C 
BRANCH  32  33
ATOM     33  C   UNL     1      24.025  31.946  17.300  1.00  0.00     0.121 A 
ATOM     34  C   UNL     1      24.154  32.121  15.937  1.00  0.00     0.144 A 
ATOM     35  N   UNL     1      24.761  32.927  17.848  1.00  0.00    -0.131 NA
ATOM     36  N   UNL     1      24.953  33.185  15.725  1.00  0.00    -0.220 N 
ATOM     37  N   UNL     1      25.316  33.668  16.903  1.00  0.00    -0.062 NA
BRANCH  36  38
ATOM     38  C   UNL     1      25.313  33.664  14.428  1.00  0.00     0.067 A 
ATOM     39  C   UNL     1      25.909  34.889  14.224  1.00  0.00     0.039 A 
ATOM     40  C   UNL     1      25.074  32.892  13.300  1.00  0.00     0.029 A 
ATOM     41  C   UNL     1      26.255  35.337  12.952  1.00  0.00     0.007 A 
ATOM     42  C   UNL     1      25.415  33.331  12.038  1.00  0.00     0.012 A 
ATOM     43  C   UNL     1      26.011  34.557  11.842  1.00  0.00    -0.008 A 
BRANCH  41  44
ATOM     44  C   UNL     1      26.885  36.639  12.771  1.00  0.00     0.072 C 
ATOM     45  O   UNL     1      28.129  36.756  12.741  1.00  0.00    -0.545 OA
ATOM     46  O   UNL     1      26.073  37.752  12.632  1.00  0.00    -0.545 OA
ENDBRANCH  41  44
BRANCH  43  47
ATOM     47  C   UNL     1      26.383  35.044  10.522  1.00  0.00     0.004 A 
ATOM     48  C   UNL     1      27.624  34.770   9.977  1.00  0.00     0.026 A 
ATOM     49  C   UNL     1      25.529  35.803   9.742  1.00  0.00     0.026 A 
ATOM     50  C   UNL     1      28.550  34.017  10.681  1.00  0.00     0.016 A 
ATOM     51  C   UNL     1      27.950  35.249   8.713  1.00  0.00     0.139 A 
ATOM     52  C   UNL     1      25.918  36.283   8.419  1.00  0.00     0.139 A 
ATOM     53  C   UNL     1      24.277  36.108  10.232  1.00  0.00     0.016 A 
ATOM     54  C   UNL     1      29.795  33.736  10.147  1.00  0.00     0.047 A 
ATOM     55  C   UNL     1      29.190  34.969   8.180  1.00  0.00     0.093 A 
ATOM     56  O   UNL     1      27.113  35.973   7.989  1.00  0.00    -0.456 OA
ATOM     57  C   UNL     1      25.067  37.036   7.647  1.00  0.00     0.099 A 
ATOM     58  C   UNL     1      23.441  36.868   9.433  1.00  0.00     0.053 A 
ATOM     59  C   UNL     1      30.104  34.217   8.895  1.00  0.00     0.119 A 
ATOM     60  C   UNL     1      23.826  37.321   8.170  1.00  0.00     0.182 A 
ATOM     61  O   UNL     1      22.967  38.000   7.555  1.00  0.00    -0.290 OA
BRANCH  59  62
ATOM     62  O   UNL     1      31.350  33.952   8.328  1.00  0.00    -0.508 OA
ATOM     63  H   UNL     1      31.459  33.485   7.460  1.00  0.00     0.293 HD
ENDBRANCH  59  62
ENDBRANCH  43  47
ENDBRANCH  36  38
ENDBRANCH  32  33
ENDBRANCH  31  32
ENDBRANCH   2  31
TORSDOF 18
BEGIN_RES LYS A 135
REMARK  4 active torsions:
REMARK  status: ('A' for Active; 'I' for Inactive)
REMARK    1  A    between atoms: CA   and  CB  
REMARK    2  A    between atoms: CB   and  CG  
REMARK    3  A    between atoms: CG   and  CD  
REMARK    4  A    between atoms: CD   and  CE  
ROOT
ATOM      1  CA  LYS A 135      33.193  34.663   9.290  1.00 25.02     0.186 C 
ENDROOT
BRANCH   1   2
ATOM      2  CB  LYS A 135      32.060  35.360  10.034  1.00 26.63     0.034 C 
BRANCH   2   3
ATOM      3  CG  LYS A 135      32.527  36.187  11.204  1.00 29.45     0.005 C 
BRANCH   3   4
ATOM      4  CD  LYS A 135      31.496  36.164  12.322  1.00 32.00     0.041 C 
BRANCH   4   5
ATOM      5  CE  LYS A 135      31.853  37.174  13.396  1.00 34.25     0.338 C 
ATOM      6  NZ  LYS A 135      31.091  38.441  13.215  1.00 35.99     0.618 N 
ENDBRANCH   4   5
ENDBRANCH   3   4
ENDBRANCH   2   3
ENDBRANCH   1   2
END_RES LYS A 135
BEGIN_RES ARG A 124
REMARK  4 active torsions:
REMARK  status: ('A' for Active; 'I' for Inactive)
REMARK    5  A    between atoms: CA   and  CB  
REMARK    6  A    between atoms: CB   and  CG  
REMARK    7  A    between atoms: CG   and  CD  
REMARK    8  A    between atoms: CD   and  NE  
REMARK       I    between atoms: NE   and  CZ  
ROOT
ATOM      7  CA  ARG A 124      31.045  26.515   9.594  1.00 17.84     0.186 C 
ENDROOT
BRANCH   7   8
ATOM      8  CB  ARG A 124      29.529  26.705   9.647  1.00 16.18     0.036 C 
BRANCH   8   9
ATOM      9  CG  ARG A 124      28.892  26.683  11.082  1.00 16.22     0.029 C 
BRANCH   9  10
ATOM     10  CD  ARG A 124      27.453  26.117  11.092  1.00 15.09     0.145 C 
BRANCH  10  11
ATOM     11  NE  ARG A 124      26.419  27.119  11.432  1.00 16.98    -0.083 NA
ATOM     12  CZ  ARG A 124      26.146  27.543  12.661  1.00 18.21     0.782 C 
ATOM     13  NH1 ARG A 124      26.819  27.090  13.712  1.00 21.11     0.063 N 
ATOM     14  NH2 ARG A 124      25.204  28.454  12.852  1.00 21.25     0.063 N 
ENDBRANCH  10  11
ENDBRANCH   9  10
ENDBRANCH   8   9
ENDBRANCH   7   8
END_RES ARG A 124
BEGIN_RES ASN A 133
REMARK  2 active torsions:
REMARK  status: ('A' for Active; 'I' for Inactive)
REMARK    9  A    between atoms: CA   and  CB  
REMARK   10  A    between atoms: CB   and  CG  
ROOT
ATOM     15  CA  ASN A 133      31.225  30.257  11.749  1.00 18.15     0.196 C 
ENDROOT
BRANCH  15  16
ATOM     16  CB  ASN A 133      30.092  31.240  11.460  1.00 18.27     0.126 C 
BRANCH  16  17
ATOM     17  CG  ASN A 133      28.731  30.627  11.583  1.00 18.94     0.276 C 
ATOM     18  OD1 ASN A 133      27.996  30.892  12.536  1.00 18.09    -0.269 OA
ATOM     19  ND2 ASN A 133      28.379  29.790  10.609  1.00 18.93    -0.107 N 
ENDBRANCH  16  17
ENDBRANCH  15  16
END_RES ASN A 133
BEGIN_RES LYS A 131
REMARK  4 active torsions:
REMARK  status: ('A' for Active; 'I' for Inactive)
REMARK   11  A    between atoms: CA   and  CB  
REMARK   12  A    between atoms: CB   and  CG  
REMARK   13  A    between atoms: CG   and  CD  
REMARK   14  A    between atoms: CD   and  CE  
ROOT
ATOM     20  CA  LYS A 131      29.867  25.555  16.977  1.00 20.52     0.186 C 
ENDROOT
BRANCH  20  21
ATOM     21  CB  LYS A 131      28.345  25.722  17.026  1.00 20.94     0.034 C 
BRANCH  21  22
ATOM     22  CG  LYS A 131      27.600  24.409  16.842  1.00 22.96     0.005 C 
BRANCH  22  23
ATOM     23  CD  LYS A 131      26.193  24.477  17.368  1.00 24.33     0.041 C 
BRANCH  23  24
ATOM     24  CE  LYS A 131      25.932  23.281  18.279  1.00 26.91     0.338 C 
ATOM     25  NZ  LYS A 131      25.419  23.733  19.594  1.00 27.40     0.618 N 
ENDBRANCH  23  24
ENDBRANCH  22  23
ENDBRANCH  21  22
ENDBRANCH  20  21
END_RES LYS A 131
