REMARK VINA RESULT:    -7.297      1.128      2.964
REMARK INTER + INTRA:         -21.491
REMARK INTER:                 -12.298
REMARK INTRA:                  -9.193
REMARK UNBOUND:                -7.795
REMARK SMILES CC(=O)N[C@@H]1[C@@H](O)C[C@](O)(C(=O)O)O[C@H]1C(O)[C@H](O)CNC(=O)OCc1cn(-c2ccc(-c3c4ccc(=O)cc-4oc4cc(O)ccc34)c(C(=O)[O-])c2)nn1
REMARK SMILES IDX 21 1 22 2 23 3 20 5 18 6 16 7 15 8 9 9 8 10 14 11 6 12 5 13
REMARK SMILES IDX 10 14 11 16 12 17 13 18 7 20 4 22 2 23 1 25 3 26 17 27 19 29
REMARK SMILES IDX 24 31 25 32 26 33 27 34 55 35 28 36 54 37 29 38 53 39 30 40
REMARK SMILES IDX 49 41 31 42 32 43 50 44 51 45 52 46 33 47 48 48 34 49 47 50
REMARK SMILES IDX 42 51 40 52 35 53 46 54 43 55 41 56 39 57 36 58 44 59 37 60
REMARK SMILES IDX 38 61 45 62
REMARK H PARENT 21 4 10 15 13 19 7 21 4 24 17 28 19 30 45 63
REMARK Flexibility Score: inf
ROOT
ATOM      1  N   UNL     1      28.865  31.213  17.384  1.00  0.00    -0.319 N 
ATOM      2  C   UNL     1      28.127  30.395  16.515  1.00  0.00     0.407 C 
ATOM      3  O   UNL     1      28.698  29.720  15.651  1.00  0.00    -0.225 OA
ATOM      4  H   UNL     1      28.281  31.753  18.100  1.00  0.00     0.167 HD
ENDROOT
BRANCH   1   5
ATOM      5  C   UNL     1      30.291  31.389  17.404  1.00  0.00     0.154 C 
BRANCH   5   6
ATOM      6  C   UNL     1      30.851  32.325  16.395  1.00  0.00     0.165 C 
BRANCH   6   7
ATOM      7  C   UNL     1      30.042  33.551  16.122  1.00  0.00     0.176 C 
BRANCH   7   8
ATOM      8  C   UNL     1      30.806  34.591  15.336  1.00  0.00     0.178 C 
ATOM      9  C   UNL     1      31.391  35.280  13.244  1.00  0.00     0.269 C 
ATOM     10  C   UNL     1      32.564  36.031  13.888  1.00  0.00     0.112 C 
ATOM     11  O   UNL     1      30.931  34.235  14.019  1.00  0.00    -0.332 OA
ATOM     12  C   UNL     1      33.157  35.055  14.903  1.00  0.00     0.145 C 
ATOM     13  C   UNL     1      32.160  34.860  16.019  1.00  0.00     0.142 C 
BRANCH   9  14
ATOM     14  O   UNL     1      31.850  34.667  12.047  1.00  0.00    -0.357 OA
ATOM     15  H   UNL     1      32.801  34.925  11.914  1.00  0.00     0.214 HD
ENDBRANCH   9  14
BRANCH   9  16
ATOM     16  C   UNL     1      30.343  36.243  12.846  1.00  0.00     0.364 C 
ATOM     17  O   UNL     1      29.246  35.834  12.426  1.00  0.00    -0.246 OA
BRANCH  16  18
ATOM     18  O   UNL     1      30.497  37.626  12.908  1.00  0.00    -0.477 OA
ATOM     19  H   UNL     1      31.127  38.114  12.279  1.00  0.00     0.296 HD
ENDBRANCH  16  18
ENDBRANCH   9  16
BRANCH  12  20
ATOM     20  O   UNL     1      33.281  33.832  14.244  1.00  0.00    -0.391 OA
ATOM     21  H   UNL     1      34.149  33.398  14.409  1.00  0.00     0.211 HD
ENDBRANCH  12  20
BRANCH  13  22
ATOM     22  N   UNL     1      31.998  36.014  16.843  1.00  0.00    -0.348 N 
ATOM     23  C   UNL     1      31.977  36.005  18.267  1.00  0.00     0.217 C 
ATOM     24  H   UNL     1      31.883  36.941  16.345  1.00  0.00     0.163 HD
ATOM     25  C   UNL     1      31.800  37.282  18.971  1.00  0.00     0.114 C 
ATOM     26  O   UNL     1      32.113  34.896  18.836  1.00  0.00    -0.275 OA
ENDBRANCH  13  22
ENDBRANCH   7   8
BRANCH   7  27
ATOM     27  O   UNL     1      29.547  34.154  17.269  1.00  0.00    -0.388 OA
ATOM     28  H   UNL     1      28.590  33.899  17.352  1.00  0.00     0.211 HD
ENDBRANCH   7  27
ENDBRANCH   6   7
BRANCH   6  29
ATOM     29  O   UNL     1      31.179  31.684  15.182  1.00  0.00    -0.388 OA
ATOM     30  H   UNL     1      31.843  32.227  14.697  1.00  0.00     0.211 HD
ENDBRANCH   6  29
ENDBRANCH   5   6
ENDBRANCH   1   5
BRANCH   2  31
ATOM     31  O   UNL     1      26.733  30.303  16.578  1.00  0.00    -0.443 OA
BRANCH  31  32
ATOM     32  C   UNL     1      25.967  31.254  17.305  1.00  0.00     0.294 C 
BRANCH  32  33
ATOM     33  C   UNL     1      26.155  32.567  16.635  1.00  0.00     0.121 A 
ATOM     34  C   UNL     1      25.814  32.843  15.327  1.00  0.00     0.144 A 
ATOM     35  N   UNL     1      26.666  33.714  17.111  1.00  0.00    -0.131 NA
ATOM     36  N   UNL     1      26.130  34.127  15.073  1.00  0.00    -0.220 N 
ATOM     37  N   UNL     1      26.651  34.647  16.174  1.00  0.00    -0.062 NA
BRANCH  36  38
ATOM     38  C   UNL     1      25.920  34.765  13.812  1.00  0.00     0.067 A 
ATOM     39  C   UNL     1      25.462  36.059  13.698  1.00  0.00     0.039 A 
ATOM     40  C   UNL     1      26.180  34.089  12.628  1.00  0.00     0.029 A 
ATOM     41  C   UNL     1      25.266  36.665  12.459  1.00  0.00     0.007 A 
ATOM     42  C   UNL     1      25.987  34.685  11.399  1.00  0.00     0.012 A 
ATOM     43  C   UNL     1      25.529  35.979  11.293  1.00  0.00    -0.008 A 
BRANCH  41  44
ATOM     44  C   UNL     1      24.780  38.036  12.374  1.00  0.00     0.072 C 
ATOM     45  O   UNL     1      25.572  39.003  12.382  1.00  0.00    -0.545 OA
ATOM     46  O   UNL     1      23.415  38.248  12.283  1.00  0.00    -0.545 OA
ENDBRANCH  41  44
BRANCH  43  47
ATOM     47  C   UNL     1      25.319  36.632  10.009  1.00  0.00     0.004 A 
ATOM     48  C   UNL     1      26.320  37.371   9.405  1.00  0.00     0.026 A 
ATOM     49  C   UNL     1      24.119  36.554   9.324  1.00  0.00     0.026 A 
ATOM     50  C   UNL     1      27.557  37.508  10.014  1.00  0.00     0.016 A 
ATOM     51  C   UNL     1      26.088  37.983   8.178  1.00  0.00     0.139 A 
ATOM     52  C   UNL     1      23.926  37.216   8.037  1.00  0.00     0.139 A 
ATOM     53  C   UNL     1      23.084  35.830   9.876  1.00  0.00     0.016 A 
ATOM     54  C   UNL     1      28.566  38.245   9.420  1.00  0.00     0.047 A 
ATOM     55  C   UNL     1      27.093  38.717   7.586  1.00  0.00     0.093 A 
ATOM     56  O   UNL     1      24.931  37.892   7.545  1.00  0.00    -0.456 OA
ATOM     57  C   UNL     1      22.734  37.136   7.359  1.00  0.00     0.099 A 
ATOM     58  C   UNL     1      21.896  35.767   9.172  1.00  0.00     0.053 A 
ATOM     59  C   UNL     1      28.323  38.845   8.205  1.00  0.00     0.119 A 
ATOM     60  C   UNL     1      21.723  36.405   7.942  1.00  0.00     0.182 A 
ATOM     61  O   UNL     1      20.593  36.263   7.413  1.00  0.00    -0.290 OA
BRANCH  59  62
ATOM     62  O   UNL     1      29.318  39.595   7.580  1.00  0.00    -0.508 OA
ATOM     63  H   UNL     1      29.557  40.516   7.862  1.00  0.00     0.293 HD
ENDBRANCH  59  62
ENDBRANCH  43  47
ENDBRANCH  36  38
ENDBRANCH  32  33
ENDBRANCH  31  32
ENDBRANCH   2  31
TORSDOF 18
BEGIN_RES LYS A 135
REMARK  4 active torsions:
REMARK  status: ('A' for Active; 'I' for Inactive)
REMARK    1  A    between atoms: CA   and  CB  
REMARK    2  A    between atoms: CB   and  CG  
REMARK    3  A    between atoms: CG   and  CD  
REMARK    4  A    between atoms: CD   and  CE  
ROOT
ATOM      1  CA  LYS A 135      33.193  34.663   9.290  1.00 25.02     0.186 C 
ENDROOT
BRANCH   1   2
ATOM      2  CB  LYS A 135      32.060  35.360  10.034  1.00 26.63     0.034 C 
BRANCH   2   3
ATOM      3  CG  LYS A 135      30.845  35.615   9.179  1.00 29.45     0.005 C 
BRANCH   3   4
ATOM      4  CD  LYS A 135      30.138  34.311   8.849  1.00 32.00     0.041 C 
BRANCH   4   5
ATOM      5  CE  LYS A 135      28.731  34.579   8.349  1.00 34.25     0.338 C 
ATOM      6  NZ  LYS A 135      28.754  35.319   7.056  1.00 35.99     0.618 N 
ENDBRANCH   4   5
ENDBRANCH   3   4
ENDBRANCH   2   3
ENDBRANCH   1   2
END_RES LYS A 135
BEGIN_RES ARG A 124
REMARK  4 active torsions:
REMARK  status: ('A' for Active; 'I' for Inactive)
REMARK    5  A    between atoms: CA   and  CB  
REMARK    6  A    between atoms: CB   and  CG  
REMARK    7  A    between atoms: CG   and  CD  
REMARK    8  A    between atoms: CD   and  NE  
REMARK       I    between atoms: NE   and  CZ  
ROOT
ATOM      7  CA  ARG A 124      31.045  26.515   9.594  1.00 17.84     0.186 C 
ENDROOT
BRANCH   7   8
ATOM      8  CB  ARG A 124      29.529  26.705   9.647  1.00 16.18     0.036 C 
BRANCH   8   9
ATOM      9  CG  ARG A 124      28.964  27.284  10.993  1.00 16.22     0.029 C 
BRANCH   9  10
ATOM     10  CD  ARG A 124      28.369  26.192  11.912  1.00 15.09     0.145 C 
BRANCH  10  11
ATOM     11  NE  ARG A 124      27.844  26.711  13.194  1.00 16.98    -0.083 NA
ATOM     12  CZ  ARG A 124      26.611  27.171  13.380  1.00 18.21     0.782 C 
ATOM     13  NH1 ARG A 124      25.724  27.186  12.393  1.00 21.11     0.063 N 
ATOM     14  NH2 ARG A 124      26.240  27.602  14.576  1.00 21.25     0.063 N 
ENDBRANCH  10  11
ENDBRANCH   9  10
ENDBRANCH   8   9
ENDBRANCH   7   8
END_RES ARG A 124
BEGIN_RES ASN A 133
REMARK  2 active torsions:
REMARK  status: ('A' for Active; 'I' for Inactive)
REMARK    9  A    between atoms: CA   and  CB  
REMARK   10  A    between atoms: CB   and  CG  
ROOT
ATOM     15  CA  ASN A 133      31.225  30.257  11.749  1.00 18.15     0.196 C 
ENDROOT
BRANCH  15  16
ATOM     16  CB  ASN A 133      30.092  31.240  11.460  1.00 18.27     0.126 C 
BRANCH  16  17
ATOM     17  CG  ASN A 133      28.950  31.126  12.422  1.00 18.94     0.276 C 
ATOM     18  OD1 ASN A 133      28.873  31.857  13.411  1.00 18.09    -0.269 OA
ATOM     19  ND2 ASN A 133      28.040  30.194  12.138  1.00 18.93    -0.107 N 
ENDBRANCH  16  17
ENDBRANCH  15  16
END_RES ASN A 133
BEGIN_RES LYS A 131
REMARK  4 active torsions:
REMARK  status: ('A' for Active; 'I' for Inactive)
REMARK   11  A    between atoms: CA   and  CB  
REMARK   12  A    between atoms: CB   and  CG  
REMARK   13  A    between atoms: CG   and  CD  
REMARK   14  A    between atoms: CD   and  CE  
ROOT
ATOM     20  CA  LYS A 131      29.867  25.555  16.977  1.00 20.52     0.186 C 
ENDROOT
BRANCH  20  21
ATOM     21  CB  LYS A 131      28.345  25.722  17.026  1.00 20.94     0.034 C 
BRANCH  21  22
ATOM     22  CG  LYS A 131      27.825  25.995  18.429  1.00 22.96     0.005 C 
BRANCH  22  23
ATOM     23  CD  LYS A 131      27.227  27.369  18.554  1.00 24.33     0.041 C 
BRANCH  23  24
ATOM     24  CE  LYS A 131      28.049  28.194  19.539  1.00 26.91     0.338 C 
ATOM     25  NZ  LYS A 131      27.268  29.359  20.018  1.00 27.40     0.618 N 
ENDBRANCH  23  24
ENDBRANCH  22  23
ENDBRANCH  21  22
ENDBRANCH  20  21
END_RES LYS A 131
