REMARK VINA RESULT:    -5.896      0.000      0.000
REMARK INTER + INTRA:         -18.403
REMARK INTER:                  -9.725
REMARK INTRA:                  -8.678
REMARK UNBOUND:                -8.198
REMARK SMILES CC(=O)N[C@@H]1[C@@H](O)C[C@](O)(C(=O)O)O[C@H]1C(O)[C@H](O)CNC(=O)OCc1cn(C23CC4CC(CC(C4)C2)C3)nn1
REMARK SMILES IDX 20 1 18 2 16 3 15 4 9 5 8 6 14 7 6 8 5 9 10 10 11 12 12 13
REMARK SMILES IDX 13 14 7 16 4 18 2 19 1 21 3 22 17 23 19 25 21 27 22 28 23 30
REMARK SMILES IDX 24 31 25 32 26 33 27 34 40 35 28 36 39 37 29 38 38 39 37 40
REMARK SMILES IDX 30 41 33 42 35 43 31 44 32 45 34 46 36 47
REMARK H PARENT 10 11 13 15 7 17 4 20 17 24 19 26 21 29
REMARK Flexibility Score: inf
ROOT
ATOM      1  C   UNL     1      25.925  27.468  19.252  1.00  0.00     0.154 C 
ENDROOT
BRANCH   1   2
ATOM      2  C   UNL     1      26.960  27.458  20.375  1.00  0.00     0.165 C 
BRANCH   2   3
ATOM      3  C   UNL     1      27.405  28.814  20.786  1.00  0.00     0.176 C 
BRANCH   3   4
ATOM      4  C   UNL     1      28.829  29.168  20.595  1.00  0.00     0.178 C 
ATOM      5  C   UNL     1      30.975  28.751  21.397  1.00  0.00     0.269 C 
ATOM      6  C   UNL     1      31.525  29.834  20.538  1.00  0.00     0.112 C 
ATOM      7  O   UNL     1      29.632  28.806  21.671  1.00  0.00    -0.332 OA
ATOM      8  C   UNL     1      30.576  30.493  19.602  1.00  0.00     0.145 C 
ATOM      9  C   UNL     1      29.153  30.565  20.210  1.00  0.00     0.142 C 
BRANCH   5  10
ATOM     10  O   UNL     1      31.612  28.906  22.664  1.00  0.00    -0.357 OA
ATOM     11  H   UNL     1      31.281  29.773  23.013  1.00  0.00     0.214 HD
ENDBRANCH   5  10
BRANCH   5  12
ATOM     12  C   UNL     1      31.417  27.425  20.908  1.00  0.00     0.364 C 
ATOM     13  O   UNL     1      31.111  26.409  21.574  1.00  0.00    -0.246 OA
BRANCH  12  14
ATOM     14  O   UNL     1      32.150  27.255  19.752  1.00  0.00    -0.477 OA
ATOM     15  H   UNL     1      32.082  28.009  19.058  1.00  0.00     0.296 HD
ENDBRANCH  12  14
ENDBRANCH   5  12
BRANCH   8  16
ATOM     16  O   UNL     1      30.947  31.779  19.282  1.00  0.00    -0.391 OA
ATOM     17  H   UNL     1      31.853  31.959  19.647  1.00  0.00     0.211 HD
ENDBRANCH   8  16
BRANCH   9  18
ATOM     18  N   UNL     1      28.341  31.117  19.164  1.00  0.00    -0.348 N 
ATOM     19  C   UNL     1      27.945  32.473  19.227  1.00  0.00     0.217 C 
ATOM     20  H   UNL     1      28.052  30.520  18.375  1.00  0.00     0.163 HD
ATOM     21  C   UNL     1      27.105  33.113  18.183  1.00  0.00     0.114 C 
ATOM     22  O   UNL     1      28.317  33.180  20.206  1.00  0.00    -0.275 OA
ENDBRANCH   9  18
ENDBRANCH   3   4
BRANCH   3  23
ATOM     23  O   UNL     1      27.003  29.084  22.094  1.00  0.00    -0.388 OA
ATOM     24  H   UNL     1      27.241  28.350  22.711  1.00  0.00     0.211 HD
ENDBRANCH   3  23
ENDBRANCH   2   3
BRANCH   2  25
ATOM     25  O   UNL     1      28.103  26.852  19.771  1.00  0.00    -0.388 OA
ATOM     26  H   UNL     1      28.877  26.929  20.387  1.00  0.00     0.211 HD
ENDBRANCH   2  25
ENDBRANCH   1   2
BRANCH   1  27
ATOM     27  N   UNL     1      26.008  28.739  18.521  1.00  0.00    -0.319 N 
ATOM     28  C   UNL     1      26.728  28.855  17.314  1.00  0.00     0.407 C 
ATOM     29  H   UNL     1      25.527  29.565  18.902  1.00  0.00     0.167 HD
ATOM     30  O   UNL     1      27.297  27.791  16.904  1.00  0.00    -0.225 OA
BRANCH  28  31
ATOM     31  O   UNL     1      26.829  30.036  16.596  1.00  0.00    -0.443 OA
BRANCH  31  32
ATOM     32  C   UNL     1      27.520  30.097  15.375  1.00  0.00     0.294 C 
BRANCH  32  33
ATOM     33  C   UNL     1      28.690  30.992  15.547  1.00  0.00     0.120 A 
ATOM     34  C   UNL     1      28.945  32.190  14.910  1.00  0.00     0.138 A 
ATOM     35  N   UNL     1      29.715  30.783  16.367  1.00  0.00    -0.132 NA
ATOM     36  N   UNL     1      30.114  32.668  15.365  1.00  0.00    -0.246 N 
ATOM     37  N   UNL     1      30.573  31.785  16.263  1.00  0.00    -0.066 NA
BRANCH  36  38
ATOM     38  C   UNL     1      30.724  33.895  14.946  1.00  0.00     0.065 C 
ATOM     39  C   UNL     1      32.212  33.835  15.180  1.00  0.00     0.034 C 
ATOM     40  C   UNL     1      30.207  35.065  15.792  1.00  0.00     0.034 C 
ATOM     41  C   UNL     1      30.387  34.136  13.487  1.00  0.00     0.034 C 
ATOM     42  C   UNL     1      32.865  35.106  14.690  1.00  0.00    -0.008 C 
ATOM     43  C   UNL     1      30.842  36.333  15.303  1.00  0.00    -0.008 C 
ATOM     44  C   UNL     1      31.046  35.408  13.036  1.00  0.00    -0.008 C 
ATOM     45  C   UNL     1      32.532  35.254  13.219  1.00  0.00     0.007 C 
ATOM     46  C   UNL     1      32.347  36.323  15.398  1.00  0.00     0.007 C 
ATOM     47  C   UNL     1      30.482  36.544  13.850  1.00  0.00     0.007 C 
ENDBRANCH  36  38
ENDBRANCH  32  33
ENDBRANCH  31  32
ENDBRANCH  28  31
ENDBRANCH   1  27
TORSDOF 15
BEGIN_RES LYS A 135
REMARK  4 active torsions:
REMARK  status: ('A' for Active; 'I' for Inactive)
REMARK    1  A    between atoms: CA   and  CB  
REMARK    2  A    between atoms: CB   and  CG  
REMARK    3  A    between atoms: CG   and  CD  
REMARK    4  A    between atoms: CD   and  CE  
ROOT
ATOM      1  CA  LYS A 135      33.193  34.663   9.290  1.00 25.02     0.186 C 
ENDROOT
BRANCH   1   2
ATOM      2  CB  LYS A 135      32.060  35.360  10.034  1.00 26.63     0.034 C 
BRANCH   2   3
ATOM      3  CG  LYS A 135      30.780  35.440   9.243  1.00 29.45     0.005 C 
BRANCH   3   4
ATOM      4  CD  LYS A 135      30.104  34.079   9.176  1.00 32.00     0.041 C 
BRANCH   4   5
ATOM      5  CE  LYS A 135      28.604  34.236   9.017  1.00 34.25     0.338 C 
ATOM      6  NZ  LYS A 135      27.900  34.000  10.308  1.00 35.99     0.618 N 
ENDBRANCH   4   5
ENDBRANCH   3   4
ENDBRANCH   2   3
ENDBRANCH   1   2
END_RES LYS A 135
BEGIN_RES ARG A 124
REMARK  4 active torsions:
REMARK  status: ('A' for Active; 'I' for Inactive)
REMARK    5  A    between atoms: CA   and  CB  
REMARK    6  A    between atoms: CB   and  CG  
REMARK    7  A    between atoms: CG   and  CD  
REMARK    8  A    between atoms: CD   and  NE  
REMARK       I    between atoms: NE   and  CZ  
ROOT
ATOM      7  CA  ARG A 124      31.045  26.515   9.594  1.00 17.84     0.186 C 
ENDROOT
BRANCH   7   8
ATOM      8  CB  ARG A 124      29.529  26.705   9.647  1.00 16.18     0.036 C 
BRANCH   8   9
ATOM      9  CG  ARG A 124      28.871  26.522  11.061  1.00 16.22     0.029 C 
BRANCH   9  10
ATOM     10  CD  ARG A 124      27.408  26.029  10.983  1.00 15.09     0.145 C 
BRANCH  10  11
ATOM     11  NE  ARG A 124      26.408  27.067  11.316  1.00 16.98    -0.083 NA
ATOM     12  CZ  ARG A 124      26.143  27.501  12.544  1.00 18.21     0.782 C 
ATOM     13  NH1 ARG A 124      26.791  27.023  13.599  1.00 21.11     0.063 N 
ATOM     14  NH2 ARG A 124      25.234  28.445  12.729  1.00 21.25     0.063 N 
ENDBRANCH  10  11
ENDBRANCH   9  10
ENDBRANCH   8   9
ENDBRANCH   7   8
END_RES ARG A 124
BEGIN_RES ASN A 133
REMARK  2 active torsions:
REMARK  status: ('A' for Active; 'I' for Inactive)
REMARK    9  A    between atoms: CA   and  CB  
REMARK   10  A    between atoms: CB   and  CG  
ROOT
ATOM     15  CA  ASN A 133      31.225  30.257  11.749  1.00 18.15     0.196 C 
ENDROOT
BRANCH  15  16
ATOM     16  CB  ASN A 133      30.092  31.240  11.460  1.00 18.27     0.126 C 
BRANCH  16  17
ATOM     17  CG  ASN A 133      28.752  30.581  11.344  1.00 18.94     0.276 C 
ATOM     18  OD1 ASN A 133      27.804  30.934  12.048  1.00 18.09    -0.269 OA
ATOM     19  ND2 ASN A 133      28.660  29.603  10.443  1.00 18.93    -0.107 N 
ENDBRANCH  16  17
ENDBRANCH  15  16
END_RES ASN A 133
BEGIN_RES LYS A 131
REMARK  4 active torsions:
REMARK  status: ('A' for Active; 'I' for Inactive)
REMARK   11  A    between atoms: CA   and  CB  
REMARK   12  A    between atoms: CB   and  CG  
REMARK   13  A    between atoms: CG   and  CD  
REMARK   14  A    between atoms: CD   and  CE  
ROOT
ATOM     20  CA  LYS A 131      29.867  25.555  16.977  1.00 20.52     0.186 C 
ENDROOT
BRANCH  20  21
ATOM     21  CB  LYS A 131      28.345  25.722  17.026  1.00 20.94     0.034 C 
BRANCH  21  22
ATOM     22  CG  LYS A 131      27.600  24.410  16.832  1.00 22.96     0.005 C 
BRANCH  22  23
ATOM     23  CD  LYS A 131      26.659  24.120  17.968  1.00 24.33     0.041 C 
BRANCH  23  24
ATOM     24  CE  LYS A 131      25.325  23.634  17.413  1.00 26.91     0.338 C 
ATOM     25  NZ  LYS A 131      24.307  24.708  17.492  1.00 27.40     0.618 N 
ENDBRANCH  23  24
ENDBRANCH  22  23
ENDBRANCH  21  22
ENDBRANCH  20  21
END_RES LYS A 131
