REMARK  Name = lig_assembled_18.pdb
REMARK  19 active torsions:
REMARK  status: ('A' for Active; 'I' for Inactive)
REMARK    1  A    between atoms: _2  and  _10
REMARK    2  A    between atoms: _3  and  _12
REMARK    3  A    between atoms: _5  and  _21
REMARK    4  A    between atoms: _7  and  _8
REMARK    5  A    between atoms: _7  and  _21
REMARK    6  A    between atoms: _10  and  _11
REMARK    7  A    between atoms: _12  and  _13
REMARK    8  A    between atoms: _17  and  _37
REMARK    9  A    between atoms: _19  and  _25
REMARK   10  A    between atoms: _20  and  _24
REMARK   11  A    between atoms: _24  and  _25
REMARK   12  A    between atoms: _27  and  _28
REMARK   13  A    between atoms: _29  and  _30
REMARK   14  A    between atoms: _31  and  _33
REMARK   15  A    between atoms: _33  and  _34
REMARK   16  A    between atoms: _33  and  _35
REMARK   17  A    between atoms: _35  and  _36
REMARK   18  A    between atoms: _35  and  _37
REMARK   19  A    between atoms: _38  and  _40
REMARK                            x       y       z     vdW  Elec       q    Type
REMARK                         _______ _______ _______ _____ _____    ______ ____
ROOT
ATOM      1  C   UNL     1       2.771  26.012  27.752  0.00  0.00    +0.163 C 
ENDROOT
BRANCH   1   2
ATOM      2  O   UNL     1       3.359  24.742  27.424  0.00  0.00    -0.388 OA
ATOM      3  H   UNL     1       3.335  24.169  28.194  0.00  0.00    +0.210 HD
ENDBRANCH   1   2
BRANCH   1   4
ATOM      4  C   UNL     1       2.926  27.006  26.588  0.00  0.00    +0.175 C 
BRANCH   4   5
ATOM      5  C   UNL     1       4.314  26.923  25.937  0.00  0.00    +0.176 C 
ATOM      6  O   UNL     1       4.127  26.745  24.506  0.00  0.00    -0.332 OA
ATOM      7  C   UNL     1       5.352  26.750  23.701  0.00  0.00    +0.277 C 
ATOM      8  C   UNL     1       6.354  25.696  24.233  0.00  0.00    +0.110 C 
ATOM      9  C   UNL     1       6.561  25.825  25.757  0.00  0.00    +0.143 C 
ATOM     10  C   UNL     1       5.222  25.811  26.496  0.00  0.00    +0.133 C 
BRANCH  10  11
ATOM     11  N   UNL     1       5.427  26.023  27.937  0.00  0.00    -0.308 N 
ATOM     12  H   UNL     1       5.387  26.970  28.286  0.00  0.00    +0.149 HD
ATOM     13  C   UNL     1       5.663  25.044  28.815  0.00  0.00    +0.210 C 
ATOM     14  C   UNL     1       5.744  23.614  28.249  0.00  0.00    +0.109 C 
ATOM     15  O   UNL     1       5.816  25.249  30.020  0.00  0.00    -0.276 OA
ENDBRANCH  10  11
BRANCH   7  16
ATOM     16  C   UNL     1       6.013  28.144  23.719  0.00  0.00    +0.414 C 
ATOM     17  O   UNL     1       5.920  28.861  24.715  0.00  0.00    -0.240 OA
ATOM     18  O   UNL     1       6.638  28.552  22.740  0.00  0.00    -0.240 OA
ENDBRANCH   7  16
BRANCH   7  19
ATOM     19  O   UNL     1       4.996  26.396  22.340  0.00  0.00    -0.343 OA
ATOM     20  C   UNL     1       4.677  27.519  21.479  0.00  0.00    +0.198 C 
ENDBRANCH   7  19
BRANCH   9  21
ATOM     21  O   UNL     1       7.369  24.745  26.226  0.00  0.00    -0.390 OA
ATOM     22  H   UNL     1       7.234  24.631  27.170  0.00  0.00    +0.210 HD
ENDBRANCH   9  21
ENDBRANCH   4   5
BRANCH   4  23
ATOM     23  O   UNL     1       2.671  28.349  27.046  0.00  0.00    -0.387 OA
ATOM     24  H   UNL     1       3.474  28.717  27.423  0.00  0.00    +0.210 HD
ENDBRANCH   4  23
ENDBRANCH   1   4
BRANCH   1  25
ATOM     25  C   UNL     1       1.292  25.834  28.077  0.00  0.00    +0.141 C 
BRANCH  25  28
ATOM     26  C   UNL     1      -0.409  24.345  27.079  0.00  0.00    +0.401 C 
ATOM     27  O   UNL     1      -0.761  23.867  28.160  0.00  0.00    -0.226 OA
ATOM     28  N   UNL     1       0.548  25.265  26.947  0.00  0.00    -0.279 N 
ATOM     29  H   UNL     1       0.773  25.589  26.017  0.00  0.00    +0.152 HD
BRANCH  26  30
ATOM     30  O   UNL     1      -1.048  23.897  25.880  0.00  0.00    -0.444 OA
BRANCH  30  31
ATOM     31  C   UNL     1      -1.732  24.993  25.266  0.00  0.00    +0.292 C 
BRANCH  31  33
ATOM     32  N   UNL     1      -0.904  26.337  27.177  0.00  0.00    -0.131 NA
ATOM     33  C   UNL     1      -1.851  26.119  26.212  0.00  0.00    +0.120 A 
ATOM     34  C   UNL     1      -2.827  27.083  26.315  0.00  0.00    +0.137 A 
ATOM     35  N   UNL     1      -2.405  27.875  27.342  0.00  0.00    -0.242 N 
ATOM     36  N   UNL     1      -1.258  27.410  27.872  0.00  0.00    -0.065 NA
BRANCH  35  37
ATOM     37  C   UNL     1      -3.077  28.999  27.949  0.00  0.00    +0.240 C 
BRANCH  37  38
ATOM     38  C   UNL     1      -4.575  28.807  28.007  0.00  0.00    +0.235 C 
ATOM     39  O   UNL     1      -5.114  28.125  28.877  0.00  0.00    -0.274 OA
ATOM     40  N   UNL     1      -5.293  29.497  27.051  0.00  0.00    -0.309 N 
ATOM     41  H   UNL     1      -4.820  29.909  26.259  0.00  0.00    +0.149 HD
BRANCH  40  42
ATOM     42  C   UNL     1      -6.738  29.424  26.991  0.00  0.00    +0.146 C 
BRANCH  42  43
ATOM     43  C   UNL     1      -7.147  28.233  26.186  0.00  0.00    +0.007 A 
ATOM     44  S   UNL     1      -7.969  26.920  26.921  0.00  0.00    -0.100 S 
ATOM     45  C   UNL     1      -8.000  26.036  25.458  0.00  0.00    +0.045 A 
ATOM     46  C   UNL     1      -7.412  26.728  24.421  0.00  0.00    +0.008 A 
ATOM     47  C   UNL     1      -6.927  28.000  24.842  0.00  0.00    +0.013 A 
ENDBRANCH  42  43
ENDBRANCH  40  42
ENDBRANCH  37  38
ENDBRANCH  35  37
ENDBRANCH  31  33
ENDBRANCH  30  31
ENDBRANCH  26  30
ENDBRANCH  25  28
ENDBRANCH   1  25
TORSDOF 17
