REMARK  Name = lig_assembled_13.pdb
REMARK  20 active torsions:
REMARK  status: ('A' for Active; 'I' for Inactive)
REMARK    1  A    between atoms: _2  and  _9
REMARK    2  A    between atoms: _4  and  _18
REMARK    3  A    between atoms: _5  and  _11
REMARK    4  A    between atoms: _6  and  _7
REMARK    5  A    between atoms: _6  and  _18
REMARK    6  A    between atoms: _9  and  _10
REMARK    7  A    between atoms: _10  and  _12
REMARK    8  A    between atoms: _11  and  _12
REMARK    9  A    between atoms: _14  and  _34
REMARK   10  A    between atoms: _16  and  _22
REMARK   11  A    between atoms: _17  and  _21
REMARK   12  A    between atoms: _21  and  _22
REMARK   13  A    between atoms: _24  and  _25
REMARK   14  A    between atoms: _26  and  _27
REMARK   15  A    between atoms: _28  and  _30
REMARK   16  A    between atoms: _30  and  _31
REMARK   17  A    between atoms: _30  and  _32
REMARK   18  A    between atoms: _32  and  _33
REMARK   19  A    between atoms: _32  and  _34
REMARK   20  A    between atoms: _35  and  _37
REMARK                            x       y       z     vdW  Elec       q    Type
REMARK                         _______ _______ _______ _____ _____    ______ ____
ROOT
ATOM      1  C   UNL     1      -9.118  17.122  31.761  0.00  0.00    +0.163 C 
ENDROOT
BRANCH   1   2
ATOM      2  O   UNL     1      -8.981  17.917  32.951  0.00  0.00    -0.388 OA
ATOM      3  H   UNL     1      -9.535  18.698  32.879  0.00  0.00    +0.210 HD
ENDBRANCH   1   2
BRANCH   1   4
ATOM      4  C   UNL     1      -8.135  15.939  31.774  0.00  0.00    +0.175 C 
BRANCH   4   5
ATOM      5  C   UNL     1      -6.763  16.334  32.339  0.00  0.00    +0.176 C 
ATOM      6  O   UNL     1      -6.940  16.688  33.738  0.00  0.00    -0.332 OA
ATOM      7  C   UNL     1      -5.711  16.994  34.476  0.00  0.00    +0.277 C 
ATOM      8  C   UNL     1      -4.908  18.103  33.753  0.00  0.00    +0.110 C 
ATOM      9  C   UNL     1      -4.721  17.786  32.254  0.00  0.00    +0.143 C 
ATOM     10  C   UNL     1      -6.062  17.480  31.587  0.00  0.00    +0.133 C 
BRANCH  10  11
ATOM     11  N   UNL     1      -5.862  17.095  30.181  0.00  0.00    -0.308 N 
ATOM     12  H   UNL     1      -5.393  16.220  29.994  0.00  0.00    +0.149 HD
ATOM     13  C   UNL     1      -6.259  17.826  29.136  0.00  0.00    +0.210 C 
ATOM     14  C   UNL     1      -6.947  19.167  29.454  0.00  0.00    +0.109 C 
ATOM     15  O   UNL     1      -6.091  17.471  27.969  0.00  0.00    -0.276 OA
ENDBRANCH  10  11
BRANCH   7  16
ATOM     16  C   UNL     1      -4.833  15.734  34.622  0.00  0.00    +0.414 C 
ATOM     17  O   UNL     1      -3.607  15.832  34.653  0.00  0.00    -0.240 OA
ATOM     18  O   UNL     1      -5.350  14.619  34.709  0.00  0.00    -0.240 OA
ENDBRANCH   7  16
BRANCH   7  19
ATOM     19  O   UNL     1      -6.085  17.483  35.790  0.00  0.00    -0.343 OA
ATOM     20  C   UNL     1      -7.513  17.538  36.039  0.00  0.00    +0.198 C 
ENDBRANCH   7  19
BRANCH   9  21
ATOM     21  O   UNL     1      -4.111  18.899  31.599  0.00  0.00    -0.390 OA
ATOM     22  H   UNL     1      -4.286  18.851  30.656  0.00  0.00    +0.210 HD
ENDBRANCH   9  21
ENDBRANCH   4   5
BRANCH   4  23
ATOM     23  O   UNL     1      -7.989  15.400  30.445  0.00  0.00    -0.387 OA
ATOM     24  H   UNL     1      -7.326  15.903  29.967  0.00  0.00    +0.210 HD
ENDBRANCH   4  23
ENDBRANCH   1   4
BRANCH   1  25
ATOM     25  C   UNL     1     -10.546  16.597  31.647  0.00  0.00    +0.141 C 
BRANCH  25  28
ATOM     26  C   UNL     1     -11.711  14.427  31.449  0.00  0.00    +0.401 C 
ATOM     27  O   UNL     1     -12.836  14.930  31.394  0.00  0.00    -0.226 OA
ATOM     28  N   UNL     1     -10.585  15.131  31.573  0.00  0.00    -0.279 N 
ATOM     29  H   UNL     1      -9.711  14.628  31.619  0.00  0.00    +0.152 HD
BRANCH  26  30
ATOM     30  O   UNL     1     -11.582  13.005  31.381  0.00  0.00    -0.444 OA
BRANCH  30  31
ATOM     31  C   UNL     1     -10.278  12.622  31.826  0.00  0.00    +0.292 C 
BRANCH  31  33
ATOM     32  N   UNL     1      -8.438  12.477  30.176  0.00  0.00    -0.131 NA
ATOM     33  C   UNL     1      -9.551  11.925  30.749  0.00  0.00    +0.120 A 
ATOM     34  C   UNL     1      -9.811  10.714  30.155  0.00  0.00    +0.137 A 
ATOM     35  N   UNL     1      -8.860  10.616  29.180  0.00  0.00    -0.241 N 
ATOM     36  N   UNL     1      -8.009  11.653  29.227  0.00  0.00    -0.065 NA
BRANCH  35  37
ATOM     37  C   UNL     1      -8.640   9.534  28.248  0.00  0.00    +0.265 C 
BRANCH  37  38
ATOM     38  C   UNL     1      -9.184   9.845  26.884  0.00  0.00    +0.329 C 
ATOM     39  O   UNL     1     -10.360   9.840  26.550  0.00  0.00    -0.249 OA
BRANCH  38  40
ATOM     40  O   UNL     1      -8.139  10.038  26.023  0.00  0.00    -0.464 OA
BRANCH  40  41
ATOM     41  C   UNL     1      -7.110   9.039  26.087  0.00  0.00    +0.229 C 
ATOM     42  C   UNL     1      -7.476   7.931  25.115  0.00  0.00    +0.048 C 
ENDBRANCH  40  41
ENDBRANCH  38  40
ENDBRANCH  37  38
ENDBRANCH  35  37
ENDBRANCH  31  33
ENDBRANCH  30  31
ENDBRANCH  26  30
ENDBRANCH  25  28
ENDBRANCH   1  25
TORSDOF 17
