REMARK  Name = lig_assembled_55.pdb
REMARK  20 active torsions:
REMARK  status: ('A' for Active; 'I' for Inactive)
REMARK    1  A    between atoms: _2  and  _10
REMARK    2  A    between atoms: _3  and  _11
REMARK    3  A    between atoms: _3  and  _38
REMARK    4  A    between atoms: _5  and  _18
REMARK    5  A    between atoms: _6  and  _38
REMARK    6  A    between atoms: _7  and  _8
REMARK    7  A    between atoms: _7  and  _18
REMARK    8  A    between atoms: _10  and  _11
REMARK    9  A    between atoms: _14  and  _34
REMARK   10  A    between atoms: _16  and  _22
REMARK   11  A    between atoms: _17  and  _21
REMARK   12  A    between atoms: _21  and  _22
REMARK   13  A    between atoms: _24  and  _25
REMARK   14  A    between atoms: _26  and  _27
REMARK   15  A    between atoms: _28  and  _30
REMARK   16  A    between atoms: _30  and  _31
REMARK   17  A    between atoms: _30  and  _32
REMARK   18  A    between atoms: _32  and  _33
REMARK   19  A    between atoms: _32  and  _34
REMARK   20  A    between atoms: _35  and  _37
REMARK                            x       y       z     vdW  Elec       q    Type
REMARK                         _______ _______ _______ _____ _____    ______ ____
ROOT
ATOM      1  C   UNL     1     -10.786   0.417  29.155  0.00  0.00    +0.163 C 
ENDROOT
BRANCH   1   2
ATOM      2  O   UNL     1      -9.833  -0.657  29.092  0.00  0.00    -0.388 OA
ATOM      3  H   UNL     1      -9.945  -1.229  29.855  0.00  0.00    +0.210 HD
ENDBRANCH   1   2
BRANCH   1   4
ATOM      4  C   UNL     1     -10.541   1.437  28.030  0.00  0.00    +0.175 C 
BRANCH   4   5
ATOM      5  C   UNL     1      -9.432   2.437  28.388  0.00  0.00    +0.176 C 
ATOM      6  O   UNL     1      -8.157   1.747  28.284  0.00  0.00    -0.332 OA
ATOM      7  C   UNL     1      -6.967   2.579  28.490  0.00  0.00    +0.277 C 
ATOM      8  C   UNL     1      -7.053   3.319  29.847  0.00  0.00    +0.110 C 
ATOM      9  C   UNL     1      -8.405   4.042  30.017  0.00  0.00    +0.143 C 
ATOM     10  C   UNL     1      -9.573   3.085  29.778  0.00  0.00    +0.133 C 
BRANCH  10  11
ATOM     11  N   UNL     1     -10.854   3.805  29.857  0.00  0.00    -0.308 N 
ATOM     12  H   UNL     1     -11.566   3.436  30.471  0.00  0.00    +0.149 HD
ATOM     13  C   UNL     1     -11.138   4.915  29.169  0.00  0.00    +0.210 C 
ATOM     14  C   UNL     1     -10.042   5.438  28.222  0.00  0.00    +0.109 C 
ATOM     15  O   UNL     1     -12.214   5.505  29.266  0.00  0.00    -0.276 OA
ENDBRANCH  10  11
BRANCH   7  16
ATOM     16  C   UNL     1      -6.815   3.608  27.350  0.00  0.00    +0.414 C 
ATOM     17  O   UNL     1      -7.045   3.282  26.186  0.00  0.00    -0.240 OA
ATOM     18  O   UNL     1      -6.463   4.763  27.595  0.00  0.00    -0.240 OA
ENDBRANCH   7  16
BRANCH   7  19
ATOM     19  O   UNL     1      -5.808   1.706  28.517  0.00  0.00    -0.343 OA
ATOM     20  C   UNL     1      -6.099   0.311  28.784  0.00  0.00    +0.198 C 
ENDBRANCH   7  19
BRANCH   9  21
ATOM     21  O   UNL     1      -8.501   4.581  31.336  0.00  0.00    -0.390 OA
ATOM     22  H   UNL     1      -9.423   4.734  31.554  0.00  0.00    +0.210 HD
ENDBRANCH   9  21
ENDBRANCH   4   5
BRANCH   4  23
ATOM     23  O   UNL     1     -11.762   2.138  27.720  0.00  0.00    -0.387 OA
ATOM     24  H   UNL     1     -11.868   2.878  28.323  0.00  0.00    +0.210 HD
ENDBRANCH   4  23
ENDBRANCH   1   4
BRANCH   1  25
ATOM     25  C   UNL     1     -12.203  -0.136  29.041  0.00  0.00    +0.141 C 
BRANCH  25  28
ATOM     26  C   UNL     1     -14.421   0.784  29.625  0.00  0.00    +0.401 C 
ATOM     27  O   UNL     1     -14.953   0.422  28.573  0.00  0.00    -0.226 OA
ATOM     28  N   UNL     1     -13.139   0.571  29.924  0.00  0.00    -0.279 N 
ATOM     29  H   UNL     1     -12.792   0.915  30.809  0.00  0.00    +0.152 HD
BRANCH  26  30
ATOM     30  O   UNL     1     -15.206   1.481  30.596  0.00  0.00    -0.444 OA
BRANCH  30  31
ATOM     31  C   UNL     1     -16.364   0.706  30.920  0.00  0.00    +0.292 C 
BRANCH  31  33
ATOM     32  N   UNL     1     -15.411  -0.061  33.069  0.00  0.00    -0.131 NA
ATOM     33  C   UNL     1     -16.018  -0.360  31.877  0.00  0.00    +0.120 A 
ATOM     34  C   UNL     1     -16.202  -1.723  31.796  0.00  0.00    +0.137 A 
ATOM     35  N   UNL     1     -15.670  -2.197  32.957  0.00  0.00    -0.250 N 
ATOM     36  N   UNL     1     -15.198  -1.194  33.721  0.00  0.00    -0.065 NA
BRANCH  35  37
ATOM     37  C   UNL     1     -15.602  -3.567  33.417  0.00  0.00    +0.162 C 
BRANCH  37  38
ATOM     38  C   UNL     1     -16.817  -4.006  34.241  0.00  0.00    +0.129 C 
BRANCH  38  39
ATOM     39  N   UNL     1     -17.477  -2.888  34.977  0.00  0.00    -0.193 NA
ATOM     40  H   UNL     1     -18.489  -2.888  34.800  0.00  0.00    +0.148 HD
BRANCH  39  41
ATOM     41  S   UNL     1     -17.097  -2.747  36.613  0.00  0.00    +0.027 S 
ATOM     42  O   UNL     1     -16.249  -3.872  36.941  0.00  0.00    -0.158 OA
ATOM     43  O   UNL     1     -16.665  -1.387  36.846  0.00  0.00    -0.158 OA
ATOM     44  C   UNL     1     -18.684  -3.004  37.371  0.00  0.00    +0.214 C 
ENDBRANCH  39  41
ENDBRANCH  38  39
ENDBRANCH  37  38
ENDBRANCH  35  37
ENDBRANCH  31  33
ENDBRANCH  30  31
ENDBRANCH  26  30
ENDBRANCH  25  28
ENDBRANCH   1  25
TORSDOF 17
