REMARK  Name = lig_assembled_37.pdb
REMARK  21 active torsions:
REMARK  status: ('A' for Active; 'I' for Inactive)
REMARK    1  A    between atoms: _2  and  _9
REMARK    2  A    between atoms: _4  and  _24
REMARK    3  A    between atoms: _6  and  _7
REMARK    4  A    between atoms: _6  and  _24
REMARK    5  A    between atoms: _9  and  _10
REMARK    6  A    between atoms: _9  and  _11
REMARK    7  A    between atoms: _11  and  _18
REMARK    8  A    between atoms: _12  and  _13
REMARK    9  A    between atoms: _12  and  _18
REMARK   10  A    between atoms: _20  and  _40
REMARK   11  A    between atoms: _22  and  _28
REMARK   12  A    between atoms: _23  and  _27
REMARK   13  A    between atoms: _27  and  _28
REMARK   14  A    between atoms: _30  and  _31
REMARK   15  A    between atoms: _32  and  _33
REMARK   16  A    between atoms: _34  and  _36
REMARK   17  A    between atoms: _36  and  _37
REMARK   18  A    between atoms: _36  and  _38
REMARK   19  A    between atoms: _38  and  _39
REMARK   20  A    between atoms: _38  and  _40
REMARK   21  A    between atoms: _41  and  _43
REMARK                            x       y       z     vdW  Elec       q    Type
REMARK                         _______ _______ _______ _____ _____    ______ ____
ROOT
ATOM      1  C   UNL     1      -8.709  17.445  28.879  0.00  0.00    +0.141 C 
ENDROOT
BRANCH   1   4
ATOM      2  C   UNL     1      -8.512  15.161  27.958  0.00  0.00    +0.401 C 
ATOM      3  O   UNL     1      -8.593  14.609  29.058  0.00  0.00    -0.226 OA
ATOM      4  N   UNL     1      -8.551  16.482  27.782  0.00  0.00    -0.279 N 
ATOM      5  H   UNL     1      -8.468  16.841  26.841  0.00  0.00    +0.152 HD
BRANCH   2   6
ATOM      6  O   UNL     1      -8.363  14.355  26.786  0.00  0.00    -0.444 OA
BRANCH   6   7
ATOM      7  C   UNL     1      -9.271  13.251  26.846  0.00  0.00    +0.292 C 
BRANCH   7   9
ATOM      8  N   UNL     1      -7.860  12.041  25.207  0.00  0.00    -0.131 NA
ATOM      9  C   UNL     1      -8.625  12.025  26.343  0.00  0.00    +0.120 A 
ATOM     10  C   UNL     1      -8.647  10.746  26.851  0.00  0.00    +0.138 A 
ATOM     11  N   UNL     1      -7.902  10.023  25.968  0.00  0.00    -0.238 N 
ATOM     12  N   UNL     1      -7.415  10.811  24.990  0.00  0.00    -0.065 NA
BRANCH  11  13
ATOM     13  C   UNL     1      -7.543   8.619  25.999  0.00  0.00    +0.214 C 
ATOM     14  C   UNL     1      -8.372   7.854  27.031  0.00  0.00    +0.045 C 
BRANCH  13  15
ATOM     15  C   UNL     1      -7.692   7.986  24.634  0.00  0.00    +0.332 C 
ATOM     16  O   UNL     1      -8.747   7.545  24.194  0.00  0.00    -0.248 OA
BRANCH  15  17
ATOM     17  O   UNL     1      -6.505   7.969  23.970  0.00  0.00    -0.458 OA
BRANCH  17  18
ATOM     18  C   UNL     1      -6.260   6.820  23.143  0.00  0.00    +0.267 C 
BRANCH  18  19
ATOM     19  C   UNL     1      -6.330   7.208  21.689  0.00  0.00    -0.010 A 
ATOM     20  C   UNL     1      -6.467   8.553  21.318  0.00  0.00    +0.007 A 
ATOM     21  C   UNL     1      -6.504   8.917  19.971  0.00  0.00    +0.000 A 
ATOM     22  C   UNL     1      -6.407   7.940  18.981  0.00  0.00    +0.000 A 
ATOM     23  C   UNL     1      -6.278   6.600  19.337  0.00  0.00    +0.000 A 
ATOM     24  C   UNL     1      -6.242   6.234  20.685  0.00  0.00    +0.007 A 
ENDBRANCH  18  19
ENDBRANCH  17  18
ENDBRANCH  15  17
ENDBRANCH  13  15
ENDBRANCH  11  13
ENDBRANCH   7   9
ENDBRANCH   6   7
ENDBRANCH   2   6
ENDBRANCH   1   4
BRANCH   1  25
ATOM     25  C   UNL     1      -9.450  18.701  28.431  0.00  0.00    +0.163 C 
BRANCH  25  26
ATOM     26  O   UNL     1      -9.860  19.465  29.577  0.00  0.00    -0.388 OA
ATOM     27  H   UNL     1     -10.499  18.961  30.087  0.00  0.00    +0.210 HD
ENDBRANCH  25  26
BRANCH  25  28
ATOM     28  C   UNL     1      -8.541  19.533  27.511  0.00  0.00    +0.175 C 
BRANCH  28  29
ATOM     29  C   UNL     1      -7.081  19.534  27.988  0.00  0.00    +0.176 C 
ATOM     30  O   UNL     1      -6.939  20.578  28.989  0.00  0.00    -0.332 OA
ATOM     31  C   UNL     1      -5.627  20.659  29.639  0.00  0.00    +0.277 C 
ATOM     32  C   UNL     1      -4.506  20.793  28.580  0.00  0.00    +0.110 C 
ATOM     33  C   UNL     1      -4.634  19.723  27.476  0.00  0.00    +0.143 C 
ATOM     34  C   UNL     1      -6.039  19.725  26.870  0.00  0.00    +0.133 C 
BRANCH  34  35
ATOM     35  N   UNL     1      -6.175  18.644  25.881  0.00  0.00    -0.308 N 
ATOM     36  H   UNL     1      -6.192  17.693  26.221  0.00  0.00    +0.149 HD
ATOM     37  C   UNL     1      -6.277  18.838  24.564  0.00  0.00    +0.210 C 
ATOM     38  C   UNL     1      -6.221  20.298  24.075  0.00  0.00    +0.109 C 
ATOM     39  O   UNL     1      -6.405  17.915  23.759  0.00  0.00    -0.276 OA
ENDBRANCH  34  35
BRANCH  31  40
ATOM     40  C   UNL     1      -5.369  19.409  30.507  0.00  0.00    +0.414 C 
ATOM     41  O   UNL     1      -4.245  18.913  30.561  0.00  0.00    -0.240 OA
ATOM     42  O   UNL     1      -6.285  18.899  31.154  0.00  0.00    -0.240 OA
ENDBRANCH  31  40
BRANCH  31  43
ATOM     43  O   UNL     1      -5.612  21.845  30.474  0.00  0.00    -0.343 OA
ATOM     44  C   UNL     1      -6.895  22.503  30.626  0.00  0.00    +0.198 C 
ENDBRANCH  31  43
BRANCH  33  45
ATOM     45  O   UNL     1      -3.678  19.976  26.446  0.00  0.00    -0.390 OA
ATOM     46  H   UNL     1      -3.955  19.541  25.636  0.00  0.00    +0.210 HD
ENDBRANCH  33  45
ENDBRANCH  28  29
BRANCH  28  47
ATOM     47  O   UNL     1      -9.034  20.885  27.417  0.00  0.00    -0.387 OA
ATOM     48  H   UNL     1      -8.701  21.399  28.156  0.00  0.00    +0.210 HD
ENDBRANCH  28  47
ENDBRANCH  25  28
ENDBRANCH   1  25
TORSDOF 18
