REMARK  Name = lig_assembled_83.pdb
REMARK  20 active torsions:
REMARK  status: ('A' for Active; 'I' for Inactive)
REMARK    1  A    between atoms: _2  and  _12
REMARK    2  A    between atoms: _3  and  _14
REMARK    3  A    between atoms: _7  and  _24
REMARK    4  A    between atoms: _9  and  _10
REMARK    5  A    between atoms: _9  and  _24
REMARK    6  A    between atoms: _12  and  _13
REMARK    7  A    between atoms: _13  and  _14
REMARK    8  A    between atoms: _13  and  _18
REMARK    9  A    between atoms: _20  and  _40
REMARK   10  A    between atoms: _22  and  _28
REMARK   11  A    between atoms: _23  and  _27
REMARK   12  A    between atoms: _27  and  _28
REMARK   13  A    between atoms: _30  and  _31
REMARK   14  A    between atoms: _32  and  _33
REMARK   15  A    between atoms: _34  and  _36
REMARK   16  A    between atoms: _36  and  _37
REMARK   17  A    between atoms: _36  and  _38
REMARK   18  A    between atoms: _38  and  _39
REMARK   19  A    between atoms: _38  and  _40
REMARK   20  A    between atoms: _41  and  _43
REMARK                            x       y       z     vdW  Elec       q    Type
REMARK                         _______ _______ _______ _____ _____    ______ ____
ROOT
ATOM      1  C   UNL     1      19.974  21.511  38.738  0.00  0.00    +0.141 C 
ENDROOT
BRANCH   1   4
ATOM      2  C   UNL     1      20.301  23.960  38.675  0.00  0.00    +0.401 C 
ATOM      3  O   UNL     1      21.530  23.892  38.749  0.00  0.00    -0.226 OA
ATOM      4  N   UNL     1      19.495  22.897  38.669  0.00  0.00    -0.279 N 
ATOM      5  H   UNL     1      18.498  23.055  38.615  0.00  0.00    +0.152 HD
BRANCH   2   6
ATOM      6  O   UNL     1      19.680  25.245  38.593  0.00  0.00    -0.444 OA
BRANCH   6   7
ATOM      7  C   UNL     1      18.688  25.363  39.617  0.00  0.00    +0.292 C 
BRANCH   7   9
ATOM      8  N   UNL     1      16.272  25.911  39.787  0.00  0.00    -0.131 NA
ATOM      9  C   UNL     1      17.351  25.547  39.023  0.00  0.00    +0.120 A 
ATOM     10  C   UNL     1      16.946  25.408  37.715  0.00  0.00    +0.137 A 
ATOM     11  N   UNL     1      15.621  25.715  37.749  0.00  0.00    -0.249 N 
ATOM     12  N   UNL     1      15.212  26.006  38.994  0.00  0.00    -0.065 NA
BRANCH  11  13
ATOM     13  C   UNL     1      14.682  25.714  36.646  0.00  0.00    +0.178 C 
BRANCH  13  14
ATOM     14  C   UNL     1      13.250  25.985  37.115  0.00  0.00    +0.156 C 
BRANCH  14  15
ATOM     15  O   UNL     1      13.065  27.388  37.330  0.00  0.00    -0.388 OA
ATOM     16  H   UNL     1      13.129  27.864  36.477  0.00  0.00    +0.210 HD
ENDBRANCH  14  15
BRANCH  14  17
ATOM     17  C   UNL     1      12.238  25.465  36.082  0.00  0.00    +0.162 C 
BRANCH  17  18
ATOM     18  N   UNL     1      12.742  25.541  34.720  0.00  0.00    -0.269 N 
ATOM     19  C   UNL     1      12.821  26.716  34.006  0.00  0.00    +0.113 A 
ATOM     20  C   UNL     1      13.371  26.374  32.793  0.00  0.00    +0.137 A 
ATOM     21  N   UNL     1      13.605  25.027  32.728  0.00  0.00    -0.172 NA
ATOM     22  C   UNL     1      13.225  24.551  33.899  0.00  0.00    +0.450 A 
ATOM     23  N   UNL     1      13.326  23.148  34.236  0.00  0.00    +0.120 N 
ATOM     24  O   UNL     1      12.944  22.798  35.365  0.00  0.00    +0.045 OA
ATOM     25  O   UNL     1      13.776  22.385  33.373  0.00  0.00    -0.573 OA
ENDBRANCH  17  18
ENDBRANCH  14  17
ENDBRANCH  13  14
ENDBRANCH  11  13
ENDBRANCH   7   9
ENDBRANCH   6   7
ENDBRANCH   2   6
ENDBRANCH   1   4
BRANCH   1  26
ATOM     26  C   UNL     1      18.847  20.536  39.061  0.00  0.00    +0.163 C 
BRANCH  26  27
ATOM     27  O   UNL     1      17.643  21.258  39.366  0.00  0.00    -0.388 OA
ATOM     28  H   UNL     1      17.772  21.773  40.167  0.00  0.00    +0.210 HD
ENDBRANCH  26  27
BRANCH  26  29
ATOM     29  C   UNL     1      18.632  19.586  37.871  0.00  0.00    +0.175 C 
BRANCH  29  30
ATOM     30  C   UNL     1      17.228  19.729  37.264  0.00  0.00    +0.176 C 
ATOM     31  O   UNL     1      16.438  18.585  37.690  0.00  0.00    -0.332 OA
ATOM     32  C   UNL     1      15.028  18.605  37.290  0.00  0.00    +0.277 C 
ATOM     33  C   UNL     1      14.903  18.785  35.757  0.00  0.00    +0.110 C 
ATOM     34  C   UNL     1      15.752  19.970  35.252  0.00  0.00    +0.143 C 
ATOM     35  C   UNL     1      17.200  19.851  35.729  0.00  0.00    +0.133 C 
BRANCH  35  36
ATOM     36  N   UNL     1      17.977  21.029  35.314  0.00  0.00    -0.308 N 
ATOM     37  H   UNL     1      18.857  20.871  34.843  0.00  0.00    +0.149 HD
ATOM     38  C   UNL     1      17.597  22.293  35.520  0.00  0.00    +0.210 C 
ATOM     39  C   UNL     1      16.264  22.499  36.264  0.00  0.00    +0.109 C 
ATOM     40  O   UNL     1      18.262  23.260  35.149  0.00  0.00    -0.276 OA
ENDBRANCH  35  36
BRANCH  32  41
ATOM     41  C   UNL     1      14.272  19.743  38.007  0.00  0.00    +0.414 C 
ATOM     42  O   UNL     1      14.782  20.317  38.968  0.00  0.00    -0.240 OA
ATOM     43  O   UNL     1      13.153  20.087  37.624  0.00  0.00    -0.240 OA
ENDBRANCH  32  41
BRANCH  32  44
ATOM     44  O   UNL     1      14.442  17.327  37.650  0.00  0.00    -0.343 OA
ATOM     45  C   UNL     1      14.953  16.742  38.874  0.00  0.00    +0.198 C 
ENDBRANCH  32  44
BRANCH  34  46
ATOM     46  O   UNL     1      15.727  20.006  33.825  0.00  0.00    -0.390 OA
ATOM     47  H   UNL     1      16.481  20.506  33.504  0.00  0.00    +0.210 HD
ENDBRANCH  34  46
ENDBRANCH  29  30
BRANCH  29  48
ATOM     48  O   UNL     1      18.861  18.221  38.276  0.00  0.00    -0.387 OA
ATOM     49  H   UNL     1      18.059  17.864  38.664  0.00  0.00    +0.210 HD
ENDBRANCH  29  48
ENDBRANCH  26  29
ENDBRANCH   1  26
TORSDOF 18
