REMARK  Name = lig_assembled_72.pdb
REMARK  20 active torsions:
REMARK  status: ('A' for Active; 'I' for Inactive)
REMARK    1  A    between atoms: _2  and  _9
REMARK    2  A    between atoms: _4  and  _17
REMARK    3  A    between atoms: _5  and  _9
REMARK    4  A    between atoms: _5  and  _12
REMARK    5  A    between atoms: _6  and  _7
REMARK    6  A    between atoms: _6  and  _17
REMARK    7  A    between atoms: _9  and  _10
REMARK    8  A    between atoms: _9  and  _11
REMARK    9  A    between atoms: _13  and  _33
REMARK   10  A    between atoms: _15  and  _21
REMARK   11  A    between atoms: _16  and  _20
REMARK   12  A    between atoms: _20  and  _21
REMARK   13  A    between atoms: _23  and  _24
REMARK   14  A    between atoms: _25  and  _26
REMARK   15  A    between atoms: _27  and  _29
REMARK   16  A    between atoms: _29  and  _30
REMARK   17  A    between atoms: _29  and  _31
REMARK   18  A    between atoms: _31  and  _32
REMARK   19  A    between atoms: _31  and  _33
REMARK   20  A    between atoms: _34  and  _36
REMARK                            x       y       z     vdW  Elec       q    Type
REMARK                         _______ _______ _______ _____ _____    ______ ____
ROOT
ATOM      1  C   UNL     1     -11.954   0.769  22.781  0.00  0.00    +0.163 C 
ENDROOT
BRANCH   1   2
ATOM      2  O   UNL     1     -11.410   0.621  21.459  0.00  0.00    -0.388 OA
ATOM      3  H   UNL     1     -10.748   1.300  21.306  0.00  0.00    +0.210 HD
ENDBRANCH   1   2
BRANCH   1   4
ATOM      4  C   UNL     1     -13.121  -0.207  23.008  0.00  0.00    +0.175 C 
BRANCH   4   5
ATOM      5  C   UNL     1     -13.046  -0.888  24.382  0.00  0.00    +0.176 C 
ATOM      6  O   UNL     1     -13.026  -2.326  24.169  0.00  0.00    -0.332 OA
ATOM      7  C   UNL     1     -12.849  -3.143  25.373  0.00  0.00    +0.277 C 
ATOM      8  C   UNL     1     -13.921  -2.787  26.431  0.00  0.00    +0.110 C 
ATOM      9  C   UNL     1     -14.002  -1.264  26.669  0.00  0.00    +0.143 C 
ATOM     10  C   UNL     1     -14.183  -0.511  25.350  0.00  0.00    +0.133 C 
BRANCH  10  11
ATOM     11  N   UNL     1     -14.172   0.942  25.581  0.00  0.00    -0.308 N 
ATOM     12  H   UNL     1     -13.320   1.357  25.932  0.00  0.00    +0.149 HD
ATOM     13  C   UNL     1     -15.213   1.748  25.356  0.00  0.00    +0.210 C 
ATOM     14  C   UNL     1     -16.504   1.081  24.846  0.00  0.00    +0.109 C 
ATOM     15  O   UNL     1     -15.170   2.964  25.544  0.00  0.00    -0.276 OA
ENDBRANCH  10  11
BRANCH   7  16
ATOM     16  C   UNL     1     -11.443  -2.935  25.973  0.00  0.00    +0.414 C 
ATOM     17  O   UNL     1     -10.466  -2.813  25.236  0.00  0.00    -0.240 OA
ATOM     18  O   UNL     1     -11.286  -2.891  27.194  0.00  0.00    -0.240 OA
ENDBRANCH   7  16
BRANCH   9  19
ATOM     19  O   UNL     1     -15.100  -0.969  27.534  0.00  0.00    -0.390 OA
ATOM     20  H   UNL     1     -15.354  -0.050  27.427  0.00  0.00    +0.210 HD
ENDBRANCH   9  19
BRANCH   7  21
ATOM     21  O   UNL     1     -13.020  -4.535  25.000  0.00  0.00    -0.343 OA
ATOM     22  C   UNL     1     -13.449  -5.409  26.074  0.00  0.00    +0.198 C 
ENDBRANCH   7  21
ENDBRANCH   4   5
BRANCH   4  23
ATOM     23  O   UNL     1     -13.149  -1.200  21.963  0.00  0.00    -0.387 OA
ATOM     24  H   UNL     1     -12.549  -1.916  22.185  0.00  0.00    +0.210 HD
ENDBRANCH   4  23
ENDBRANCH   1   4
BRANCH   1  25
ATOM     25  C   UNL     1     -10.869   0.517  23.823  0.00  0.00    +0.141 C 
BRANCH  25  28
ATOM     26  C   UNL     1      -8.858   1.806  23.190  0.00  0.00    +0.401 C 
ATOM     27  O   UNL     1      -8.499   1.002  22.326  0.00  0.00    -0.226 OA
ATOM     28  N   UNL     1      -9.949   1.656  23.941  0.00  0.00    -0.279 N 
ATOM     29  H   UNL     1     -10.155   2.365  24.630  0.00  0.00    +0.152 HD
BRANCH  26  30
ATOM     30  O   UNL     1      -8.068   2.975  23.420  0.00  0.00    -0.444 OA
BRANCH  30  31
ATOM     31  C   UNL     1      -8.873   4.141  23.225  0.00  0.00    +0.292 C 
BRANCH  31  33
ATOM     32  N   UNL     1      -7.756   6.068  24.301  0.00  0.00    -0.131 NA
ATOM     33  C   UNL     1      -8.699   5.078  24.350  0.00  0.00    +0.120 A 
ATOM     34  C   UNL     1      -9.367   5.155  25.553  0.00  0.00    +0.137 A 
ATOM     35  N   UNL     1      -8.786   6.213  26.195  0.00  0.00    -0.244 N 
ATOM     36  N   UNL     1      -7.816   6.754  25.431  0.00  0.00    -0.065 NA
BRANCH  35  37
ATOM     37  C   UNL     1      -9.107   6.760  27.521  0.00  0.00    +0.083 C 
ATOM     38  C   UNL     1      -8.425   5.900  28.602  0.00  0.00    +0.038 C 
ATOM     39  C   UNL     1     -10.633   6.738  27.736  0.00  0.00    +0.038 C 
BRANCH  37  40
ATOM     40  C   UNL     1      -8.592   8.217  27.681  0.00  0.00    +0.185 C 
BRANCH  40  41
ATOM     41  O   UNL     1      -7.169   8.294  27.749  0.00  0.00    -0.393 OA
ATOM     42  H   UNL     1      -6.916   7.865  28.595  0.00  0.00    +0.209 HD
ENDBRANCH  40  41
ENDBRANCH  37  40
ENDBRANCH  35  37
ENDBRANCH  31  33
ENDBRANCH  30  31
ENDBRANCH  26  30
ENDBRANCH  25  28
ENDBRANCH   1  25
TORSDOF 16
