REMARK  Name = lig_assembled_64.pdb
REMARK  19 active torsions:
REMARK  status: ('A' for Active; 'I' for Inactive)
REMARK    1  A    between atoms: _2  and  _10
REMARK    2  A    between atoms: _5  and  _27
REMARK    3  A    between atoms: _7  and  _8
REMARK    4  A    between atoms: _7  and  _27
REMARK    5  A    between atoms: _12  and  _13
REMARK    6  A    between atoms: _13  and  _21
REMARK    7  A    between atoms: _14  and  _15
REMARK    8  A    between atoms: _23  and  _43
REMARK    9  A    between atoms: _25  and  _31
REMARK   10  A    between atoms: _26  and  _30
REMARK   11  A    between atoms: _30  and  _31
REMARK   12  A    between atoms: _33  and  _34
REMARK   13  A    between atoms: _35  and  _36
REMARK   14  A    between atoms: _37  and  _39
REMARK   15  A    between atoms: _39  and  _40
REMARK   16  A    between atoms: _39  and  _41
REMARK   17  A    between atoms: _41  and  _42
REMARK   18  A    between atoms: _41  and  _43
REMARK   19  A    between atoms: _44  and  _46
REMARK                            x       y       z     vdW  Elec       q    Type
REMARK                         _______ _______ _______ _____ _____    ______ ____
ROOT
ATOM      1  C   UNL     1     -19.327  12.604  38.672  0.00  0.00    +0.401 C 
ATOM      2  O   UNL     1     -20.007  11.577  38.731  0.00  0.00    -0.226 OA
ATOM      3  N   UNL     1     -18.917  13.163  37.532  0.00  0.00    -0.279 N 
ATOM      4  H   UNL     1     -18.371  14.011  37.586  0.00  0.00    +0.152 HD
ENDROOT
BRANCH   3   5
ATOM      5  C   UNL     1     -19.213  12.613  36.203  0.00  0.00    +0.141 C 
BRANCH   5   6
ATOM      6  C   UNL     1     -20.322  13.391  35.501  0.00  0.00    +0.163 C 
BRANCH   6   7
ATOM      7  O   UNL     1     -21.262  13.888  36.468  0.00  0.00    -0.388 OA
ATOM      8  H   UNL     1     -21.701  13.150  36.897  0.00  0.00    +0.210 HD
ENDBRANCH   6   7
BRANCH   6   9
ATOM      9  C   UNL     1     -19.706  14.543  34.689  0.00  0.00    +0.175 C 
BRANCH   9  10
ATOM     10  C   UNL     1     -18.909  15.512  35.574  0.00  0.00    +0.176 C 
ATOM     11  O   UNL     1     -19.732  16.689  35.802  0.00  0.00    -0.332 OA
ATOM     12  C   UNL     1     -19.172  17.686  36.720  0.00  0.00    +0.277 C 
ATOM     13  C   UNL     1     -17.759  18.117  36.255  0.00  0.00    +0.110 C 
ATOM     14  C   UNL     1     -16.857  16.898  35.969  0.00  0.00    +0.143 C 
ATOM     15  C   UNL     1     -17.538  15.925  35.006  0.00  0.00    +0.133 C 
BRANCH  15  16
ATOM     16  N   UNL     1     -16.707  14.727  34.810  0.00  0.00    -0.308 N 
ATOM     17  H   UNL     1     -16.628  14.356  33.873  0.00  0.00    +0.149 HD
ATOM     18  C   UNL     1     -16.049  14.099  35.788  0.00  0.00    +0.210 C 
ATOM     19  C   UNL     1     -16.211  14.674  37.208  0.00  0.00    +0.109 C 
ATOM     20  O   UNL     1     -15.348  13.106  35.592  0.00  0.00    -0.276 OA
ENDBRANCH  15  16
BRANCH  12  21
ATOM     21  C   UNL     1     -19.093  17.125  38.155  0.00  0.00    +0.414 C 
ATOM     22  O   UNL     1     -19.766  16.147  38.476  0.00  0.00    -0.240 OA
ATOM     23  O   UNL     1     -18.356  17.650  38.991  0.00  0.00    -0.240 OA
ENDBRANCH  12  21
BRANCH  12  24
ATOM     24  O   UNL     1     -20.036  18.852  36.698  0.00  0.00    -0.343 OA
ATOM     25  C   UNL     1     -20.589  19.179  35.399  0.00  0.00    +0.198 C 
ENDBRANCH  12  24
BRANCH  14  26
ATOM     26  O   UNL     1     -15.622  17.335  35.401  0.00  0.00    -0.390 OA
ATOM     27  H   UNL     1     -15.209  16.606  34.932  0.00  0.00    +0.210 HD
ENDBRANCH  14  26
ENDBRANCH   9  10
BRANCH   9  28
ATOM     28  O   UNL     1     -20.737  15.255  33.977  0.00  0.00    -0.387 OA
ATOM     29  H   UNL     1     -21.129  15.915  34.554  0.00  0.00    +0.210 HD
ENDBRANCH   9  28
ENDBRANCH   6   9
ENDBRANCH   5   6
ENDBRANCH   3   5
BRANCH   1  30
ATOM     30  O   UNL     1     -18.948  13.256  39.886  0.00  0.00    -0.444 OA
BRANCH  30  31
ATOM     31  C   UNL     1     -17.615  12.874  40.238  0.00  0.00    +0.292 C 
BRANCH  31  33
ATOM     32  N   UNL     1     -16.040  14.313  38.973  0.00  0.00    -0.131 NA
ATOM     33  C   UNL     1     -16.701  14.027  40.132  0.00  0.00    +0.121 A 
ATOM     34  C   UNL     1     -16.360  14.958  41.084  0.00  0.00    +0.143 A 
ATOM     35  N   UNL     1     -15.472  15.799  40.457  0.00  0.00    -0.220 N 
ATOM     36  N   UNL     1     -15.296  15.394  39.177  0.00  0.00    -0.060 NA
BRANCH  35  37
ATOM     37  C   UNL     1     -14.807  16.932  40.988  0.00  0.00    +0.071 A 
ATOM     38  C   UNL     1     -14.870  17.209  42.349  0.00  0.00    +0.063 A 
ATOM     39  CA  UNL     1     -14.201  18.328  42.803  0.00  0.00    +0.150 A 
ATOM     40  N   UNL     1     -13.489  19.184  42.016  0.00  0.00    -0.240 NA
ATOM     41  C   UNL     1     -13.443  18.913  40.683  0.00  0.00    +0.074 A 
ATOM     42  C   UNL     1     -14.081  17.790  40.146  0.00  0.00    +0.056 A 
BRANCH  41  43
ATOM     43  C   UNL     1     -12.702  19.895  39.855  0.00  0.00    +0.000 A 
ATOM     44  C   UNL     1     -12.943  20.043  38.476  0.00  0.00    +0.010 A 
ATOM     45  C   UNL     1     -12.264  21.000  37.711  0.00  0.00    +0.001 A 
ATOM     46  C   UNL     1     -11.325  21.835  38.309  0.00  0.00    +0.000 A 
ATOM     47  C   UNL     1     -11.060  21.707  39.668  0.00  0.00    +0.001 A 
ATOM     48  C   UNL     1     -11.740  20.749  40.429  0.00  0.00    +0.010 A 
ENDBRANCH  41  43
BRANCH  39  49
ATOM     49  C   UNL     1     -14.242  18.665  44.256  0.00  0.00    +0.355 C 
ATOM     50  OXT UNL     1     -14.823  18.007  45.100  0.00  0.00    -0.243 OA
BRANCH  49  51
ATOM     51  O   UNL     1     -13.550  19.800  44.504  0.00  0.00    -0.476 OA
ATOM     52  H   UNL     1     -13.186  20.145  43.656  0.00  0.00    +0.295 HD
ENDBRANCH  49  51
ENDBRANCH  39  49
ENDBRANCH  35  37
ENDBRANCH  31  33
ENDBRANCH  30  31
ENDBRANCH   1  30
TORSDOF 17
