REMARK  Name = lig_assembled_63.pdb
REMARK  17 active torsions:
REMARK  status: ('A' for Active; 'I' for Inactive)
REMARK    1  A    between atoms: _2  and  _11
REMARK    2  A    between atoms: _6  and  _20
REMARK    3  A    between atoms: _7  and  _15
REMARK    4  A    between atoms: _8  and  _9
REMARK    5  A    between atoms: _8  and  _20
REMARK    6  A    between atoms: _16  and  _36
REMARK    7  A    between atoms: _18  and  _24
REMARK    8  A    between atoms: _19  and  _23
REMARK    9  A    between atoms: _23  and  _24
REMARK   10  A    between atoms: _26  and  _27
REMARK   11  A    between atoms: _28  and  _29
REMARK   12  A    between atoms: _30  and  _32
REMARK   13  A    between atoms: _32  and  _33
REMARK   14  A    between atoms: _32  and  _34
REMARK   15  A    between atoms: _34  and  _35
REMARK   16  A    between atoms: _34  and  _36
REMARK   17  A    between atoms: _37  and  _39
REMARK                            x       y       z     vdW  Elec       q    Type
REMARK                         _______ _______ _______ _____ _____    ______ ____
ROOT
ATOM      1  C   UNL     1     -10.170  11.269  33.682  0.00  0.00    +0.163 C 
ENDROOT
BRANCH   1   2
ATOM      2  O   UNL     1     -11.326  10.615  34.232  0.00  0.00    -0.388 OA
ATOM      3  H   UNL     1     -11.127  10.306  35.119  0.00  0.00    +0.210 HD
ENDBRANCH   1   2
BRANCH   1   4
ATOM      4  C   UNL     1      -9.850  12.525  34.485  0.00  0.00    +0.141 C 
BRANCH   4   7
ATOM      5  C   UNL     1     -11.594  14.232  34.876  0.00  0.00    +0.401 C 
ATOM      6  O   UNL     1     -11.167  15.002  34.013  0.00  0.00    -0.226 OA
ATOM      7  N   UNL     1     -11.037  13.056  35.168  0.00  0.00    -0.279 N 
ATOM      8  H   UNL     1     -11.455  12.498  35.899  0.00  0.00    +0.152 HD
BRANCH   5   9
ATOM      9  O   UNL     1     -12.753  14.603  35.626  0.00  0.00    -0.444 OA
BRANCH   9  10
ATOM     10  C   UNL     1     -12.377  15.501  36.674  0.00  0.00    +0.292 C 
BRANCH  10  12
ATOM     11  N   UNL     1     -12.460  17.765  35.689  0.00  0.00    -0.131 NA
ATOM     12  C   UNL     1     -13.025  16.812  36.486  0.00  0.00    +0.121 A 
ATOM     13  C   UNL     1     -14.189  17.311  37.021  0.00  0.00    +0.145 A 
ATOM     14  N   UNL     1     -14.275  18.604  36.545  0.00  0.00    -0.200 N 
ATOM     15  N   UNL     1     -13.230  18.845  35.725  0.00  0.00    -0.059 NA
BRANCH  14  16
ATOM     16  C   UNL     1     -15.264  19.571  36.894  0.00  0.00    +0.173 A 
ATOM     17  C   UNL     1     -16.418  19.770  36.132  0.00  0.00    +0.096 A 
ATOM     18  C   UNL     1     -17.276  20.816  36.512  0.00  0.00    +0.024 A 
ATOM     19  C   UNL     1     -16.988  21.600  37.626  0.00  0.00    +0.021 A 
ATOM     20  C   UNL     1     -15.845  21.310  38.344  0.00  0.00    +0.113 A 
ATOM     21  N   UNL     1     -14.985  20.326  38.004  0.00  0.00    -0.235 NA
BRANCH  17  22
ATOM     22  C   UNL     1     -16.816  18.984  35.002  0.00  0.00    +0.103 C 
ATOM     23  N   UNL     1     -17.234  18.396  34.092  0.00  0.00    -0.191 NA
ENDBRANCH  17  22
ENDBRANCH  14  16
ENDBRANCH  10  12
ENDBRANCH   9  10
ENDBRANCH   5   9
ENDBRANCH   4   7
ENDBRANCH   1   4
BRANCH   1  24
ATOM     24  C   UNL     1     -10.401  11.646  32.208  0.00  0.00    +0.175 C 
BRANCH  24  25
ATOM     25  C   UNL     1      -9.514  10.829  31.257  0.00  0.00    +0.176 C 
ATOM     26  O   UNL     1      -8.389  10.317  32.024  0.00  0.00    -0.332 OA
ATOM     27  C   UNL     1      -7.484   9.420  31.300  0.00  0.00    +0.277 C 
ATOM     28  C   UNL     1      -6.971  10.098  30.006  0.00  0.00    +0.110 C 
ATOM     29  C   UNL     1      -8.129  10.685  29.172  0.00  0.00    +0.143 C 
ATOM     30  C   UNL     1      -9.008  11.601  30.025  0.00  0.00    +0.133 C 
BRANCH  30  31
ATOM     31  N   UNL     1     -10.157  12.085  29.243  0.00  0.00    -0.308 N 
ATOM     32  H   UNL     1     -10.285  13.084  29.162  0.00  0.00    +0.149 HD
ATOM     33  C   UNL     1     -11.042  11.291  28.634  0.00  0.00    +0.210 C 
ATOM     34  C   UNL     1     -10.835   9.774  28.799  0.00  0.00    +0.109 C 
ATOM     35  O   UNL     1     -11.987  11.725  27.974  0.00  0.00    -0.276 OA
ENDBRANCH  30  31
BRANCH  27  36
ATOM     36  C   UNL     1      -8.195   8.098  30.942  0.00  0.00    +0.414 C 
ATOM     37  O   UNL     1      -7.864   7.468  29.938  0.00  0.00    -0.240 OA
ATOM     38  O   UNL     1      -9.098   7.662  31.657  0.00  0.00    -0.240 OA
ENDBRANCH  27  36
BRANCH  27  39
ATOM     39  O   UNL     1      -6.344   9.145  32.155  0.00  0.00    -0.343 OA
ATOM     40  C   UNL     1      -6.495   9.574  33.532  0.00  0.00    +0.198 C 
ENDBRANCH  27  39
BRANCH  29  41
ATOM     41  O   UNL     1      -7.603  11.428  28.072  0.00  0.00    -0.390 OA
ATOM     42  H   UNL     1      -8.266  12.046  27.756  0.00  0.00    +0.210 HD
ENDBRANCH  29  41
ENDBRANCH  24  25
BRANCH  24  43
ATOM     43  O   UNL     1     -10.170  13.056  32.014  0.00  0.00    -0.387 OA
ATOM     44  H   UNL     1      -9.233  13.210  31.874  0.00  0.00    +0.210 HD
ENDBRANCH  24  43
ENDBRANCH   1  24
TORSDOF 15
