REMARK  Name = lig_assembled_79.pdb
REMARK  20 active torsions:
REMARK  status: ('A' for Active; 'I' for Inactive)
REMARK    1  A    between atoms: _2  and  _10
REMARK    2  A    between atoms: _5  and  _26
REMARK    3  A    between atoms: _7  and  _8
REMARK    4  A    between atoms: _7  and  _26
REMARK    5  A    between atoms: _10  and  _11
REMARK    6  A    between atoms: _10  and  _12
REMARK    7  A    between atoms: _10  and  _13
REMARK    8  A    between atoms: _13  and  _14
REMARK    9  A    between atoms: _22  and  _42
REMARK   10  A    between atoms: _24  and  _30
REMARK   11  A    between atoms: _25  and  _29
REMARK   12  A    between atoms: _29  and  _30
REMARK   13  A    between atoms: _32  and  _33
REMARK   14  A    between atoms: _34  and  _35
REMARK   15  A    between atoms: _36  and  _38
REMARK   16  A    between atoms: _38  and  _39
REMARK   17  A    between atoms: _38  and  _40
REMARK   18  A    between atoms: _40  and  _41
REMARK   19  A    between atoms: _40  and  _42
REMARK   20  A    between atoms: _43  and  _45
REMARK                            x       y       z     vdW  Elec       q    Type
REMARK                         _______ _______ _______ _____ _____    ______ ____
ROOT
ATOM      1  C   UNL     1     -13.790  12.062  31.136  0.00  0.00    +0.401 C 
ATOM      2  O   UNL     1     -12.912  11.771  31.952  0.00  0.00    -0.226 OA
ATOM      3  N   UNL     1     -13.699  11.825  29.827  0.00  0.00    -0.279 N 
ATOM      4  H   UNL     1     -14.476  12.091  29.239  0.00  0.00    +0.152 HD
ENDROOT
BRANCH   3   5
ATOM      5  C   UNL     1     -12.533  11.199  29.192  0.00  0.00    +0.141 C 
BRANCH   5   6
ATOM      6  C   UNL     1     -12.858   9.811  28.648  0.00  0.00    +0.163 C 
BRANCH   6   7
ATOM      7  O   UNL     1     -13.261   9.905  27.272  0.00  0.00    -0.388 OA
ATOM      8  H   UNL     1     -14.082  10.401  27.211  0.00  0.00    +0.210 HD
ENDBRANCH   6   7
BRANCH   6   9
ATOM      9  C   UNL     1     -11.629   8.899  28.800  0.00  0.00    +0.175 C 
BRANCH   9  10
ATOM     10  C   UNL     1     -10.344   9.571  28.296  0.00  0.00    +0.176 C 
ATOM     11  O   UNL     1     -10.071  10.714  29.153  0.00  0.00    -0.332 OA
ATOM     12  C   UNL     1      -8.816  11.422  28.886  0.00  0.00    +0.277 C 
ATOM     13  C   UNL     1      -8.743  11.852  27.400  0.00  0.00    +0.110 C 
ATOM     14  C   UNL     1      -9.057  10.677  26.451  0.00  0.00    +0.143 C 
ATOM     15  C   UNL     1     -10.383  10.012  26.821  0.00  0.00    +0.133 C 
BRANCH  15  16
ATOM     16  N   UNL     1     -10.629   8.841  25.965  0.00  0.00    -0.308 N 
ATOM     17  H   UNL     1     -10.210   7.962  26.235  0.00  0.00    +0.149 HD
ATOM     18  C   UNL     1     -11.369   8.863  24.853  0.00  0.00    +0.210 C 
ATOM     19  C   UNL     1     -11.972  10.223  24.453  0.00  0.00    +0.109 C 
ATOM     20  O   UNL     1     -11.570   7.863  24.163  0.00  0.00    -0.276 OA
ENDBRANCH  15  16
BRANCH  12  21
ATOM     21  C   UNL     1      -7.603  10.530  29.224  0.00  0.00    +0.414 C 
ATOM     22  O   UNL     1      -6.844  10.151  28.333  0.00  0.00    -0.240 OA
ATOM     23  O   UNL     1      -7.383  10.190  30.387  0.00  0.00    -0.240 OA
ENDBRANCH  12  21
BRANCH  14  24
ATOM     24  O   UNL     1      -9.128  11.151  25.105  0.00  0.00    -0.390 OA
ATOM     25  H   UNL     1      -9.627  10.528  24.572  0.00  0.00    +0.210 HD
ENDBRANCH  14  24
BRANCH  12  26
ATOM     26  O   UNL     1      -8.789  12.615  29.710  0.00  0.00    -0.343 OA
ATOM     27  C   UNL     1      -9.689  12.595  30.847  0.00  0.00    +0.198 C 
ENDBRANCH  12  26
ENDBRANCH   9  10
BRANCH   9  28
ATOM     28  O   UNL     1     -11.845   7.655  28.104  0.00  0.00    -0.387 OA
ATOM     29  H   UNL     1     -11.611   7.761  27.179  0.00  0.00    +0.210 HD
ENDBRANCH   9  28
ENDBRANCH   6   9
ENDBRANCH   5   6
ENDBRANCH   3   5
BRANCH   1  30
ATOM     30  O   UNL     1     -14.989  12.688  31.600  0.00  0.00    -0.444 OA
BRANCH  30  31
ATOM     31  C   UNL     1     -15.162  13.941  30.933  0.00  0.00    +0.292 C 
BRANCH  31  33
ATOM     32  N   UNL     1     -13.468  15.734  30.940  0.00  0.00    -0.131 NA
ATOM     33  C   UNL     1     -14.389  14.992  31.619  0.00  0.00    +0.120 A 
ATOM     34  C   UNL     1     -14.416  15.400  32.934  0.00  0.00    +0.138 A 
ATOM     35  N   UNL     1     -13.553  16.460  32.983  0.00  0.00    -0.238 N 
ATOM     36  N   UNL     1     -12.929  16.596  31.787  0.00  0.00    -0.064 NA
BRANCH  35  37
ATOM     37  C   UNL     1     -13.087  17.288  34.134  0.00  0.00    +0.122 C 
ATOM     38  C   UNL     1     -11.749  17.932  33.698  0.00  0.00    +0.044 C 
ATOM     39  C   UNL     1     -12.974  16.302  35.313  0.00  0.00    +0.044 C 
BRANCH  37  40
ATOM     40  C   UNL     1     -14.053  18.434  34.498  0.00  0.00    +0.192 C 
ATOM     41  O   UNL     1     -14.781  18.933  33.635  0.00  0.00    -0.289 OA
BRANCH  40  42
ATOM     42  C   UNL     1     -14.141  19.005  35.874  0.00  0.00    +0.045 A 
ATOM     43  C   UNL     1     -15.345  18.955  36.567  0.00  0.00    +0.095 A 
ATOM     44  N   UNL     1     -15.202  19.555  37.781  0.00  0.00    -0.360 N 
ATOM     45  H   UNL     1     -15.933  19.660  38.472  0.00  0.00    +0.165 HD
ATOM     46  C   UNL     1     -13.918  20.011  37.929  0.00  0.00    +0.047 A 
ATOM     47  C   UNL     1     -13.348  20.694  39.014  0.00  0.00    +0.026 A 
ATOM     48  C   UNL     1     -12.007  21.064  38.929  0.00  0.00    +0.002 A 
ATOM     49  C   UNL     1     -11.264  20.760  37.799  0.00  0.00    +0.001 A 
ATOM     50  C   UNL     1     -11.852  20.077  36.727  0.00  0.00    +0.011 A 
ATOM     51  C   UNL     1     -13.214  19.683  36.763  0.00  0.00    +0.010 A 
ENDBRANCH  40  42
ENDBRANCH  37  40
ENDBRANCH  35  37
ENDBRANCH  31  33
ENDBRANCH  30  31
ENDBRANCH   1  30
TORSDOF 16
