REMARK  Name = lig_assembled_20.pdb
REMARK  16 active torsions:
REMARK  status: ('A' for Active; 'I' for Inactive)
REMARK    1  A    between atoms: _2  and  _11
REMARK    2  A    between atoms: _6  and  _21
REMARK    3  A    between atoms: _8  and  _9
REMARK    4  A    between atoms: _8  and  _21
REMARK    5  A    between atoms: _17  and  _37
REMARK    6  A    between atoms: _19  and  _25
REMARK    7  A    between atoms: _20  and  _24
REMARK    8  A    between atoms: _24  and  _25
REMARK    9  A    between atoms: _27  and  _28
REMARK   10  A    between atoms: _29  and  _30
REMARK   11  A    between atoms: _31  and  _33
REMARK   12  A    between atoms: _33  and  _34
REMARK   13  A    between atoms: _33  and  _35
REMARK   14  A    between atoms: _35  and  _36
REMARK   15  A    between atoms: _35  and  _37
REMARK   16  A    between atoms: _38  and  _40
REMARK                            x       y       z     vdW  Elec       q    Type
REMARK                         _______ _______ _______ _____ _____    ______ ____
ROOT
ATOM      1  C   UNL     1     -17.845  11.852  40.797  0.00  0.00    +0.163 C 
ENDROOT
BRANCH   1   2
ATOM      2  O   UNL     1     -18.907  12.280  41.665  0.00  0.00    -0.388 OA
ATOM      3  H   UNL     1     -18.698  12.040  42.571  0.00  0.00    +0.210 HD
ENDBRANCH   1   2
BRANCH   1   4
ATOM      4  C   UNL     1     -16.562  12.607  41.130  0.00  0.00    +0.141 C 
BRANCH   4   7
ATOM      5  C   UNL     1     -15.517  11.712  43.183  0.00  0.00    +0.401 C 
ATOM      6  O   UNL     1     -14.962  10.775  42.605  0.00  0.00    -0.226 OA
ATOM      7  N   UNL     1     -16.289  12.612  42.573  0.00  0.00    -0.279 N 
ATOM      8  H   UNL     1     -16.710  13.340  43.134  0.00  0.00    +0.152 HD
BRANCH   5   9
ATOM      9  O   UNL     1     -15.341  11.860  44.594  0.00  0.00    -0.444 OA
BRANCH   9  10
ATOM     10  C   UNL     1     -14.057  12.431  44.859  0.00  0.00    +0.292 C 
BRANCH  10  12
ATOM     11  N   UNL     1     -13.123  14.725  44.980  0.00  0.00    -0.131 NA
ATOM     12  C   UNL     1     -14.179  13.875  45.136  0.00  0.00    +0.121 A 
ATOM     13  C   UNL     1     -15.271  14.590  45.566  0.00  0.00    +0.143 A 
ATOM     14  N   UNL     1     -14.835  15.891  45.660  0.00  0.00    -0.220 N 
ATOM     15  N   UNL     1     -13.528  15.949  45.300  0.00  0.00    -0.060 NA
BRANCH  14  16
ATOM     16  C   UNL     1     -15.566  17.040  46.058  0.00  0.00    +0.068 A 
ATOM     17  C   UNL     1     -14.926  18.289  46.120  0.00  0.00    +0.030 A 
ATOM     18  C   UNL     1     -15.620  19.445  46.505  0.00  0.00    +0.030 A 
ATOM     19  C   UNL     1     -16.974  19.300  46.823  0.00  0.00    +0.066 A 
ATOM     20  C   UNL     1     -17.635  18.080  46.774  0.00  0.00    +0.021 A 
ATOM     21  C   UNL     1     -18.959  18.374  47.165  0.00  0.00    +0.142 A 
ATOM     22  N   UNL     1     -19.138  19.668  47.441  0.00  0.00    -0.181 NA
ATOM     23  N   UNL     1     -17.924  20.204  47.224  0.00  0.00    -0.277 N 
ATOM     24  H   UNL     1     -17.804  21.200  47.370  0.00  0.00    +0.189 HD
ATOM     25  C   UNL     1     -16.930  16.926  46.388  0.00  0.00    +0.039 A 
ENDBRANCH  14  16
ENDBRANCH  10  12
ENDBRANCH   9  10
ENDBRANCH   5   9
ENDBRANCH   4   7
ENDBRANCH   1   4
BRANCH   1  26
ATOM     26  C   UNL     1     -18.211  12.087  39.322  0.00  0.00    +0.175 C 
BRANCH  26  27
ATOM     27  C   UNL     1     -16.971  12.130  38.418  0.00  0.00    +0.176 C 
ATOM     28  O   UNL     1     -16.961  13.412  37.732  0.00  0.00    -0.332 OA
ATOM     29  C   UNL     1     -15.784  13.677  36.899  0.00  0.00    +0.277 C 
ATOM     30  C   UNL     1     -15.579  12.534  35.874  0.00  0.00    +0.110 C 
ATOM     31  C   UNL     1     -15.614  11.148  36.552  0.00  0.00    +0.143 C 
ATOM     32  C   UNL     1     -16.878  10.982  37.396  0.00  0.00    +0.133 C 
BRANCH  32  33
ATOM     33  N   UNL     1     -16.858   9.693  38.105  0.00  0.00    -0.308 N 
ATOM     34  H   UNL     1     -17.654   9.081  37.994  0.00  0.00    +0.149 HD
ATOM     35  C   UNL     1     -15.857   9.279  38.886  0.00  0.00    +0.210 C 
ATOM     36  C   UNL     1     -14.670  10.246  39.056  0.00  0.00    +0.109 C 
ATOM     37  O   UNL     1     -15.861   8.187  39.456  0.00  0.00    -0.276 OA
ENDBRANCH  32  33
BRANCH  29  38
ATOM     38  C   UNL     1     -14.519  13.822  37.770  0.00  0.00    +0.414 C 
ATOM     39  O   UNL     1     -14.571  14.417  38.845  0.00  0.00    -0.240 OA
ATOM     40  O   UNL     1     -13.446  13.344  37.397  0.00  0.00    -0.240 OA
ENDBRANCH  29  38
BRANCH  31  41
ATOM     41  O   UNL     1     -15.573  10.124  35.557  0.00  0.00    -0.390 OA
ATOM     42  H   UNL     1     -15.915   9.306  35.925  0.00  0.00    +0.210 HD
ENDBRANCH  31  41
BRANCH  29  43
ATOM     43  O   UNL     1     -16.018  14.909  36.169  0.00  0.00    -0.343 OA
ATOM     44  C   UNL     1     -17.112  15.718  36.670  0.00  0.00    +0.198 C 
ENDBRANCH  29  43
ENDBRANCH  26  27
BRANCH  26  45
ATOM     45  O   UNL     1     -18.967  13.307  39.186  0.00  0.00    -0.387 OA
ATOM     46  H   UNL     1     -18.364  14.052  39.121  0.00  0.00    +0.210 HD
ENDBRANCH  26  45
ENDBRANCH   1  26
TORSDOF 14
