REMARK  Name = lig_assembled_43.pdb
REMARK  20 active torsions:
REMARK  status: ('A' for Active; 'I' for Inactive)
REMARK    1  A    between atoms: _2  and  _9
REMARK    2  A    between atoms: _4  and  _18
REMARK    3  A    between atoms: _6  and  _7
REMARK    4  A    between atoms: _6  and  _18
REMARK    5  A    between atoms: _9  and  _10
REMARK    6  A    between atoms: _10  and  _11
REMARK    7  A    between atoms: _11  and  _12
REMARK    8  A    between atoms: _12  and  _13
REMARK    9  A    between atoms: _14  and  _34
REMARK   10  A    between atoms: _16  and  _22
REMARK   11  A    between atoms: _17  and  _21
REMARK   12  A    between atoms: _21  and  _22
REMARK   13  A    between atoms: _24  and  _25
REMARK   14  A    between atoms: _26  and  _27
REMARK   15  A    between atoms: _28  and  _30
REMARK   16  A    between atoms: _30  and  _31
REMARK   17  A    between atoms: _30  and  _32
REMARK   18  A    between atoms: _32  and  _33
REMARK   19  A    between atoms: _32  and  _34
REMARK   20  A    between atoms: _35  and  _37
REMARK                            x       y       z     vdW  Elec       q    Type
REMARK                         _______ _______ _______ _____ _____    ______ ____
ROOT
ATOM      1  C   UNL     1     -12.181  -3.404  23.874  0.00  0.00    +0.163 C 
ENDROOT
BRANCH   1   2
ATOM      2  O   UNL     1     -13.343  -2.887  23.204  0.00  0.00    -0.388 OA
ATOM      3  H   UNL     1     -13.242  -2.997  22.256  0.00  0.00    +0.210 HD
ENDBRANCH   1   2
BRANCH   1   4
ATOM      4  C   UNL     1     -12.239  -3.110  25.383  0.00  0.00    +0.175 C 
BRANCH   4   5
ATOM      5  C   UNL     1     -10.858  -2.761  25.957  0.00  0.00    +0.176 C 
ATOM      6  O   UNL     1      -9.858  -3.114  24.962  0.00  0.00    -0.332 OA
ATOM      7  C   UNL     1      -8.477  -2.752  25.295  0.00  0.00    +0.277 C 
ATOM      8  C   UNL     1      -8.079  -3.344  26.669  0.00  0.00    +0.110 C 
ATOM      9  C   UNL     1      -9.129  -3.022  27.754  0.00  0.00    +0.143 C 
ATOM     10  C   UNL     1     -10.530  -3.437  27.301  0.00  0.00    +0.133 C 
BRANCH  10  11
ATOM     11  N   UNL     1     -11.532  -3.046  28.305  0.00  0.00    -0.308 N 
ATOM     12  H   UNL     1     -11.909  -2.110  28.256  0.00  0.00    +0.149 HD
ATOM     13  C   UNL     1     -11.976  -3.848  29.277  0.00  0.00    +0.210 C 
ATOM     14  C   UNL     1     -11.363  -5.260  29.340  0.00  0.00    +0.109 C 
ATOM     15  O   UNL     1     -12.828  -3.499  30.095  0.00  0.00    -0.276 OA
ENDBRANCH  10  11
BRANCH   7  16
ATOM     16  C   UNL     1      -8.305  -1.219  25.325  0.00  0.00    +0.414 C 
ATOM     17  O   UNL     1      -7.298  -0.698  24.848  0.00  0.00    -0.240 OA
ATOM     18  O   UNL     1      -9.174  -0.503  25.826  0.00  0.00    -0.240 OA
ENDBRANCH   7  16
BRANCH   9  19
ATOM     19  O   UNL     1      -8.802  -3.711  28.961  0.00  0.00    -0.390 OA
ATOM     20  H   UNL     1      -9.585  -3.784  29.511  0.00  0.00    +0.210 HD
ENDBRANCH   9  19
BRANCH   7  21
ATOM     21  O   UNL     1      -7.607  -3.321  24.283  0.00  0.00    -0.343 OA
ATOM     22  C   UNL     1      -7.789  -2.785  22.948  0.00  0.00    +0.198 C 
ENDBRANCH   7  21
ENDBRANCH   4   5
BRANCH   4  23
ATOM     23  O   UNL     1     -12.800  -4.236  26.087  0.00  0.00    -0.387 OA
ATOM     24  H   UNL     1     -12.108  -4.876  26.271  0.00  0.00    +0.210 HD
ENDBRANCH   4  23
ENDBRANCH   1   4
BRANCH   1  25
ATOM     25  C   UNL     1     -12.078  -4.909  23.651  0.00  0.00    +0.141 C 
BRANCH  25  28
ATOM     26  C   UNL     1     -10.434  -6.499  22.717  0.00  0.00    +0.401 C 
ATOM     27  O   UNL     1     -10.895  -7.474  23.316  0.00  0.00    -0.226 OA
ATOM     28  N   UNL     1     -10.921  -5.262  22.820  0.00  0.00    -0.279 N 
ATOM     29  H   UNL     1     -10.468  -4.526  22.296  0.00  0.00    +0.152 HD
BRANCH  26  30
ATOM     30  O   UNL     1      -9.306  -6.682  21.857  0.00  0.00    -0.444 OA
BRANCH  30  31
ATOM     31  C   UNL     1      -8.170  -7.068  22.635  0.00  0.00    +0.292 C 
BRANCH  31  33
ATOM     32  N   UNL     1      -6.419  -5.338  22.901  0.00  0.00    -0.131 NA
ATOM     33  C   UNL     1      -6.964  -6.361  22.169  0.00  0.00    +0.120 A 
ATOM     34  C   UNL     1      -6.213  -6.546  21.029  0.00  0.00    +0.137 A 
ATOM     35  N   UNL     1      -5.234  -5.604  21.126  0.00  0.00    -0.251 N 
ATOM     36  N   UNL     1      -5.358  -4.881  22.250  0.00  0.00    -0.065 NA
BRANCH  35  37
ATOM     37  C   UNL     1      -4.177  -5.315  20.180  0.00  0.00    +0.145 C 
BRANCH  37  38
ATOM     38  C   UNL     1      -3.275  -6.525  19.963  0.00  0.00    +0.024 C 
BRANCH  38  39
ATOM     39  C   UNL     1      -3.901  -7.546  19.012  0.00  0.00    +0.006 C 
BRANCH  39  40
ATOM     40  C   UNL     1      -2.912  -7.929  17.908  0.00  0.00    +0.026 C 
BRANCH  40  41
ATOM     41  C   UNL     1      -2.562  -9.387  17.947  0.00  0.00    -0.034 C 
ATOM     42  C   UNL     1      -2.772 -10.177  19.008  0.00  0.00    +0.004 C 
ENDBRANCH  40  41
ENDBRANCH  39  40
ENDBRANCH  38  39
ENDBRANCH  37  38
ENDBRANCH  35  37
ENDBRANCH  31  33
ENDBRANCH  30  31
ENDBRANCH  26  30
ENDBRANCH  25  28
ENDBRANCH   1  25
TORSDOF 18
