REMARK  Name = lig_assembled_40.pdb
REMARK  17 active torsions:
REMARK  status: ('A' for Active; 'I' for Inactive)
REMARK    1  A    between atoms: _2  and  _9
REMARK    2  A    between atoms: _4  and  _19
REMARK    3  A    between atoms: _6  and  _7
REMARK    4  A    between atoms: _6  and  _19
REMARK    5  A    between atoms: _12  and  _13
REMARK    6  A    between atoms: _15  and  _35
REMARK    7  A    between atoms: _17  and  _23
REMARK    8  A    between atoms: _18  and  _22
REMARK    9  A    between atoms: _22  and  _23
REMARK   10  A    between atoms: _25  and  _26
REMARK   11  A    between atoms: _27  and  _28
REMARK   12  A    between atoms: _29  and  _31
REMARK   13  A    between atoms: _31  and  _32
REMARK   14  A    between atoms: _31  and  _33
REMARK   15  A    between atoms: _33  and  _34
REMARK   16  A    between atoms: _33  and  _35
REMARK   17  A    between atoms: _36  and  _38
REMARK                            x       y       z     vdW  Elec       q    Type
REMARK                         _______ _______ _______ _____ _____    ______ ____
ROOT
ATOM      1  C   UNL     1     -14.542  12.933  35.243  0.00  0.00    +0.163 C 
ENDROOT
BRANCH   1   2
ATOM      2  O   UNL     1     -13.223  13.256  35.711  0.00  0.00    -0.388 OA
ATOM      3  H   UNL     1     -12.747  13.734  35.027  0.00  0.00    +0.210 HD
ENDBRANCH   1   2
BRANCH   1   4
ATOM      4  C   UNL     1     -15.342  14.211  35.013  0.00  0.00    +0.141 C 
BRANCH   4   7
ATOM      5  C   UNL     1     -15.047  16.315  36.275  0.00  0.00    +0.401 C 
ATOM      6  O   UNL     1     -14.592  16.938  35.314  0.00  0.00    -0.226 OA
ATOM      7  N   UNL     1     -15.417  15.035  36.226  0.00  0.00    -0.279 N 
ATOM      8  H   UNL     1     -15.770  14.607  37.071  0.00  0.00    +0.152 HD
BRANCH   5   9
ATOM      9  O   UNL     1     -15.191  16.983  37.531  0.00  0.00    -0.444 OA
BRANCH   9  10
ATOM     10  C   UNL     1     -16.535  16.838  37.998  0.00  0.00    +0.292 C 
BRANCH  10  12
ATOM     11  N   UNL     1     -17.912  18.423  39.308  0.00  0.00    -0.131 NA
ATOM     12  C   UNL     1     -17.153  18.161  38.206  0.00  0.00    +0.121 A 
ATOM     13  C   UNL     1     -17.088  19.292  37.426  0.00  0.00    +0.143 A 
ATOM     14  N   UNL     1     -17.806  20.243  38.115  0.00  0.00    -0.220 N 
ATOM     15  N   UNL     1     -18.314  19.686  39.243  0.00  0.00    -0.060 NA
BRANCH  14  16
ATOM     16  C   UNL     1     -17.995  21.612  37.795  0.00  0.00    +0.067 A 
ATOM     17  C   UNL     1     -18.202  22.018  36.472  0.00  0.00    +0.028 A 
ATOM     18  C   UNL     1     -18.317  23.376  36.162  0.00  0.00    +0.005 A 
ATOM     19  C   UNL     1     -18.227  24.345  37.167  0.00  0.00    -0.050 A 
ATOM     20  C   UNL     1     -18.056  23.935  38.495  0.00  0.00    +0.005 A 
ATOM     21  C   UNL     1     -18.303  25.805  36.833  0.00  0.00    +0.044 C 
ATOM     22  C   UNL     1     -17.941  22.579  38.811  0.00  0.00    +0.028 A 
ENDBRANCH  14  16
ENDBRANCH  10  12
ENDBRANCH   9  10
ENDBRANCH   5   9
ENDBRANCH   4   7
ENDBRANCH   1   4
BRANCH   1  23
ATOM     23  C   UNL     1     -15.281  12.039  36.253  0.00  0.00    +0.175 C 
BRANCH  23  24
ATOM     24  C   UNL     1     -14.372  10.942  36.827  0.00  0.00    +0.176 C 
ATOM     25  O   UNL     1     -13.430  10.553  35.789  0.00  0.00    -0.332 OA
ATOM     26  C   UNL     1     -12.408   9.583  36.192  0.00  0.00    +0.277 C 
ATOM     27  C   UNL     1     -13.069   8.321  36.799  0.00  0.00    +0.110 C 
ATOM     28  C   UNL     1     -14.102   8.685  37.885  0.00  0.00    +0.143 C 
ATOM     29  C   UNL     1     -15.115   9.703  37.360  0.00  0.00    +0.133 C 
BRANCH  29  30
ATOM     30  N   UNL     1     -16.042  10.107  38.429  0.00  0.00    -0.308 N 
ATOM     31  H   UNL     1     -17.030   9.962  38.277  0.00  0.00    +0.149 HD
ATOM     32  C   UNL     1     -15.662  10.654  39.587  0.00  0.00    +0.210 C 
ATOM     33  C   UNL     1     -14.151  10.887  39.777  0.00  0.00    +0.109 C 
ATOM     34  O   UNL     1     -16.459  10.970  40.471  0.00  0.00    -0.276 OA
ENDBRANCH  29  30
BRANCH  26  35
ATOM     35  C   UNL     1     -11.441  10.204  37.222  0.00  0.00    +0.414 C 
ATOM     36  O   UNL     1     -11.233  11.416  37.225  0.00  0.00    -0.240 OA
ATOM     37  O   UNL     1     -10.869   9.492  38.049  0.00  0.00    -0.240 OA
ENDBRANCH  26  35
BRANCH  28  38
ATOM     38  O   UNL     1     -14.793   7.509  38.308  0.00  0.00    -0.390 OA
ATOM     39  H   UNL     1     -15.625   7.755  38.717  0.00  0.00    +0.210 HD
ENDBRANCH  28  38
BRANCH  26  40
ATOM     40  O   UNL     1     -11.671   9.188  35.006  0.00  0.00    -0.343 OA
ATOM     41  C   UNL     1     -11.579  10.205  33.977  0.00  0.00    +0.198 C 
ENDBRANCH  26  40
ENDBRANCH  23  24
BRANCH  23  42
ATOM     42  O   UNL     1     -16.443  11.449  35.637  0.00  0.00    -0.387 OA
ATOM     43  H   UNL     1     -16.187  10.651  35.168  0.00  0.00    +0.210 HD
ENDBRANCH  23  42
ENDBRANCH   1  23
TORSDOF 14
