REMARK  Name = lig_assembled_33.pdb
REMARK  22 active torsions:
REMARK  status: ('A' for Active; 'I' for Inactive)
REMARK    1  A    between atoms: _2  and  _9
REMARK    2  A    between atoms: _4  and  _20
REMARK    3  A    between atoms: _5  and  _13
REMARK    4  A    between atoms: _5  and  _14
REMARK    5  A    between atoms: _6  and  _7
REMARK    6  A    between atoms: _6  and  _20
REMARK    7  A    between atoms: _9  and  _10
REMARK    8  A    between atoms: _10  and  _11
REMARK    9  A    between atoms: _11  and  _12
REMARK   10  A    between atoms: _12  and  _13
REMARK   11  A    between atoms: _16  and  _36
REMARK   12  A    between atoms: _18  and  _24
REMARK   13  A    between atoms: _19  and  _23
REMARK   14  A    between atoms: _23  and  _24
REMARK   15  A    between atoms: _26  and  _27
REMARK   16  A    between atoms: _28  and  _29
REMARK   17  A    between atoms: _30  and  _32
REMARK   18  A    between atoms: _32  and  _33
REMARK   19  A    between atoms: _32  and  _34
REMARK   20  A    between atoms: _34  and  _35
REMARK   21  A    between atoms: _34  and  _36
REMARK   22  A    between atoms: _37  and  _39
REMARK                            x       y       z     vdW  Elec       q    Type
REMARK                         _______ _______ _______ _____ _____    ______ ____
ROOT
ATOM      1  C   UNL     1     -15.509  -0.917  31.087  0.00  0.00    +0.163 C 
ENDROOT
BRANCH   1   2
ATOM      2  O   UNL     1     -14.569  -2.004  31.066  0.00  0.00    -0.388 OA
ATOM      3  H   UNL     1     -13.774  -1.731  30.601  0.00  0.00    +0.210 HD
ENDBRANCH   1   2
BRANCH   1   4
ATOM      4  C   UNL     1     -16.851  -1.363  31.693  0.00  0.00    +0.175 C 
BRANCH   4   5
ATOM      5  C   UNL     1     -17.657  -0.178  32.246  0.00  0.00    +0.176 C 
ATOM      6  O   UNL     1     -17.775  -0.350  33.685  0.00  0.00    -0.332 OA
ATOM      7  C   UNL     1     -18.428   0.749  34.403  0.00  0.00    +0.277 C 
ATOM      8  C   UNL     1     -19.822   1.039  33.795  0.00  0.00    +0.110 C 
ATOM      9  C   UNL     1     -19.753   1.198  32.262  0.00  0.00    +0.143 C 
ATOM     10  C   UNL     1     -19.052   0.001  31.617  0.00  0.00    +0.133 C 
BRANCH  10  11
ATOM     11  N   UNL     1     -18.914   0.205  30.166  0.00  0.00    -0.308 N 
ATOM     12  H   UNL     1     -19.283  -0.509  29.553  0.00  0.00    +0.149 HD
ATOM     13  C   UNL     1     -18.334   1.270  29.607  0.00  0.00    +0.210 C 
ATOM     14  C   UNL     1     -17.759   2.326  30.569  0.00  0.00    +0.109 C 
ATOM     15  O   UNL     1     -18.246   1.420  28.388  0.00  0.00    -0.276 OA
ENDBRANCH  10  11
BRANCH   7  16
ATOM     16  C   UNL     1     -17.566   2.027  34.349  0.00  0.00    +0.414 C 
ATOM     17  O   UNL     1     -16.347   1.959  34.501  0.00  0.00    -0.240 OA
ATOM     18  O   UNL     1     -18.089   3.125  34.154  0.00  0.00    -0.240 OA
ENDBRANCH   7  16
BRANCH   9  19
ATOM     19  O   UNL     1     -21.073   1.312  31.729  0.00  0.00    -0.390 OA
ATOM     20  H   UNL     1     -21.063   1.086  30.796  0.00  0.00    +0.210 HD
ENDBRANCH   9  19
BRANCH   7  21
ATOM     21  O   UNL     1     -18.607   0.338  35.783  0.00  0.00    -0.343 OA
ATOM     22  C   UNL     1     -17.931  -0.891  36.150  0.00  0.00    +0.198 C 
ENDBRANCH   7  21
ENDBRANCH   4   5
BRANCH   4  23
ATOM     23  O   UNL     1     -16.628  -2.339  32.730  0.00  0.00    -0.387 OA
ATOM     24  H   UNL     1     -16.441  -1.890  33.558  0.00  0.00    +0.210 HD
ENDBRANCH   4  23
ENDBRANCH   1   4
BRANCH   1  25
ATOM     25  C   UNL     1     -14.945   0.245  31.898  0.00  0.00    +0.141 C 
BRANCH  25  28
ATOM     26  C   UNL     1     -13.336   0.018  33.760  0.00  0.00    +0.401 C 
ATOM     27  O   UNL     1     -12.407   0.549  33.147  0.00  0.00    -0.226 OA
ATOM     28  N   UNL     1     -14.555  -0.170  33.251  0.00  0.00    -0.279 N 
ATOM     29  H   UNL     1     -15.248  -0.624  33.829  0.00  0.00    +0.152 HD
BRANCH  26  30
ATOM     30  O   UNL     1     -13.116  -0.435  35.099  0.00  0.00    -0.444 OA
BRANCH  30  31
ATOM     31  C   UNL     1     -14.119  -1.392  35.450  0.00  0.00    +0.292 C 
BRANCH  31  33
ATOM     32  N   UNL     1     -14.659  -1.252  37.860  0.00  0.00    -0.131 NA
ATOM     33  C   UNL     1     -13.943  -1.833  36.846  0.00  0.00    +0.120 A 
ATOM     34  C   UNL     1     -13.118  -2.802  37.375  0.00  0.00    +0.137 A 
ATOM     35  N   UNL     1     -13.387  -2.766  38.710  0.00  0.00    -0.251 N 
ATOM     36  N   UNL     1     -14.299  -1.823  39.001  0.00  0.00    -0.065 NA
BRANCH  35  37
ATOM     37  C   UNL     1     -12.813  -3.578  39.763  0.00  0.00    +0.145 C 
BRANCH  37  38
ATOM     38  C   UNL     1     -13.791  -3.801  40.915  0.00  0.00    +0.023 C 
BRANCH  38  39
ATOM     39  C   UNL     1     -13.109  -4.351  42.170  0.00  0.00    +0.002 C 
BRANCH  39  40
ATOM     40  C   UNL     1     -14.130  -4.480  43.303  0.00  0.00    +0.011 C 
BRANCH  40  41
ATOM     41  C   UNL     1     -13.514  -5.002  44.598  0.00  0.00    +0.120 C 
BRANCH  41  42
ATOM     42  C   UNL     1     -14.549  -5.095  45.699  0.00  0.00    +0.305 C 
ATOM     43  O   UNL     1     -15.728  -4.802  45.587  0.00  0.00    -0.251 OA
BRANCH  42  44
ATOM     44  O   UNL     1     -14.026  -5.556  46.859  0.00  0.00    -0.481 OA
ATOM     45  H   UNL     1     -13.073  -5.751  46.812  0.00  0.00    +0.295 HD
ENDBRANCH  42  44
ENDBRANCH  41  42
ENDBRANCH  40  41
ENDBRANCH  39  40
ENDBRANCH  38  39
ENDBRANCH  37  38
ENDBRANCH  35  37
ENDBRANCH  31  33
ENDBRANCH  30  31
ENDBRANCH  26  30
ENDBRANCH  25  28
ENDBRANCH   1  25
TORSDOF 20
