REMARK  Name = lig_assembled_50.pdb
REMARK  20 active torsions:
REMARK  status: ('A' for Active; 'I' for Inactive)
REMARK    1  A    between atoms: _2  and  _9
REMARK    2  A    between atoms: _4  and  _17
REMARK    3  A    between atoms: _5  and  _10
REMARK    4  A    between atoms: _5  and  _11
REMARK    5  A    between atoms: _6  and  _7
REMARK    6  A    between atoms: _6  and  _17
REMARK    7  A    between atoms: _9  and  _10
REMARK    8  A    between atoms: _10  and  _12
REMARK    9  A    between atoms: _13  and  _33
REMARK   10  A    between atoms: _15  and  _21
REMARK   11  A    between atoms: _16  and  _20
REMARK   12  A    between atoms: _20  and  _21
REMARK   13  A    between atoms: _23  and  _24
REMARK   14  A    between atoms: _25  and  _26
REMARK   15  A    between atoms: _27  and  _29
REMARK   16  A    between atoms: _29  and  _30
REMARK   17  A    between atoms: _29  and  _31
REMARK   18  A    between atoms: _31  and  _32
REMARK   19  A    between atoms: _31  and  _33
REMARK   20  A    between atoms: _34  and  _36
REMARK                            x       y       z     vdW  Elec       q    Type
REMARK                         _______ _______ _______ _____ _____    ______ ____
ROOT
ATOM      1  C   UNL     1     -18.372  10.495  41.818  0.00  0.00    +0.163 C 
ENDROOT
BRANCH   1   2
ATOM      2  O   UNL     1     -19.615  10.747  42.494  0.00  0.00    -0.388 OA
ATOM      3  H   UNL     1     -19.551  10.450  43.405  0.00  0.00    +0.210 HD
ENDBRANCH   1   2
BRANCH   1   4
ATOM      4  C   UNL     1     -18.486  10.820  40.319  0.00  0.00    +0.175 C 
BRANCH   4   5
ATOM      5  C   UNL     1     -18.261   9.581  39.440  0.00  0.00    +0.176 C 
ATOM      6  O   UNL     1     -17.528   8.602  40.227  0.00  0.00    -0.332 OA
ATOM      7  C   UNL     1     -17.313   7.303  39.582  0.00  0.00    +0.277 C 
ATOM      8  C   UNL     1     -16.626   7.489  38.207  0.00  0.00    +0.110 C 
ATOM      9  C   UNL     1     -17.351   8.545  37.346  0.00  0.00    +0.143 C 
ATOM     10  C   UNL     1     -17.525   9.855  38.116  0.00  0.00    +0.133 C 
BRANCH  10  11
ATOM     11  N   UNL     1     -18.294  10.823  37.318  0.00  0.00    -0.308 N 
ATOM     12  H   UNL     1     -17.864  11.715  37.117  0.00  0.00    +0.149 HD
ATOM     13  C   UNL     1     -19.522  10.600  36.842  0.00  0.00    +0.210 C 
ATOM     14  C   UNL     1     -20.159   9.241  37.188  0.00  0.00    +0.109 C 
ATOM     15  O   UNL     1     -20.136  11.424  36.164  0.00  0.00    -0.276 OA
ENDBRANCH  10  11
BRANCH   7  16
ATOM     16  C   UNL     1     -18.650   6.557  39.394  0.00  0.00    +0.414 C 
ATOM     17  O   UNL     1     -19.550   6.677  40.224  0.00  0.00    -0.240 OA
ATOM     18  O   UNL     1     -18.829   5.836  38.412  0.00  0.00    -0.240 OA
ENDBRANCH   7  16
BRANCH   9  19
ATOM     19  O   UNL     1     -16.602   8.794  36.156  0.00  0.00    -0.390 OA
ATOM     20  H   UNL     1     -16.853   9.646  35.792  0.00  0.00    +0.210 HD
ENDBRANCH   9  19
BRANCH   7  21
ATOM     21  O   UNL     1     -16.433   6.521  40.431  0.00  0.00    -0.343 OA
ATOM     22  C   UNL     1     -16.221   7.064  41.758  0.00  0.00    +0.198 C 
ENDBRANCH   7  21
ENDBRANCH   4   5
BRANCH   4  23
ATOM     23  O   UNL     1     -17.550  11.857  39.964  0.00  0.00    -0.387 OA
ATOM     24  H   UNL     1     -16.693  11.466  39.781  0.00  0.00    +0.210 HD
ENDBRANCH   4  23
ENDBRANCH   1   4
BRANCH   1  25
ATOM     25  C   UNL     1     -17.261  11.335  42.439  0.00  0.00    +0.141 C 
BRANCH  25  28
ATOM     26  C   UNL     1     -16.791  10.591  44.748  0.00  0.00    +0.401 C 
ATOM     27  O   UNL     1     -16.072   9.652  44.400  0.00  0.00    -0.226 OA
ATOM     28  N   UNL     1     -17.393  11.425  43.899  0.00  0.00    -0.279 N 
ATOM     29  H   UNL     1     -17.972  12.159  44.281  0.00  0.00    +0.152 HD
BRANCH  26  30
ATOM     30  O   UNL     1     -17.012  10.816  46.143  0.00  0.00    -0.444 OA
BRANCH  30  31
ATOM     31  C   UNL     1     -18.338  11.312  46.343  0.00  0.00    +0.292 C 
BRANCH  31  33
ATOM     32  N   UNL     1     -19.540  12.420  48.208  0.00  0.00    -0.131 NA
ATOM     33  C   UNL     1     -18.378  12.226  47.502  0.00  0.00    +0.120 A 
ATOM     34  C   UNL     1     -17.375  12.985  48.070  0.00  0.00    +0.137 A 
ATOM     35  N   UNL     1     -17.990  13.617  49.102  0.00  0.00    -0.249 N 
ATOM     36  N   UNL     1     -19.286  13.264  49.195  0.00  0.00    -0.065 NA
BRANCH  35  37
ATOM     37  C   UNL     1     -17.428  14.568  50.035  0.00  0.00    +0.178 C 
BRANCH  37  38
ATOM     38  C   UNL     1     -16.923  13.942  51.339  0.00  0.00    +0.161 C 
BRANCH  38  39
ATOM     39  O   UNL     1     -17.672  12.784  51.721  0.00  0.00    -0.388 OA
ATOM     40  H   UNL     1     -17.645  12.139  50.985  0.00  0.00    +0.210 HD
ENDBRANCH  38  39
BRANCH  38  41
ATOM     41  C   UNL     1     -15.426  13.607  51.320  0.00  0.00    +0.189 C 
BRANCH  41  42
ATOM     42  O   UNL     1     -14.965  13.212  52.612  0.00  0.00    -0.392 OA
ATOM     43  H   UNL     1     -15.735  13.170  53.210  0.00  0.00    +0.210 HD
ENDBRANCH  41  42
ENDBRANCH  38  41
ENDBRANCH  37  38
ENDBRANCH  35  37
ENDBRANCH  31  33
ENDBRANCH  30  31
ENDBRANCH  26  30
ENDBRANCH  25  28
ENDBRANCH   1  25
TORSDOF 18
