REMARK  Name = lig_assembled_71.pdb
REMARK  17 active torsions:
REMARK  status: ('A' for Active; 'I' for Inactive)
REMARK    1  A    between atoms: _2  and  _12
REMARK    2  A    between atoms: _7  and  _22
REMARK    3  A    between atoms: _9  and  _10
REMARK    4  A    between atoms: _9  and  _22
REMARK    5  A    between atoms: _12  and  _13
REMARK    6  A    between atoms: _18  and  _38
REMARK    7  A    between atoms: _20  and  _26
REMARK    8  A    between atoms: _21  and  _25
REMARK    9  A    between atoms: _25  and  _26
REMARK   10  A    between atoms: _28  and  _29
REMARK   11  A    between atoms: _30  and  _31
REMARK   12  A    between atoms: _32  and  _34
REMARK   13  A    between atoms: _34  and  _35
REMARK   14  A    between atoms: _34  and  _36
REMARK   15  A    between atoms: _36  and  _37
REMARK   16  A    between atoms: _36  and  _38
REMARK   17  A    between atoms: _39  and  _41
REMARK                            x       y       z     vdW  Elec       q    Type
REMARK                         _______ _______ _______ _____ _____    ______ ____
ROOT
ATOM      1  C   UNL     1      -9.477  20.960  38.889  0.00  0.00    +0.163 C 
ENDROOT
BRANCH   1   2
ATOM      2  O   UNL     1      -9.392  19.926  37.895  0.00  0.00    -0.388 OA
ATOM      3  H   UNL     1      -9.302  20.323  37.025  0.00  0.00    +0.210 HD
ENDBRANCH   1   2
BRANCH   1   4
ATOM      4  C   UNL     1      -8.170  21.745  38.937  0.00  0.00    +0.141 C 
BRANCH   4   7
ATOM      5  C   UNL     1      -6.903  22.159  36.856  0.00  0.00    +0.401 C 
ATOM      6  O   UNL     1      -7.316  23.313  36.722  0.00  0.00    -0.226 OA
ATOM      7  N   UNL     1      -7.255  21.352  37.858  0.00  0.00    -0.279 N 
ATOM      8  H   UNL     1      -6.871  20.418  37.876  0.00  0.00    +0.152 HD
BRANCH   5   9
ATOM      9  O   UNL     1      -5.994  21.630  35.887  0.00  0.00    -0.444 OA
BRANCH   9  10
ATOM     10  C   UNL     1      -5.448  20.398  36.366  0.00  0.00    +0.292 C 
BRANCH  10  12
ATOM     11  N   UNL     1      -3.225  19.601  35.598  0.00  0.00    -0.131 NA
ATOM     12  C   UNL     1      -3.974  20.456  36.366  0.00  0.00    +0.120 A 
ATOM     13  C   UNL     1      -3.129  21.292  37.056  0.00  0.00    +0.137 A 
ATOM     14  N   UNL     1      -1.880  20.890  36.683  0.00  0.00    -0.242 N 
ATOM     15  N   UNL     1      -1.943  19.882  35.794  0.00  0.00    -0.065 NA
BRANCH  14  16
ATOM     16  C   UNL     1      -0.600  21.475  37.027  0.00  0.00    +0.241 C 
BRANCH  16  17
ATOM     17  C   UNL     1       0.293  20.489  37.733  0.00  0.00    +0.241 C 
ATOM     18  O   UNL     1       1.514  20.639  37.713  0.00  0.00    -0.273 OA
ATOM     19  N   UNL     1      -0.369  19.420  38.299  0.00  0.00    -0.253 N 
ATOM     20  H   UNL     1      -1.343  19.233  38.117  0.00  0.00    +0.158 HD
ATOM     21  C   UNL     1       0.262  18.409  39.016  0.00  0.00    +0.221 A 
ATOM     22  N   UNL     1      -0.481  17.315  39.241  0.00  0.00    -0.223 NA
ATOM     23  C   UNL     1       0.140  16.294  39.870  0.00  0.00    +0.116 A 
ATOM     24  C   UNL     1       1.444  16.340  40.300  0.00  0.00    +0.039 A 
ATOM     25  C   UNL     1       2.096  17.521  40.062  0.00  0.00    +0.116 A 
ATOM     26  N   UNL     1       1.525  18.556  39.427  0.00  0.00    -0.223 NA
ENDBRANCH  16  17
ENDBRANCH  14  16
ENDBRANCH  10  12
ENDBRANCH   9  10
ENDBRANCH   5   9
ENDBRANCH   4   7
ENDBRANCH   1   4
BRANCH   1  27
ATOM     27  C   UNL     1      -9.771  20.367  40.277  0.00  0.00    +0.175 C 
BRANCH  27  28
ATOM     28  C   UNL     1     -11.245  20.534  40.676  0.00  0.00    +0.176 C 
ATOM     29  O   UNL     1     -11.766  21.701  39.984  0.00  0.00    -0.332 OA
ATOM     30  C   UNL     1     -13.198  21.958  40.163  0.00  0.00    +0.277 C 
ATOM     31  C   UNL     1     -13.548  22.043  41.669  0.00  0.00    +0.110 C 
ATOM     32  C   UNL     1     -12.987  20.838  42.453  0.00  0.00    +0.143 C 
ATOM     33  C   UNL     1     -11.491  20.662  42.191  0.00  0.00    +0.133 C 
BRANCH  33  34
ATOM     34  N   UNL     1     -10.986  19.460  42.874  0.00  0.00    -0.308 N 
ATOM     35  H   UNL     1     -10.233  19.576  43.538  0.00  0.00    +0.149 HD
ATOM     36  C   UNL     1     -11.458  18.226  42.674  0.00  0.00    +0.210 C 
ATOM     37  C   UNL     1     -12.587  18.080  41.637  0.00  0.00    +0.109 C 
ATOM     38  O   UNL     1     -11.026  17.240  43.272  0.00  0.00    -0.276 OA
ENDBRANCH  33  34
BRANCH  30  39
ATOM     39  C   UNL     1     -14.040  20.848  39.500  0.00  0.00    +0.414 C 
ATOM     40  O   UNL     1     -13.645  20.302  38.470  0.00  0.00    -0.240 OA
ATOM     41  O   UNL     1     -15.112  20.498  39.994  0.00  0.00    -0.240 OA
ENDBRANCH  30  39
BRANCH  30  42
ATOM     42  O   UNL     1     -13.505  23.236  39.549  0.00  0.00    -0.343 OA
ATOM     43  C   UNL     1     -12.352  24.005  39.125  0.00  0.00    +0.198 C 
ENDBRANCH  30  42
BRANCH  32  44
ATOM     44  O   UNL     1     -13.200  21.032  43.852  0.00  0.00    -0.390 OA
ATOM     45  H   UNL     1     -12.591  20.481  44.348  0.00  0.00    +0.210 HD
ENDBRANCH  32  44
ENDBRANCH  27  28
BRANCH  27  46
ATOM     46  O   UNL     1      -8.916  20.972  41.267  0.00  0.00    -0.387 OA
ATOM     47  H   UNL     1      -9.309  21.793  41.571  0.00  0.00    +0.210 HD
ENDBRANCH  27  46
ENDBRANCH   1  27
TORSDOF 15
