REMARK  Name = lig_assembled_81.pdb
REMARK  22 active torsions:
REMARK  status: ('A' for Active; 'I' for Inactive)
REMARK    1  A    between atoms: _2  and  _12
REMARK    2  A    between atoms: _7  and  _30
REMARK    3  A    between atoms: _8  and  _24
REMARK    4  A    between atoms: _9  and  _10
REMARK    5  A    between atoms: _9  and  _30
REMARK    6  A    between atoms: _14  and  _15
REMARK    7  A    between atoms: _21  and  _22
REMARK    8  A    between atoms: _22  and  _23
REMARK    9  A    between atoms: _23  and  _25
REMARK   10  A    between atoms: _24  and  _25
REMARK   11  A    between atoms: _26  and  _46
REMARK   12  A    between atoms: _28  and  _34
REMARK   13  A    between atoms: _29  and  _33
REMARK   14  A    between atoms: _33  and  _34
REMARK   15  A    between atoms: _36  and  _37
REMARK   16  A    between atoms: _38  and  _39
REMARK   17  A    between atoms: _40  and  _42
REMARK   18  A    between atoms: _42  and  _43
REMARK   19  A    between atoms: _42  and  _44
REMARK   20  A    between atoms: _44  and  _45
REMARK   21  A    between atoms: _44  and  _46
REMARK   22  A    between atoms: _47  and  _49
REMARK                            x       y       z     vdW  Elec       q    Type
REMARK                         _______ _______ _______ _____ _____    ______ ____
ROOT
ATOM      1  C   UNL     1     -13.731   8.640   8.658  0.00  0.00    +0.401 C 
ATOM      2  O   UNL     1     -13.983   7.707   9.423  0.00  0.00    -0.226 OA
ATOM      3  N   UNL     1     -13.283   9.831   9.057  0.00  0.00    -0.279 N 
ATOM      4  H   UNL     1     -13.096  10.531   8.353  0.00  0.00    +0.152 HD
ENDROOT
BRANCH   1   5
ATOM      5  O   UNL     1     -13.919   8.457   7.253  0.00  0.00    -0.444 OA
BRANCH   5   6
ATOM      6  C   UNL     1     -13.304   7.232   6.844  0.00  0.00    +0.289 C 
BRANCH   6   8
ATOM      7  N   UNL     1     -11.110   6.212   7.244  0.00  0.00    -0.130 NA
ATOM      8  C   UNL     1     -11.835   7.331   6.963  0.00  0.00    +0.100 C 
ATOM      9  C   UNL     1     -10.972   8.406   6.871  0.00  0.00    +0.124 C 
ATOM     10  N   UNL     1      -9.704   7.849   6.967  0.00  0.00    -0.187 N 
ATOM     11  N   UNL     1      -9.845   6.572   7.377  0.00  0.00    -0.010 NA
BRANCH  10  12
ATOM     12  C   UNL     1      -8.436   8.514   6.881  0.00  0.00    +0.150 A 
ATOM     13  C   UNL     1      -7.775   8.881   5.682  0.00  0.00    +0.022 A 
ATOM     14  C   UNL     1      -6.495   9.455   5.901  0.00  0.00    +0.081 A 
ATOM     15  N   UNL     1      -5.960   9.555   7.148  0.00  0.00    -0.214 NA
ATOM     16  C   UNL     1      -6.664   9.151   8.191  0.00  0.00    +0.215 A 
ATOM     17  N   UNL     1      -6.070   9.177   9.430  0.00  0.00    -0.327 N 
ATOM     18  H   UNL     1      -5.302   9.830   9.454  0.00  0.00    +0.145 HD
ATOM     19  H   UNL     1      -6.753   9.197  10.173  0.00  0.00    +0.145 HD
ATOM     20  N   UNL     1      -7.910   8.725   8.119  0.00  0.00    -0.198 NA
BRANCH  14  21
ATOM     21  C   UNL     1      -5.532  10.003   4.871  0.00  0.00    +0.001 A 
ATOM     22  C   UNL     1      -4.561   9.246   4.189  0.00  0.00    +0.010 A 
ATOM     23  C   UNL     1      -3.702   9.810   3.232  0.00  0.00    +0.001 A 
ATOM     24  C   UNL     1      -3.820  11.141   2.876  0.00  0.00    +0.000 A 
ATOM     25  C   UNL     1      -4.803  11.918   3.483  0.00  0.00    +0.001 A 
ATOM     26  C   UNL     1      -5.629  11.356   4.468  0.00  0.00    +0.010 A 
ENDBRANCH  14  21
BRANCH  13  27
ATOM     27  C   UNL     1      -8.306   8.835   4.246  0.00  0.00    +0.069 C 
BRANCH  27  28
ATOM     28  C   UNL     1      -8.611   7.516   3.563  0.00  0.00    +0.164 C 
BRANCH  28  29
ATOM     29  O   UNL     1      -7.577   6.526   3.602  0.00  0.00    -0.380 OA
BRANCH  29  30
ATOM     30  C   UNL     1      -7.367   6.107   2.239  0.00  0.00    +0.156 C 
ATOM     31  C   UNL     1      -5.939   5.673   2.001  0.00  0.00    +0.034 C 
ENDBRANCH  29  30
ENDBRANCH  28  29
ENDBRANCH  27  28
ENDBRANCH  13  27
ENDBRANCH  10  12
ENDBRANCH   6   8
ENDBRANCH   5   6
ENDBRANCH   1   5
BRANCH   3  32
ATOM     32  C   UNL     1     -13.046  10.183  10.463  0.00  0.00    +0.141 C 
BRANCH  32  33
ATOM     33  C   UNL     1     -11.559  10.226  10.796  0.00  0.00    +0.163 C 
BRANCH  33  34
ATOM     34  O   UNL     1     -10.845   9.281   9.981  0.00  0.00    -0.388 OA
ATOM     35  H   UNL     1     -11.130   8.390  10.200  0.00  0.00    +0.210 HD
ENDBRANCH  33  34
BRANCH  33  36
ATOM     36  C   UNL     1     -11.024  11.652  10.580  0.00  0.00    +0.175 C 
BRANCH  36  37
ATOM     37  C   UNL     1      -9.498  11.727  10.732  0.00  0.00    +0.176 C 
ATOM     38  O   UNL     1      -9.207  12.379  11.999  0.00  0.00    -0.332 OA
ATOM     39  C   UNL     1      -7.789  12.445  12.367  0.00  0.00    +0.277 C 
ATOM     40  C   UNL     1      -6.967  13.108  11.235  0.00  0.00    +0.110 C 
ATOM     41  C   UNL     1      -7.267  12.469   9.863  0.00  0.00    +0.143 C 
ATOM     42  C   UNL     1      -8.770  12.449   9.584  0.00  0.00    +0.133 C 
BRANCH  42  43
ATOM     43  N   UNL     1      -9.049  11.760   8.314  0.00  0.00    -0.308 N 
ATOM     44  H   UNL     1      -8.623  10.856   8.165  0.00  0.00    +0.149 HD
ATOM     45  C   UNL     1      -9.829  12.250   7.347  0.00  0.00    +0.210 C 
ATOM     46  C   UNL     1     -10.443  13.640   7.595  0.00  0.00    +0.109 C 
ATOM     47  O   UNL     1     -10.057  11.643   6.300  0.00  0.00    -0.276 OA
ENDBRANCH  42  43
BRANCH  39  48
ATOM     48  C   UNL     1      -7.232  11.035  12.651  0.00  0.00    +0.414 C 
ATOM     49  O   UNL     1      -7.828  10.274  13.412  0.00  0.00    -0.240 OA
ATOM     50  O   UNL     1      -6.186  10.658  12.120  0.00  0.00    -0.240 OA
ENDBRANCH  39  48
BRANCH  39  51
ATOM     51  O   UNL     1      -7.672  13.265  13.558  0.00  0.00    -0.343 OA
ATOM     52  C   UNL     1      -6.396  13.935  13.718  0.00  0.00    +0.198 C 
ENDBRANCH  39  51
BRANCH  41  53
ATOM     53  O   UNL     1      -6.606  13.206   8.833  0.00  0.00    -0.390 OA
ATOM     54  H   UNL     1      -7.032  13.031   7.991  0.00  0.00    +0.210 HD
ENDBRANCH  41  53
ENDBRANCH  36  37
BRANCH  36  55
ATOM     55  O   UNL     1     -11.660  12.565  11.496  0.00  0.00    -0.387 OA
ATOM     56  H   UNL     1     -11.195  12.553  12.336  0.00  0.00    +0.210 HD
ENDBRANCH  36  55
ENDBRANCH  33  36
ENDBRANCH  32  33
ENDBRANCH   3  32
TORSDOF 19
