REMARK  Name = lig_assembled_93.pdb
REMARK  16 active torsions:
REMARK  status: ('A' for Active; 'I' for Inactive)
REMARK    1  A    between atoms: _2  and  _9
REMARK    2  A    between atoms: _4  and  _18
REMARK    3  A    between atoms: _6  and  _7
REMARK    4  A    between atoms: _6  and  _18
REMARK    5  A    between atoms: _14  and  _34
REMARK    6  A    between atoms: _16  and  _22
REMARK    7  A    between atoms: _17  and  _21
REMARK    8  A    between atoms: _21  and  _22
REMARK    9  A    between atoms: _24  and  _25
REMARK   10  A    between atoms: _26  and  _27
REMARK   11  A    between atoms: _28  and  _30
REMARK   12  A    between atoms: _30  and  _31
REMARK   13  A    between atoms: _30  and  _32
REMARK   14  A    between atoms: _32  and  _33
REMARK   15  A    between atoms: _32  and  _34
REMARK   16  A    between atoms: _35  and  _37
REMARK                            x       y       z     vdW  Elec       q    Type
REMARK                         _______ _______ _______ _____ _____    ______ ____
ROOT
ATOM      1  C   UNL     1     -10.049  10.932  35.202  0.00  0.00    +0.163 C 
ENDROOT
BRANCH   1   2
ATOM      2  O   UNL     1     -10.092  10.085  36.362  0.00  0.00    -0.388 OA
ATOM      3  H   UNL     1     -10.318  10.610  37.134  0.00  0.00    +0.210 HD
ENDBRANCH   1   2
BRANCH   1   4
ATOM      4  C   UNL     1     -11.437  11.496  34.915  0.00  0.00    +0.141 C 
BRANCH   4   7
ATOM      5  C   UNL     1     -12.051  13.040  36.744  0.00  0.00    +0.401 C 
ATOM      6  O   UNL     1     -11.345  13.962  36.329  0.00  0.00    -0.226 OA
ATOM      7  N   UNL     1     -12.149  11.850  36.149  0.00  0.00    -0.279 N 
ATOM      8  H   UNL     1     -12.747  11.154  36.571  0.00  0.00    +0.152 HD
BRANCH   5   9
ATOM      9  O   UNL     1     -12.816  13.233  37.937  0.00  0.00    -0.444 OA
BRANCH   9  10
ATOM     10  C   UNL     1     -13.189  14.610  38.047  0.00  0.00    +0.292 C 
BRANCH  10  12
ATOM     11  N   UNL     1     -15.640  14.680  37.766  0.00  0.00    -0.131 NA
ATOM     12  C   UNL     1     -14.557  14.728  38.585  0.00  0.00    +0.121 A 
ATOM     13  C   UNL     1     -14.988  14.884  39.882  0.00  0.00    +0.143 A 
ATOM     14  N   UNL     1     -16.371  14.912  39.814  0.00  0.00    -0.219 N 
ATOM     15  N   UNL     1     -16.725  14.798  38.515  0.00  0.00    -0.060 NA
BRANCH  14  16
ATOM     16  C   UNL     1     -17.307  15.023  40.890  0.00  0.00    +0.080 A 
ATOM     17  C   UNL     1     -17.740  16.322  41.250  0.00  0.00    +0.029 A 
ATOM     18  C   UNL     1     -18.638  16.534  42.300  0.00  0.00    +0.002 A 
ATOM     19  C   UNL     1     -19.130  15.457  43.018  0.00  0.00    +0.001 A 
ATOM     20  C   UNL     1     -18.726  14.167  42.682  0.00  0.00    +0.016 A 
ATOM     21  C   UNL     1     -17.821  13.934  41.624  0.00  0.00    +0.039 A 
ATOM     22  I   UNL     1     -17.409  11.876  41.357  0.00  0.00    -0.042 I 
ENDBRANCH  14  16
ENDBRANCH  10  12
ENDBRANCH   9  10
ENDBRANCH   5   9
ENDBRANCH   4   7
ENDBRANCH   1   4
BRANCH   1  23
ATOM     23  C   UNL     1      -9.546  10.156  33.972  0.00  0.00    +0.175 C 
BRANCH  23  24
ATOM     24  C   UNL     1      -8.013  10.101  33.911  0.00  0.00    +0.176 C 
ATOM     25  O   UNL     1      -7.556   9.196  34.954  0.00  0.00    -0.332 OA
ATOM     26  C   UNL     1      -6.113   8.936  34.980  0.00  0.00    +0.277 C 
ATOM     27  C   UNL     1      -5.324  10.266  35.058  0.00  0.00    +0.110 C 
ATOM     28  C   UNL     1      -5.797  11.272  33.988  0.00  0.00    +0.143 C 
ATOM     29  C   UNL     1      -7.313  11.466  34.049  0.00  0.00    +0.133 C 
BRANCH  29  30
ATOM     30  N   UNL     1      -7.762  12.359  32.969  0.00  0.00    -0.308 N 
ATOM     31  H   UNL     1      -7.701  12.019  32.020  0.00  0.00    +0.149 HD
ATOM     32  C   UNL     1      -8.243  13.590  33.162  0.00  0.00    +0.210 C 
ATOM     33  C   UNL     1      -8.298  14.089  34.618  0.00  0.00    +0.109 C 
ATOM     34  O   UNL     1      -8.625  14.310  32.239  0.00  0.00    -0.276 OA
ENDBRANCH  29  30
BRANCH  26  35
ATOM     35  C   UNL     1      -5.677   8.150  33.726  0.00  0.00    +0.414 C 
ATOM     36  O   UNL     1      -6.506   7.524  33.067  0.00  0.00    -0.240 OA
ATOM     37  O   UNL     1      -4.497   8.143  33.374  0.00  0.00    -0.240 OA
ENDBRANCH  26  35
BRANCH  28  38
ATOM     38  O   UNL     1      -5.153  12.530  34.192  0.00  0.00    -0.390 OA
ATOM     39  H   UNL     1      -5.662  13.223  33.765  0.00  0.00    +0.210 HD
ENDBRANCH  28  38
BRANCH  26  40
ATOM     40  O   UNL     1      -5.819   8.159  36.170  0.00  0.00    -0.343 OA
ATOM     41  C   UNL     1      -6.973   7.819  36.980  0.00  0.00    +0.198 C 
ENDBRANCH  26  40
ENDBRANCH  23  24
BRANCH  23  42
ATOM     42  O   UNL     1     -10.070  10.744  32.765  0.00  0.00    -0.387 OA
ATOM     43  H   UNL     1      -9.508  11.473  32.494  0.00  0.00    +0.210 HD
ENDBRANCH  23  42
ENDBRANCH   1  23
TORSDOF 14
