REMARK  Name = lig_assembled_52.pdb
REMARK  16 active torsions:
REMARK  status: ('A' for Active; 'I' for Inactive)
REMARK    1  A    between atoms: _2  and  _10
REMARK    2  A    between atoms: _5  and  _18
REMARK    3  A    between atoms: _7  and  _8
REMARK    4  A    between atoms: _7  and  _18
REMARK    5  A    between atoms: _14  and  _34
REMARK    6  A    between atoms: _16  and  _22
REMARK    7  A    between atoms: _17  and  _21
REMARK    8  A    between atoms: _21  and  _22
REMARK    9  A    between atoms: _24  and  _25
REMARK   10  A    between atoms: _26  and  _27
REMARK   11  A    between atoms: _28  and  _30
REMARK   12  A    between atoms: _30  and  _31
REMARK   13  A    between atoms: _30  and  _32
REMARK   14  A    between atoms: _32  and  _33
REMARK   15  A    between atoms: _32  and  _34
REMARK   16  A    between atoms: _35  and  _37
REMARK                            x       y       z     vdW  Elec       q    Type
REMARK                         _______ _______ _______ _____ _____    ______ ____
ROOT
ATOM      1  C   UNL     1     -16.219  12.886  36.298  0.00  0.00    +0.163 C 
ENDROOT
BRANCH   1   2
ATOM      2  O   UNL     1     -15.061  12.040  36.196  0.00  0.00    -0.388 OA
ATOM      3  H   UNL     1     -14.330  12.541  35.827  0.00  0.00    +0.210 HD
ENDBRANCH   1   2
BRANCH   1   4
ATOM      4  C   UNL     1     -15.957  14.012  37.293  0.00  0.00    +0.141 C 
BRANCH   4   7
ATOM      5  C   UNL     1     -16.285  16.216  36.226  0.00  0.00    +0.401 C 
ATOM      6  O   UNL     1     -15.158  16.247  35.726  0.00  0.00    -0.226 OA
ATOM      7  N   UNL     1     -16.739  15.213  36.978  0.00  0.00    -0.279 N 
ATOM      8  H   UNL     1     -17.675  15.284  37.352  0.00  0.00    +0.152 HD
BRANCH   5   9
ATOM      9  O   UNL     1     -17.173  17.314  36.003  0.00  0.00    -0.444 OA
BRANCH   9  10
ATOM     10  C   UNL     1     -17.465  17.417  34.607  0.00  0.00    +0.292 C 
BRANCH  10  12
ATOM     11  N   UNL     1     -19.048  15.532  34.850  0.00  0.00    -0.131 NA
ATOM     12  C   UNL     1     -18.087  16.171  34.121  0.00  0.00    +0.121 A 
ATOM     13  C   UNL     1     -17.865  15.468  32.959  0.00  0.00    +0.143 A 
ATOM     14  N   UNL     1     -18.736  14.405  33.013  0.00  0.00    -0.218 N 
ATOM     15  N   UNL     1     -19.435  14.459  34.173  0.00  0.00    -0.060 NA
BRANCH  14  16
ATOM     16  C   UNL     1     -18.949  13.389  32.058  0.00  0.00    +0.085 A 
ATOM     17  C   UNL     1     -18.073  13.184  30.988  0.00  0.00    +0.031 A 
ATOM     18  C   UNL     1     -18.350  12.177  30.065  0.00  0.00    +0.022 A 
ATOM     19  C   UNL     1     -19.489  11.410  30.245  0.00  0.00    +0.111 A 
ATOM     20  N   UNL     1     -20.349  11.579  31.272  0.00  0.00    -0.261 NA
ATOM     21  C   UNL     1     -20.064  12.564  32.158  0.00  0.00    +0.138 A 
ENDBRANCH  14  16
ENDBRANCH  10  12
ENDBRANCH   9  10
ENDBRANCH   5   9
ENDBRANCH   4   7
ENDBRANCH   1   4
BRANCH   1  22
ATOM     22  C   UNL     1     -17.450  12.080  36.746  0.00  0.00    +0.175 C 
BRANCH  22  23
ATOM     23  C   UNL     1     -17.078  10.662  37.204  0.00  0.00    +0.176 C 
ATOM     24  O   UNL     1     -17.287   9.761  36.082  0.00  0.00    -0.332 OA
ATOM     25  C   UNL     1     -16.881   8.370  36.303  0.00  0.00    +0.277 C 
ATOM     26  C   UNL     1     -17.569   7.799  37.568  0.00  0.00    +0.110 C 
ATOM     27  C   UNL     1     -17.401   8.739  38.780  0.00  0.00    +0.143 C 
ATOM     28  C   UNL     1     -17.850  10.160  38.438  0.00  0.00    +0.133 C 
BRANCH  28  29
ATOM     29  N   UNL     1     -17.605  11.065  39.573  0.00  0.00    -0.308 N 
ATOM     30  H   UNL     1     -18.398  11.550  39.969  0.00  0.00    +0.149 HD
ATOM     31  C   UNL     1     -16.403  11.287  40.113  0.00  0.00    +0.210 C 
ATOM     32  C   UNL     1     -15.212  10.552  39.469  0.00  0.00    +0.109 C 
ATOM     33  O   UNL     1     -16.230  12.039  41.072  0.00  0.00    -0.276 OA
ENDBRANCH  28  29
BRANCH  25  34
ATOM     34  C   UNL     1     -15.349   8.265  36.457  0.00  0.00    +0.414 C 
ATOM     35  O   UNL     1     -14.607   8.951  35.756  0.00  0.00    -0.240 OA
ATOM     36  O   UNL     1     -14.856   7.495  37.283  0.00  0.00    -0.240 OA
ENDBRANCH  25  34
BRANCH  27  37
ATOM     37  O   UNL     1     -18.174   8.252  39.877  0.00  0.00    -0.390 OA
ATOM     38  H   UNL     1     -18.338   8.968  40.496  0.00  0.00    +0.210 HD
ENDBRANCH  27  37
BRANCH  25  39
ATOM     39  O   UNL     1     -17.310   7.590  35.157  0.00  0.00    -0.343 OA
ATOM     40  C   UNL     1     -17.746   8.369  34.015  0.00  0.00    +0.198 C 
ENDBRANCH  25  39
ENDBRANCH  22  23
BRANCH  22  41
ATOM     41  O   UNL     1     -18.419  12.020  35.680  0.00  0.00    -0.387 OA
ATOM     42  H   UNL     1     -18.200  11.295  35.089  0.00  0.00    +0.210 HD
ENDBRANCH  22  41
ENDBRANCH   1  22
TORSDOF 14
