REMARK  Name = lig_assembled_51.pdb
REMARK  16 active torsions:
REMARK  status: ('A' for Active; 'I' for Inactive)
REMARK    1  A    between atoms: _2  and  _9
REMARK    2  A    between atoms: _4  and  _22
REMARK    3  A    between atoms: _6  and  _7
REMARK    4  A    between atoms: _6  and  _22
REMARK    5  A    between atoms: _18  and  _38
REMARK    6  A    between atoms: _20  and  _26
REMARK    7  A    between atoms: _21  and  _25
REMARK    8  A    between atoms: _25  and  _26
REMARK    9  A    between atoms: _28  and  _29
REMARK   10  A    between atoms: _30  and  _31
REMARK   11  A    between atoms: _32  and  _34
REMARK   12  A    between atoms: _34  and  _35
REMARK   13  A    between atoms: _34  and  _36
REMARK   14  A    between atoms: _36  and  _37
REMARK   15  A    between atoms: _36  and  _38
REMARK   16  A    between atoms: _39  and  _41
REMARK                            x       y       z     vdW  Elec       q    Type
REMARK                         _______ _______ _______ _____ _____    ______ ____
ROOT
ATOM      1  C   UNL     1     -16.930  11.256  40.253  0.00  0.00    +0.163 C 
ENDROOT
BRANCH   1   2
ATOM      2  O   UNL     1     -18.299  11.693  40.203  0.00  0.00    -0.388 OA
ATOM      3  H   UNL     1     -18.688  11.629  41.078  0.00  0.00    +0.210 HD
ENDBRANCH   1   2
BRANCH   1   4
ATOM      4  C   UNL     1     -16.113  12.201  41.128  0.00  0.00    +0.141 C 
BRANCH   4   7
ATOM      5  C   UNL     1     -13.840  11.565  41.859  0.00  0.00    +0.401 C 
ATOM      6  O   UNL     1     -13.272  12.258  41.013  0.00  0.00    -0.226 OA
ATOM      7  N   UNL     1     -15.165  11.474  41.981  0.00  0.00    -0.279 N 
ATOM      8  H   UNL     1     -15.538  10.870  42.701  0.00  0.00    +0.152 HD
BRANCH   5   9
ATOM      9  O   UNL     1     -13.051  10.800  42.774  0.00  0.00    -0.444 OA
BRANCH   9  10
ATOM     10  C   UNL     1     -12.037  11.633  43.343  0.00  0.00    +0.292 C 
BRANCH  10  12
ATOM     11  N   UNL     1     -13.202  11.858  45.516  0.00  0.00    -0.131 NA
ATOM     12  C   UNL     1     -12.595  12.445  44.440  0.00  0.00    +0.120 A 
ATOM     13  C   UNL     1     -12.624  13.812  44.599  0.00  0.00    +0.137 A 
ATOM     14  N   UNL     1     -13.268  14.000  45.791  0.00  0.00    -0.245 N 
ATOM     15  N   UNL     1     -13.610  12.817  46.336  0.00  0.00    -0.065 NA
BRANCH  14  16
ATOM     16  C   UNL     1     -13.587  15.271  46.446  0.00  0.00    +0.066 C 
ATOM     17  C   UNL     1     -12.334  15.821  47.182  0.00  0.00    +0.034 C 
ATOM     18  C   UNL     1     -12.635  17.179  47.838  0.00  0.00    -0.008 C 
ATOM     19  C   UNL     1     -13.074  18.179  46.755  0.00  0.00    +0.007 C 
ATOM     20  C   UNL     1     -14.341  17.670  46.048  0.00  0.00    -0.008 C 
ATOM     21  C   UNL     1     -15.465  17.496  47.081  0.00  0.00    +0.007 C 
ATOM     22  C   UNL     1     -15.034  16.491  48.160  0.00  0.00    -0.008 C 
ATOM     23  C   UNL     1     -13.768  17.009  48.861  0.00  0.00    +0.007 C 
ATOM     24  C   UNL     1     -14.043  16.313  45.388  0.00  0.00    +0.034 C 
ATOM     25  C   UNL     1     -14.729  15.135  47.498  0.00  0.00    +0.034 C 
ENDBRANCH  14  16
ENDBRANCH  10  12
ENDBRANCH   9  10
ENDBRANCH   5   9
ENDBRANCH   4   7
ENDBRANCH   1   4
BRANCH   1  26
ATOM     26  C   UNL     1     -16.318  11.203  38.843  0.00  0.00    +0.175 C 
BRANCH  26  27
ATOM     27  C   UNL     1     -15.861   9.786  38.464  0.00  0.00    +0.176 C 
ATOM     28  O   UNL     1     -15.205   9.203  39.624  0.00  0.00    -0.332 OA
ATOM     29  C   UNL     1     -14.793   7.804  39.482  0.00  0.00    +0.277 C 
ATOM     30  C   UNL     1     -13.898   7.628  38.230  0.00  0.00    +0.110 C 
ATOM     31  C   UNL     1     -14.539   8.260  36.978  0.00  0.00    +0.143 C 
ATOM     32  C   UNL     1     -14.933   9.715  37.238  0.00  0.00    +0.133 C 
BRANCH  32  33
ATOM     33  N   UNL     1     -15.621  10.280  36.066  0.00  0.00    -0.308 N 
ATOM     34  H   UNL     1     -16.537   9.919  35.838  0.00  0.00    +0.149 HD
ATOM     35  C   UNL     1     -15.116  11.238  35.286  0.00  0.00    +0.210 C 
ATOM     36  C   UNL     1     -13.708  11.749  35.645  0.00  0.00    +0.109 C 
ATOM     37  O   UNL     1     -15.722  11.703  34.319  0.00  0.00    -0.276 OA
ENDBRANCH  32  33
BRANCH  29  38
ATOM     38  C   UNL     1     -16.023   6.880  39.370  0.00  0.00    +0.414 C 
ATOM     39  O   UNL     1     -17.057   7.147  39.980  0.00  0.00    -0.240 OA
ATOM     40  O   UNL     1     -15.981   5.867  38.670  0.00  0.00    -0.240 OA
ENDBRANCH  29  38
BRANCH  31  41
ATOM     41  O   UNL     1     -13.619   8.209  35.887  0.00  0.00    -0.390 OA
ATOM     42  H   UNL     1     -13.864   8.865  35.230  0.00  0.00    +0.210 HD
ENDBRANCH  31  41
BRANCH  29  43
ATOM     43  O   UNL     1     -14.016   7.444  40.653  0.00  0.00    -0.343 OA
ATOM     44  C   UNL     1     -12.685   8.016  40.705  0.00  0.00    +0.198 C 
ENDBRANCH  29  43
ENDBRANCH  26  27
BRANCH  26  45
ATOM     45  O   UNL     1     -15.213  12.124  38.746  0.00  0.00    -0.387 OA
ATOM     46  H   UNL     1     -14.415  11.702  39.073  0.00  0.00    +0.210 HD
ENDBRANCH  26  45
ENDBRANCH   1  26
TORSDOF 14
