REMARK  Name = lig_assembled_78.pdb
REMARK  18 active torsions:
REMARK  status: ('A' for Active; 'I' for Inactive)
REMARK    1  A    between atoms: _2  and  _9
REMARK    2  A    between atoms: _4  and  _21
REMARK    3  A    between atoms: _6  and  _7
REMARK    4  A    between atoms: _6  and  _21
REMARK    5  A    between atoms: _9  and  _41
REMARK    6  A    between atoms: _10  and  _41
REMARK    7  A    between atoms: _17  and  _37
REMARK    8  A    between atoms: _19  and  _25
REMARK    9  A    between atoms: _20  and  _24
REMARK   10  A    between atoms: _24  and  _25
REMARK   11  A    between atoms: _27  and  _28
REMARK   12  A    between atoms: _29  and  _30
REMARK   13  A    between atoms: _31  and  _33
REMARK   14  A    between atoms: _33  and  _34
REMARK   15  A    between atoms: _33  and  _35
REMARK   16  A    between atoms: _35  and  _36
REMARK   17  A    between atoms: _35  and  _37
REMARK   18  A    between atoms: _38  and  _40
REMARK                            x       y       z     vdW  Elec       q    Type
REMARK                         _______ _______ _______ _____ _____    ______ ____
ROOT
ATOM      1  C   UNL     1     -15.872  11.971  37.355  0.00  0.00    +0.163 C 
ENDROOT
BRANCH   1   2
ATOM      2  O   UNL     1     -15.069  12.593  36.339  0.00  0.00    -0.388 OA
ATOM      3  H   UNL     1     -15.617  12.793  35.576  0.00  0.00    +0.210 HD
ENDBRANCH   1   2
BRANCH   1   4
ATOM      4  C   UNL     1     -15.002  11.501  38.533  0.00  0.00    +0.175 C 
BRANCH   4   5
ATOM      5  C   UNL     1     -13.907  10.521  38.088  0.00  0.00    +0.176 C 
ATOM      6  O   UNL     1     -12.907  11.273  37.348  0.00  0.00    -0.332 OA
ATOM      7  C   UNL     1     -11.723  10.515  36.931  0.00  0.00    +0.277 C 
ATOM      8  C   UNL     1     -12.140   9.263  36.122  0.00  0.00    +0.110 C 
ATOM      9  C   UNL     1     -13.226   8.447  36.855  0.00  0.00    +0.143 C 
ATOM     10  C   UNL     1     -14.409   9.334  37.245  0.00  0.00    +0.133 C 
BRANCH  10  11
ATOM     11  N   UNL     1     -15.397   8.565  38.018  0.00  0.00    -0.308 N 
ATOM     12  H   UNL     1     -15.142   8.274  38.952  0.00  0.00    +0.149 HD
ATOM     13  C   UNL     1     -16.608   8.226  37.567  0.00  0.00    +0.210 C 
ATOM     14  C   UNL     1     -16.955   8.662  36.132  0.00  0.00    +0.109 C 
ATOM     15  O   UNL     1     -17.420   7.594  38.243  0.00  0.00    -0.276 OA
ENDBRANCH  10  11
BRANCH   7  16
ATOM     16  C   UNL     1     -10.890  10.084  38.157  0.00  0.00    +0.414 C 
ATOM     17  O   UNL     1     -10.320   8.994  38.166  0.00  0.00    -0.240 OA
ATOM     18  O   UNL     1     -10.789  10.826  39.135  0.00  0.00    -0.240 OA
ENDBRANCH   7  16
BRANCH   7  19
ATOM     19  O   UNL     1     -10.923  11.369  36.073  0.00  0.00    -0.343 OA
ATOM     20  C   UNL     1     -11.606  11.864  34.894  0.00  0.00    +0.198 C 
ENDBRANCH   7  19
BRANCH   9  21
ATOM     21  O   UNL     1     -13.687   7.391  36.011  0.00  0.00    -0.390 OA
ATOM     22  H   UNL     1     -14.552   7.098  36.308  0.00  0.00    +0.210 HD
ENDBRANCH   9  21
ENDBRANCH   4   5
BRANCH   4  23
ATOM     23  O   UNL     1     -15.826  10.897  39.550  0.00  0.00    -0.387 OA
ATOM     24  H   UNL     1     -15.975   9.974  39.335  0.00  0.00    +0.210 HD
ENDBRANCH   4  23
ENDBRANCH   1   4
BRANCH   1  25
ATOM     25  C   UNL     1     -16.927  12.950  37.859  0.00  0.00    +0.141 C 
BRANCH  25  28
ATOM     26  C   UNL     1     -17.121  14.775  39.514  0.00  0.00    +0.401 C 
ATOM     27  O   UNL     1     -18.305  15.008  39.259  0.00  0.00    -0.226 OA
ATOM     28  N   UNL     1     -16.397  13.836  38.904  0.00  0.00    -0.279 N 
ATOM     29  H   UNL     1     -15.430  13.727  39.175  0.00  0.00    +0.152 HD
BRANCH  26  30
ATOM     30  O   UNL     1     -16.461  15.551  40.518  0.00  0.00    -0.444 OA
BRANCH  30  31
ATOM     31  C   UNL     1     -15.045  15.408  40.379  0.00  0.00    +0.292 C 
BRANCH  31  33
ATOM     32  N   UNL     1     -15.094  15.759  42.832  0.00  0.00    -0.131 NA
ATOM     33  C   UNL     1     -14.396  15.423  41.703  0.00  0.00    +0.120 A 
ATOM     34  C   UNL     1     -13.095  15.132  42.050  0.00  0.00    +0.139 A 
ATOM     35  N   UNL     1     -13.083  15.251  43.408  0.00  0.00    -0.230 N 
ATOM     36  N   UNL     1     -14.273  15.673  43.870  0.00  0.00    -0.064 NA
BRANCH  35  37
ATOM     37  C   UNL     1     -11.981  15.066  44.320  0.00  0.00    +0.316 C 
BRANCH  37  38
ATOM     38  S   UNL     1     -11.572  13.363  44.603  0.00  0.00    +0.017 S 
ATOM     39  O   UNL     1     -12.778  12.560  44.608  0.00  0.00    -0.168 OA
ATOM     40  O   UNL     1     -10.454  13.023  43.740  0.00  0.00    -0.168 OA
BRANCH  38  41
ATOM     41  C   UNL     1     -10.963  13.335  46.276  0.00  0.00    +0.090 A 
ATOM     42  C   UNL     1     -11.776  13.818  47.307  0.00  0.00    +0.027 A 
ATOM     43  C   UNL     1     -11.312  13.774  48.621  0.00  0.00    +0.002 A 
ATOM     44  C   UNL     1     -10.055  13.236  48.902  0.00  0.00    +0.000 A 
ATOM     45  C   UNL     1      -9.257  12.738  47.872  0.00  0.00    +0.002 A 
ATOM     46  C   UNL     1      -9.708  12.785  46.552  0.00  0.00    +0.027 A 
ENDBRANCH  38  41
ENDBRANCH  37  38
ENDBRANCH  35  37
ENDBRANCH  31  33
ENDBRANCH  30  31
ENDBRANCH  26  30
ENDBRANCH  25  28
ENDBRANCH   1  25
TORSDOF 16
