REMARK  Name = lig_assembled_74.pdb
REMARK  24 active torsions:
REMARK  status: ('A' for Active; 'I' for Inactive)
REMARK    1  A    between atoms: _2  and  _9
REMARK    2  A    between atoms: _4  and  _22
REMARK    3  A    between atoms: _5  and  _14
REMARK    4  A    between atoms: _6  and  _7
REMARK    5  A    between atoms: _6  and  _22
REMARK    6  A    between atoms: _9  and  _10
REMARK    7  A    between atoms: _10  and  _11
REMARK    8  A    between atoms: _10  and  _13
REMARK    9  A    between atoms: _11  and  _12
REMARK   10  A    between atoms: _12  and  _16
REMARK   11  A    between atoms: _13  and  _14
REMARK   12  A    between atoms: _14  and  _15
REMARK   13  A    between atoms: _18  and  _38
REMARK   14  A    between atoms: _20  and  _26
REMARK   15  A    between atoms: _21  and  _25
REMARK   16  A    between atoms: _25  and  _26
REMARK   17  A    between atoms: _28  and  _29
REMARK   18  A    between atoms: _30  and  _31
REMARK   19  A    between atoms: _32  and  _34
REMARK   20  A    between atoms: _34  and  _35
REMARK   21  A    between atoms: _34  and  _36
REMARK   22  A    between atoms: _36  and  _37
REMARK   23  A    between atoms: _36  and  _38
REMARK   24  A    between atoms: _39  and  _41
REMARK                            x       y       z     vdW  Elec       q    Type
REMARK                         _______ _______ _______ _____ _____    ______ ____
ROOT
ATOM      1  C   UNL     1     -16.056  15.338  36.811  0.00  0.00    +0.163 C 
ENDROOT
BRANCH   1   2
ATOM      2  O   UNL     1     -16.790  16.554  37.026  0.00  0.00    -0.388 OA
ATOM      3  H   UNL     1     -16.653  16.856  37.927  0.00  0.00    +0.210 HD
ENDBRANCH   1   2
BRANCH   1   4
ATOM      4  C   UNL     1     -16.369  14.745  35.426  0.00  0.00    +0.175 C 
BRANCH   4   5
ATOM      5  C   UNL     1     -17.375  13.588  35.507  0.00  0.00    +0.176 C 
ATOM      6  O   UNL     1     -17.324  13.044  36.855  0.00  0.00    -0.332 OA
ATOM      7  C   UNL     1     -18.300  11.991  37.152  0.00  0.00    +0.277 C 
ATOM      8  C   UNL     1     -18.187  10.842  36.119  0.00  0.00    +0.110 C 
ATOM      9  C   UNL     1     -18.206  11.375  34.671  0.00  0.00    +0.143 C 
ATOM     10  C   UNL     1     -17.154  12.467  34.474  0.00  0.00    +0.133 C 
BRANCH  10  11
ATOM     11  N   UNL     1     -17.240  13.027  33.116  0.00  0.00    -0.308 N 
ATOM     12  H   UNL     1     -16.414  12.985  32.536  0.00  0.00    +0.149 HD
ATOM     13  C   UNL     1     -18.338  13.586  32.601  0.00  0.00    +0.210 C 
ATOM     14  C   UNL     1     -19.572  13.657  33.520  0.00  0.00    +0.109 C 
ATOM     15  O   UNL     1     -18.385  14.034  31.454  0.00  0.00    -0.276 OA
ENDBRANCH  10  11
BRANCH   7  16
ATOM     16  C   UNL     1     -19.735  12.556  37.140  0.00  0.00    +0.414 C 
ATOM     17  O   UNL     1     -19.951  13.707  37.519  0.00  0.00    -0.240 OA
ATOM     18  O   UNL     1     -20.676  11.863  36.751  0.00  0.00    -0.240 OA
ENDBRANCH   7  16
BRANCH   9  19
ATOM     19  O   UNL     1     -17.949  10.305  33.761  0.00  0.00    -0.390 OA
ATOM     20  H   UNL     1     -17.640  10.662  32.925  0.00  0.00    +0.210 HD
ENDBRANCH   9  19
BRANCH   7  21
ATOM     21  O   UNL     1     -17.997  11.455  38.466  0.00  0.00    -0.343 OA
ATOM     22  C   UNL     1     -16.583  11.335  38.767  0.00  0.00    +0.198 C 
ENDBRANCH   7  21
ENDBRANCH   4   5
BRANCH   4  23
ATOM     23  O   UNL     1     -15.154  14.302  34.789  0.00  0.00    -0.387 OA
ATOM     24  H   UNL     1     -14.942  13.414  35.086  0.00  0.00    +0.210 HD
ENDBRANCH   4  23
ENDBRANCH   1   4
BRANCH   1  25
ATOM     25  C   UNL     1     -14.559  15.605  36.924  0.00  0.00    +0.141 C 
BRANCH  25  28
ATOM     26  C   UNL     1     -13.366  17.068  35.329  0.00  0.00    +0.401 C 
ATOM     27  O   UNL     1     -12.815  16.135  34.740  0.00  0.00    -0.226 OA
ATOM     28  N   UNL     1     -14.192  16.912  36.364  0.00  0.00    -0.279 N 
ATOM     29  H   UNL     1     -14.588  17.740  36.788  0.00  0.00    +0.152 HD
BRANCH  26  30
ATOM     30  O   UNL     1     -13.116  18.407  34.895  0.00  0.00    -0.444 OA
BRANCH  30  31
ATOM     31  C   UNL     1     -13.788  19.324  35.763  0.00  0.00    +0.292 C 
BRANCH  31  33
ATOM     32  N   UNL     1     -14.135  21.770  35.520  0.00  0.00    -0.131 NA
ATOM     33  C   UNL     1     -14.259  20.504  35.012  0.00  0.00    +0.120 A 
ATOM     34  C   UNL     1     -14.782  20.580  33.739  0.00  0.00    +0.137 A 
ATOM     35  N   UNL     1     -14.779  21.920  33.470  0.00  0.00    -0.251 N 
ATOM     36  N   UNL     1     -14.482  22.632  34.573  0.00  0.00    -0.065 NA
BRANCH  35  37
ATOM     37  C   UNL     1     -14.724  22.545  32.164  0.00  0.00    +0.149 C 
BRANCH  37  38
ATOM     38  C   UNL     1     -15.887  23.506  31.836  0.00  0.00    +0.021 C 
BRANCH  38  39
ATOM     39  C   UNL     1     -17.118  22.797  31.235  0.00  0.00    +0.125 C 
BRANCH  39  40
ATOM     40  C   UNL     1     -16.804  21.556  30.425  0.00  0.00    +0.305 C 
ATOM     41  O   UNL     1     -16.972  20.410  30.809  0.00  0.00    -0.251 OA
BRANCH  40  42
ATOM     42  O   UNL     1     -16.370  21.835  29.182  0.00  0.00    -0.481 OA
ATOM     43  H   UNL     1     -16.295  22.782  28.967  0.00  0.00    +0.295 HD
ENDBRANCH  40  42
ENDBRANCH  39  40
ENDBRANCH  38  39
BRANCH  38  44
ATOM     44  C   UNL     1     -15.354  24.664  30.941  0.00  0.00    +0.009 C 
BRANCH  44  45
ATOM     45  C   UNL     1     -15.987  26.050  31.185  0.00  0.00    -0.017 C 
ATOM     46  C   UNL     1     -16.238  26.318  32.671  0.00  0.00    +0.007 C 
ATOM     47  C   UNL     1     -15.089  27.158  30.623  0.00  0.00    +0.007 C 
ENDBRANCH  44  45
ENDBRANCH  38  44
ENDBRANCH  37  38
ENDBRANCH  35  37
ENDBRANCH  31  33
ENDBRANCH  30  31
ENDBRANCH  26  30
ENDBRANCH  25  28
ENDBRANCH   1  25
TORSDOF 20
