REMARK  Name = lig_assembled_12.pdb
REMARK  19 active torsions:
REMARK  status: ('A' for Active; 'I' for Inactive)
REMARK    1  A    between atoms: _2  and  _9
REMARK    2  A    between atoms: _4  and  _21
REMARK    3  A    between atoms: _6  and  _7
REMARK    4  A    between atoms: _6  and  _21
REMARK    5  A    between atoms: _9  and  _16
REMARK    6  A    between atoms: _10  and  _11
REMARK    7  A    between atoms: _10  and  _16
REMARK    8  A    between atoms: _17  and  _37
REMARK    9  A    between atoms: _19  and  _25
REMARK   10  A    between atoms: _20  and  _24
REMARK   11  A    between atoms: _24  and  _25
REMARK   12  A    between atoms: _27  and  _28
REMARK   13  A    between atoms: _29  and  _30
REMARK   14  A    between atoms: _31  and  _33
REMARK   15  A    between atoms: _33  and  _34
REMARK   16  A    between atoms: _33  and  _35
REMARK   17  A    between atoms: _35  and  _36
REMARK   18  A    between atoms: _35  and  _37
REMARK   19  A    between atoms: _38  and  _40
REMARK                            x       y       z     vdW  Elec       q    Type
REMARK                         _______ _______ _______ _____ _____    ______ ____
ROOT
ATOM      1  C   UNL     1     -12.076  11.115  33.507  0.00  0.00    +0.163 C 
ENDROOT
BRANCH   1   2
ATOM      2  O   UNL     1     -11.912  12.517  33.777  0.00  0.00    -0.388 OA
ATOM      3  H   UNL     1     -11.207  12.640  34.419  0.00  0.00    +0.210 HD
ENDBRANCH   1   2
BRANCH   1   4
ATOM      4  C   UNL     1     -13.293  10.869  32.599  0.00  0.00    +0.175 C 
BRANCH   4   5
ATOM      5  C   UNL     1     -14.620  11.049  33.349  0.00  0.00    +0.176 C 
ATOM      6  O   UNL     1     -15.365   9.804  33.245  0.00  0.00    -0.332 OA
ATOM      7  C   UNL     1     -16.623   9.753  33.996  0.00  0.00    +0.277 C 
ATOM      8  C   UNL     1     -17.534  10.942  33.607  0.00  0.00    +0.110 C 
ATOM      9  C   UNL     1     -16.777  12.285  33.672  0.00  0.00    +0.143 C 
ATOM     10  C   UNL     1     -15.484  12.226  32.858  0.00  0.00    +0.133 C 
BRANCH  10  11
ATOM     11  N   UNL     1     -14.728  13.481  32.999  0.00  0.00    -0.308 N 
ATOM     12  H   UNL     1     -14.371  13.716  33.914  0.00  0.00    +0.149 HD
ATOM     13  C   UNL     1     -14.485  14.329  31.996  0.00  0.00    +0.210 C 
ATOM     14  C   UNL     1     -15.066  13.955  30.620  0.00  0.00    +0.109 C 
ATOM     15  O   UNL     1     -13.837  15.366  32.140  0.00  0.00    -0.276 OA
ENDBRANCH  10  11
BRANCH   7  16
ATOM     16  C   UNL     1     -16.354   9.785  35.515  0.00  0.00    +0.414 C 
ATOM     17  O   UNL     1     -17.235  10.150  36.293  0.00  0.00    -0.240 OA
ATOM     18  O   UNL     1     -15.258   9.446  35.963  0.00  0.00    -0.240 OA
ENDBRANCH   7  16
BRANCH   9  19
ATOM     19  O   UNL     1     -17.606  13.331  33.162  0.00  0.00    -0.390 OA
ATOM     20  H   UNL     1     -17.058  14.074  32.897  0.00  0.00    +0.210 HD
ENDBRANCH   9  19
BRANCH   7  21
ATOM     21  O   UNL     1     -17.304   8.521  33.647  0.00  0.00    -0.343 OA
ATOM     22  C   UNL     1     -16.567   7.644  32.758  0.00  0.00    +0.198 C 
ENDBRANCH   7  21
ENDBRANCH   4   5
BRANCH   4  23
ATOM     23  O   UNL     1     -13.223   9.549  32.022  0.00  0.00    -0.387 OA
ATOM     24  H   UNL     1     -13.593   8.911  32.636  0.00  0.00    +0.210 HD
ENDBRANCH   4  23
ENDBRANCH   1   4
BRANCH   1  25
ATOM     25  C   UNL     1     -10.821  10.562  32.840  0.00  0.00    +0.141 C 
BRANCH  25  28
ATOM     26  C   UNL     1      -8.504  11.343  33.194  0.00  0.00    +0.401 C 
ATOM     27  O   UNL     1      -8.122  10.282  33.694  0.00  0.00    -0.226 OA
ATOM     28  N   UNL     1      -9.750  11.563  32.773  0.00  0.00    -0.279 N 
ATOM     29  H   UNL     1      -9.969  12.471  32.386  0.00  0.00    +0.152 HD
BRANCH  26  30
ATOM     30  O   UNL     1      -7.572  12.418  33.052  0.00  0.00    -0.444 OA
BRANCH  30  31
ATOM     31  C   UNL     1      -6.984  12.712  34.322  0.00  0.00    +0.292 C 
BRANCH  31  33
ATOM     32  N   UNL     1      -4.768  11.633  34.051  0.00  0.00    -0.131 NA
ATOM     33  C   UNL     1      -5.515  12.772  34.208  0.00  0.00    +0.120 A 
ATOM     34  C   UNL     1      -4.674  13.860  34.235  0.00  0.00    +0.139 A 
ATOM     35  N   UNL     1      -3.428  13.318  34.119  0.00  0.00    -0.226 N 
ATOM     36  N   UNL     1      -3.489  11.980  33.986  0.00  0.00    -0.063 NA
BRANCH  35  37
ATOM     37  C   UNL     1      -2.145  13.997  34.077  0.00  0.00    +0.305 C 
BRANCH  37  38
ATOM     38  O   UNL     1      -2.182  15.123  34.952  0.00  0.00    -0.353 OA
BRANCH  38  39
ATOM     39  C   UNL     1      -1.173  16.071  34.632  0.00  0.00    +0.197 C 
BRANCH  39  40
ATOM     40  C   UNL     1      -0.759  16.742  35.914  0.00  0.00    -0.022 A 
ATOM     41  C   UNL     1      -0.947  16.101  37.146  0.00  0.00    +0.006 A 
ATOM     42  C   UNL     1      -0.599  16.740  38.337  0.00  0.00    +0.000 A 
ATOM     43  C   UNL     1      -0.070  18.029  38.309  0.00  0.00    +0.000 A 
ATOM     44  C   UNL     1       0.111  18.681  37.091  0.00  0.00    +0.000 A 
ATOM     45  C   UNL     1      -0.235  18.043  35.898  0.00  0.00    +0.006 A 
ENDBRANCH  39  40
ENDBRANCH  38  39
ENDBRANCH  37  38
ENDBRANCH  35  37
ENDBRANCH  31  33
ENDBRANCH  30  31
ENDBRANCH  26  30
ENDBRANCH  25  28
ENDBRANCH   1  25
TORSDOF 17
