REMARK  Name = lig_assembled_42.pdb
REMARK  16 active torsions:
REMARK  status: ('A' for Active; 'I' for Inactive)
REMARK    1  A    between atoms: _2  and  _9
REMARK    2  A    between atoms: _4  and  _21
REMARK    3  A    between atoms: _6  and  _7
REMARK    4  A    between atoms: _6  and  _21
REMARK    5  A    between atoms: _17  and  _37
REMARK    6  A    between atoms: _19  and  _25
REMARK    7  A    between atoms: _20  and  _24
REMARK    8  A    between atoms: _24  and  _25
REMARK    9  A    between atoms: _27  and  _28
REMARK   10  A    between atoms: _29  and  _30
REMARK   11  A    between atoms: _31  and  _33
REMARK   12  A    between atoms: _33  and  _34
REMARK   13  A    between atoms: _33  and  _35
REMARK   14  A    between atoms: _35  and  _36
REMARK   15  A    between atoms: _35  and  _37
REMARK   16  A    between atoms: _38  and  _40
REMARK                            x       y       z     vdW  Elec       q    Type
REMARK                         _______ _______ _______ _____ _____    ______ ____
ROOT
ATOM      1  C   UNL     1     -16.436  11.783  40.430  0.00  0.00    +0.163 C 
ENDROOT
BRANCH   1   2
ATOM      2  O   UNL     1     -17.442  12.591  41.064  0.00  0.00    -0.388 OA
ATOM      3  H   UNL     1     -17.297  12.598  42.013  0.00  0.00    +0.210 HD
ENDBRANCH   1   2
BRANCH   1   4
ATOM      4  C   UNL     1     -15.062  12.415  40.624  0.00  0.00    +0.141 C 
BRANCH   4   7
ATOM      5  C   UNL     1     -12.870  11.276  40.537  0.00  0.00    +0.401 C 
ATOM      6  O   UNL     1     -12.579  11.544  41.705  0.00  0.00    -0.226 OA
ATOM      7  N   UNL     1     -14.007  11.649  39.948  0.00  0.00    -0.279 N 
ATOM      8  H   UNL     1     -14.151  11.390  38.982  0.00  0.00    +0.152 HD
BRANCH   5   9
ATOM      9  O   UNL     1     -11.946  10.525  39.746  0.00  0.00    -0.444 OA
BRANCH   9  10
ATOM     10  C   UNL     1     -10.659  11.147  39.796  0.00  0.00    +0.292 C 
BRANCH  10  12
ATOM     11  N   UNL     1     -10.339  12.092  37.525  0.00  0.00    -0.131 NA
ATOM     12  C   UNL     1     -10.032  11.149  38.461  0.00  0.00    +0.121 A 
ATOM     13  C   UNL     1      -9.103  10.283  37.935  0.00  0.00    +0.143 A 
ATOM     14  N   UNL     1      -8.866  10.741  36.661  0.00  0.00    -0.220 N 
ATOM     15  N   UNL     1      -9.627  11.840  36.433  0.00  0.00    -0.060 NA
BRANCH  14  16
ATOM     16  C   UNL     1      -7.989  10.205  35.685  0.00  0.00    +0.071 A 
ATOM     17  C   UNL     1      -7.248   9.047  35.966  0.00  0.00    +0.077 A 
ATOM     18  C   UNL     1      -6.410   8.566  34.984  0.00  0.00    +0.168 A 
ATOM     19  O   UNL     1      -5.630   7.458  35.095  0.00  0.00    -0.453 OA
ATOM     20  C   UNL     1      -5.001   7.442  33.797  0.00  0.00    +0.466 C 
ATOM     21  O   UNL     1      -5.409   8.536  32.948  0.00  0.00    -0.453 OA
ATOM     22  C   UNL     1      -6.286   9.181  33.762  0.00  0.00    +0.166 A 
ATOM     23  C   UNL     1      -6.997  10.320  33.451  0.00  0.00    +0.051 A 
ATOM     24  C   UNL     1      -7.860  10.840  34.426  0.00  0.00    +0.031 A 
ENDBRANCH  14  16
ENDBRANCH  10  12
ENDBRANCH   9  10
ENDBRANCH   5   9
ENDBRANCH   4   7
ENDBRANCH   1   4
BRANCH   1  25
ATOM     25  C   UNL     1     -16.723  11.626  38.927  0.00  0.00    +0.175 C 
BRANCH  25  26
ATOM     26  C   UNL     1     -17.039  12.971  38.256  0.00  0.00    +0.176 C 
ATOM     27  O   UNL     1     -18.440  13.275  38.502  0.00  0.00    -0.332 OA
ATOM     28  C   UNL     1     -18.898  14.582  38.021  0.00  0.00    +0.277 C 
ATOM     29  C   UNL     1     -18.585  14.745  36.514  0.00  0.00    +0.110 C 
ATOM     30  C   UNL     1     -17.114  14.401  36.198  0.00  0.00    +0.143 C 
ATOM     31  C   UNL     1     -16.743  13.022  36.745  0.00  0.00    +0.133 C 
BRANCH  31  32
ATOM     32  N   UNL     1     -15.317  12.743  36.515  0.00  0.00    -0.308 N 
ATOM     33  H   UNL     1     -14.640  13.362  36.939  0.00  0.00    +0.149 HD
ATOM     34  C   UNL     1     -14.858  11.725  35.781  0.00  0.00    +0.210 C 
ATOM     35  C   UNL     1     -15.915  10.816  35.127  0.00  0.00    +0.109 C 
ATOM     36  O   UNL     1     -13.657  11.507  35.617  0.00  0.00    -0.276 OA
ENDBRANCH  31  32
BRANCH  28  37
ATOM     37  C   UNL     1     -18.227  15.723  38.814  0.00  0.00    +0.414 C 
ATOM     38  O   UNL     1     -17.828  15.529  39.962  0.00  0.00    -0.240 OA
ATOM     39  O   UNL     1     -18.084  16.835  38.306  0.00  0.00    -0.240 OA
ENDBRANCH  28  37
BRANCH  30  40
ATOM     40  O   UNL     1     -16.908  14.417  34.785  0.00  0.00    -0.390 OA
ATOM     41  H   UNL     1     -16.126  13.905  34.569  0.00  0.00    +0.210 HD
ENDBRANCH  30  40
BRANCH  28  42
ATOM     42  O   UNL     1     -20.337  14.645  38.199  0.00  0.00    -0.343 OA
ATOM     43  C   UNL     1     -21.014  13.363  38.174  0.00  0.00    +0.198 C 
ENDBRANCH  28  42
ENDBRANCH  25  26
BRANCH  25  44
ATOM     44  O   UNL     1     -17.809  10.701  38.722  0.00  0.00    -0.387 OA
ATOM     45  H   UNL     1     -18.646  11.167  38.800  0.00  0.00    +0.210 HD
ENDBRANCH  25  44
ENDBRANCH   1  25
TORSDOF 14
