REMARK  Name = lig_assembled_75.pdb
REMARK  19 active torsions:
REMARK  status: ('A' for Active; 'I' for Inactive)
REMARK    1  A    between atoms: _2  and  _9
REMARK    2  A    between atoms: _4  and  _23
REMARK    3  A    between atoms: _6  and  _7
REMARK    4  A    between atoms: _6  and  _23
REMARK    5  A    between atoms: _11  and  _12
REMARK    6  A    between atoms: _13  and  _14
REMARK    7  A    between atoms: _14  and  _17
REMARK    8  A    between atoms: _19  and  _39
REMARK    9  A    between atoms: _21  and  _27
REMARK   10  A    between atoms: _22  and  _26
REMARK   11  A    between atoms: _26  and  _27
REMARK   12  A    between atoms: _29  and  _30
REMARK   13  A    between atoms: _31  and  _32
REMARK   14  A    between atoms: _33  and  _35
REMARK   15  A    between atoms: _35  and  _36
REMARK   16  A    between atoms: _35  and  _37
REMARK   17  A    between atoms: _37  and  _38
REMARK   18  A    between atoms: _37  and  _39
REMARK   19  A    between atoms: _40  and  _42
REMARK                            x       y       z     vdW  Elec       q    Type
REMARK                         _______ _______ _______ _____ _____    ______ ____
ROOT
ATOM      1  C   UNL     1      -9.951   1.626  25.796  0.00  0.00    +0.141 C 
ENDROOT
BRANCH   1   4
ATOM      2  C   UNL     1      -8.784   1.321  23.639  0.00  0.00    +0.401 C 
ATOM      3  O   UNL     1      -8.083   2.328  23.769  0.00  0.00    -0.226 OA
ATOM      4  N   UNL     1      -9.688   0.922  24.534  0.00  0.00    -0.279 N 
ATOM      5  H   UNL     1     -10.222   0.088  24.334  0.00  0.00    +0.152 HD
BRANCH   2   6
ATOM      6  O   UNL     1      -8.640   0.521  22.463  0.00  0.00    -0.444 OA
BRANCH   6   7
ATOM      7  C   UNL     1      -8.161  -0.777  22.824  0.00  0.00    +0.292 C 
BRANCH   7   9
ATOM      8  N   UNL     1      -5.970  -1.763  23.413  0.00  0.00    -0.131 NA
ATOM      9  C   UNL     1      -6.689  -0.826  22.729  0.00  0.00    +0.121 A 
ATOM     10  C   UNL     1      -5.826  -0.028  22.016  0.00  0.00    +0.143 A 
ATOM     11  N   UNL     1      -4.572  -0.518  22.297  0.00  0.00    -0.220 N 
ATOM     12  N   UNL     1      -4.686  -1.569  23.148  0.00  0.00    -0.060 NA
BRANCH  11  13
ATOM     13  C   UNL     1      -3.311  -0.050  21.848  0.00  0.00    +0.068 A 
ATOM     14  C   UNL     1      -2.775   1.125  22.403  0.00  0.00    +0.035 A 
ATOM     15  C   UNL     1      -1.563   1.652  21.935  0.00  0.00    -0.023 A 
ATOM     16  C   UNL     1      -0.860   0.950  20.949  0.00  0.00    +0.008 A 
ATOM     17  C   UNL     1      -1.376  -0.231  20.410  0.00  0.00    +0.003 A 
ATOM     18  C   UNL     1      -2.603  -0.728  20.850  0.00  0.00    +0.028 A 
BRANCH  15  19
ATOM     19  C   UNL     1      -0.992   2.903  22.457  0.00  0.00    +0.015 C 
ATOM     20  C   UNL     1      -1.643   3.730  23.292  0.00  0.00    +0.092 C 
BRANCH  20  21
ATOM     21  C   UNL     1      -1.005   4.990  23.718  0.00  0.00    +0.330 C 
ATOM     22  O   UNL     1      -0.014   5.476  23.201  0.00  0.00    -0.246 OA
BRANCH  21  23
ATOM     23  O   UNL     1      -1.657   5.561  24.751  0.00  0.00    -0.478 OA
ATOM     24  H   UNL     1      -2.431   5.072  25.083  0.00  0.00    +0.295 HD
ENDBRANCH  21  23
ENDBRANCH  20  21
ENDBRANCH  15  19
ENDBRANCH  11  13
ENDBRANCH   7   9
ENDBRANCH   6   7
ENDBRANCH   2   6
ENDBRANCH   1   4
BRANCH   1  25
ATOM     25  C   UNL     1      -9.864   0.691  26.998  0.00  0.00    +0.163 C 
BRANCH  25  26
ATOM     26  O   UNL     1     -10.250  -0.639  26.615  0.00  0.00    -0.388 OA
ATOM     27  H   UNL     1     -11.175  -0.643  26.356  0.00  0.00    +0.210 HD
ENDBRANCH  25  26
BRANCH  25  28
ATOM     28  C   UNL     1      -8.432   0.709  27.559  0.00  0.00    +0.175 C 
BRANCH  28  29
ATOM     29  C   UNL     1      -7.989   2.121  27.969  0.00  0.00    +0.176 C 
ATOM     30  O   UNL     1      -6.897   2.518  27.095  0.00  0.00    -0.332 OA
ATOM     31  C   UNL     1      -6.411   3.890  27.270  0.00  0.00    +0.277 C 
ATOM     32  C   UNL     1      -6.017   4.139  28.747  0.00  0.00    +0.110 C 
ATOM     33  C   UNL     1      -7.135   3.702  29.717  0.00  0.00    +0.143 C 
ATOM     34  C   UNL     1      -7.566   2.261  29.443  0.00  0.00    +0.133 C 
BRANCH  34  35
ATOM     35  N   UNL     1      -8.690   1.885  30.315  0.00  0.00    -0.308 N 
ATOM     36  H   UNL     1      -8.560   1.104  30.942  0.00  0.00    +0.149 HD
ATOM     37  C   UNL     1      -9.871   2.509  30.331  0.00  0.00    +0.210 C 
ATOM     38  C   UNL     1     -10.047   3.679  29.345  0.00  0.00    +0.109 C 
ATOM     39  O   UNL     1     -10.790   2.182  31.083  0.00  0.00    -0.276 OA
ENDBRANCH  34  35
BRANCH  31  40
ATOM     40  C   UNL     1      -7.488   4.910  26.845  0.00  0.00    +0.414 C 
ATOM     41  O   UNL     1      -8.139   4.732  25.817  0.00  0.00    -0.240 OA
ATOM     42  O   UNL     1      -7.705   5.911  27.530  0.00  0.00    -0.240 OA
ENDBRANCH  31  40
BRANCH  31  43
ATOM     43  O   UNL     1      -5.228   4.056  26.447  0.00  0.00    -0.343 OA
ATOM     44  C   UNL     1      -3.984   3.657  27.074  0.00  0.00    +0.198 C 
ENDBRANCH  31  43
BRANCH  33  45
ATOM     45  O   UNL     1      -6.672   3.807  31.064  0.00  0.00    -0.390 OA
ATOM     46  H   UNL     1      -7.210   3.251  31.632  0.00  0.00    +0.210 HD
ENDBRANCH  33  45
ENDBRANCH  28  29
BRANCH  28  47
ATOM     47  O   UNL     1      -7.513   0.160  26.593  0.00  0.00    -0.387 OA
ATOM     48  H   UNL     1      -7.246   0.848  25.979  0.00  0.00    +0.210 HD
ENDBRANCH  28  47
ENDBRANCH  25  28
ENDBRANCH   1  25
TORSDOF 17
