REMARK  Name = lig_assembled_49.pdb
REMARK  16 active torsions:
REMARK  status: ('A' for Active; 'I' for Inactive)
REMARK    1  A    between atoms: _2  and  _9
REMARK    2  A    between atoms: _4  and  _17
REMARK    3  A    between atoms: _6  and  _7
REMARK    4  A    between atoms: _6  and  _17
REMARK    5  A    between atoms: _13  and  _33
REMARK    6  A    between atoms: _15  and  _21
REMARK    7  A    between atoms: _16  and  _20
REMARK    8  A    between atoms: _20  and  _21
REMARK    9  A    between atoms: _23  and  _24
REMARK   10  A    between atoms: _25  and  _26
REMARK   11  A    between atoms: _27  and  _29
REMARK   12  A    between atoms: _29  and  _30
REMARK   13  A    between atoms: _29  and  _31
REMARK   14  A    between atoms: _31  and  _32
REMARK   15  A    between atoms: _31  and  _33
REMARK   16  A    between atoms: _34  and  _36
REMARK                            x       y       z     vdW  Elec       q    Type
REMARK                         _______ _______ _______ _____ _____    ______ ____
ROOT
ATOM      1  C   UNL     1     -12.129  -0.407  27.651  0.00  0.00    +0.175 C 
ENDROOT
BRANCH   1   2
ATOM      2  C   UNL     1     -13.574  -0.889  27.853  0.00  0.00    +0.176 C 
ATOM      3  O   UNL     1     -13.536  -2.074  28.694  0.00  0.00    -0.332 OA
ATOM      4  C   UNL     1     -14.841  -2.617  29.083  0.00  0.00    +0.277 C 
ATOM      5  C   UNL     1     -15.709  -2.891  27.830  0.00  0.00    +0.110 C 
ATOM      6  C   UNL     1     -15.753  -1.669  26.890  0.00  0.00    +0.143 C 
ATOM      7  C   UNL     1     -14.342  -1.186  26.552  0.00  0.00    +0.133 C 
BRANCH   7   8
ATOM      8  N   UNL     1     -14.398   0.031  25.726  0.00  0.00    -0.308 N 
ATOM      9  H   UNL     1     -14.048  -0.025  24.780  0.00  0.00    +0.149 HD
ATOM     10  C   UNL     1     -14.881   1.204  26.145  0.00  0.00    +0.210 C 
ATOM     11  C   UNL     1     -15.383   1.263  27.600  0.00  0.00    +0.109 C 
ATOM     12  O   UNL     1     -14.929   2.202  25.426  0.00  0.00    -0.276 OA
ENDBRANCH   7   8
BRANCH   4  13
ATOM     13  C   UNL     1     -15.582  -1.640  30.020  0.00  0.00    +0.414 C 
ATOM     14  O   UNL     1     -14.953  -0.959  30.829  0.00  0.00    -0.240 OA
ATOM     15  O   UNL     1     -16.808  -1.533  29.967  0.00  0.00    -0.240 OA
ENDBRANCH   4  13
BRANCH   6  16
ATOM     16  O   UNL     1     -16.433  -2.015  25.683  0.00  0.00    -0.390 OA
ATOM     17  H   UNL     1     -16.188  -1.399  24.988  0.00  0.00    +0.210 HD
ENDBRANCH   6  16
BRANCH   4  18
ATOM     18  O   UNL     1     -14.617  -3.876  29.769  0.00  0.00    -0.343 OA
ATOM     19  C   UNL     1     -13.426  -4.594  29.358  0.00  0.00    +0.198 C 
ENDBRANCH   4  18
ENDBRANCH   1   2
BRANCH   1  20
ATOM     20  O   UNL     1     -11.503  -1.150  26.586  0.00  0.00    -0.387 OA
ATOM     21  H   UNL     1     -11.769  -2.071  26.638  0.00  0.00    +0.210 HD
ENDBRANCH   1  20
BRANCH   1  22
ATOM     22  C   UNL     1     -11.296  -0.521  28.939  0.00  0.00    +0.163 C 
BRANCH  22  23
ATOM     23  O   UNL     1     -11.133   0.764  29.561  0.00  0.00    -0.388 OA
ATOM     24  H   UNL     1     -10.693   0.657  30.407  0.00  0.00    +0.210 HD
ENDBRANCH  22  23
BRANCH  22  25
ATOM     25  C   UNL     1      -9.931  -1.118  28.611  0.00  0.00    +0.141 C 
BRANCH  25  28
ATOM     26  C   UNL     1      -8.132   0.464  28.007  0.00  0.00    +0.401 C 
ATOM     27  O   UNL     1      -7.688   0.544  29.155  0.00  0.00    -0.226 OA
ATOM     28  N   UNL     1      -9.181  -0.284  27.664  0.00  0.00    -0.279 N 
ATOM     29  H   UNL     1      -9.477  -0.276  26.698  0.00  0.00    +0.152 HD
BRANCH  26  30
ATOM     30  O   UNL     1      -7.502   1.215  26.965  0.00  0.00    -0.444 OA
BRANCH  30  31
ATOM     31  C   UNL     1      -7.857   2.594  27.089  0.00  0.00    +0.292 C 
BRANCH  31  33
ATOM     32  N   UNL     1      -5.756   3.899  27.055  0.00  0.00    -0.131 NA
ATOM     33  C   UNL     1      -6.868   3.443  26.398  0.00  0.00    +0.120 A 
ATOM     34  C   UNL     1      -6.852   3.913  25.104  0.00  0.00    +0.137 A 
ATOM     35  N   UNL     1      -5.708   4.654  25.038  0.00  0.00    -0.248 N 
ATOM     36  N   UNL     1      -5.052   4.640  26.211  0.00  0.00    -0.065 NA
BRANCH  35  37
ATOM     37  C   UNL     1      -5.206   5.403  23.911  0.00  0.00    +0.109 C 
ATOM     38  C   UNL     1      -5.840   5.011  22.575  0.00  0.00    +0.027 C 
ATOM     39  C   UNL     1      -5.497   6.189  21.679  0.00  0.00    +0.002 C 
ATOM     40  C   UNL     1      -5.667   7.406  22.579  0.00  0.00    +0.002 C 
ATOM     41  C   UNL     1      -5.417   6.919  24.009  0.00  0.00    +0.027 C 
ENDBRANCH  35  37
ENDBRANCH  31  33
ENDBRANCH  30  31
ENDBRANCH  26  30
ENDBRANCH  25  28
ENDBRANCH  22  25
ENDBRANCH   1  22
TORSDOF 14
