REMARK  Name = lig_assembled_59.pdb
REMARK  18 active torsions:
REMARK  status: ('A' for Active; 'I' for Inactive)
REMARK    1  A    between atoms: _2  and  _10
REMARK    2  A    between atoms: _5  and  _20
REMARK    3  A    between atoms: _7  and  _8
REMARK    4  A    between atoms: _7  and  _20
REMARK    5  A    between atoms: _13  and  _14
REMARK    6  A    between atoms: _14  and  _15
REMARK    7  A    between atoms: _16  and  _36
REMARK    8  A    between atoms: _18  and  _24
REMARK    9  A    between atoms: _19  and  _23
REMARK   10  A    between atoms: _23  and  _24
REMARK   11  A    between atoms: _26  and  _27
REMARK   12  A    between atoms: _28  and  _29
REMARK   13  A    between atoms: _30  and  _32
REMARK   14  A    between atoms: _32  and  _33
REMARK   15  A    between atoms: _32  and  _34
REMARK   16  A    between atoms: _34  and  _35
REMARK   17  A    between atoms: _34  and  _36
REMARK   18  A    between atoms: _37  and  _39
REMARK                            x       y       z     vdW  Elec       q    Type
REMARK                         _______ _______ _______ _____ _____    ______ ____
ROOT
ATOM      1  C   UNL     1     -11.743  -0.121  26.083  0.00  0.00    +0.163 C 
ENDROOT
BRANCH   1   2
ATOM      2  O   UNL     1     -10.905   0.935  25.585  0.00  0.00    -0.388 OA
ATOM      3  H   UNL     1     -11.178   1.770  25.971  0.00  0.00    +0.210 HD
ENDBRANCH   1   2
BRANCH   1   4
ATOM      4  C   UNL     1     -11.433  -1.451  25.375  0.00  0.00    +0.175 C 
BRANCH   4   5
ATOM      5  C   UNL     1     -11.319  -1.282  23.853  0.00  0.00    +0.176 C 
ATOM      6  O   UNL     1     -12.212  -0.206  23.454  0.00  0.00    -0.332 OA
ATOM      7  C   UNL     1     -12.158   0.171  22.038  0.00  0.00    +0.277 C 
ATOM      8  C   UNL     1     -12.397  -1.067  21.140  0.00  0.00    +0.110 C 
ATOM      9  C   UNL     1     -11.492  -2.249  21.546  0.00  0.00    +0.143 C 
ATOM     10  C   UNL     1     -11.624  -2.553  23.039  0.00  0.00    +0.133 C 
BRANCH  10  11
ATOM     11  N   UNL     1     -10.694  -3.623  23.431  0.00  0.00    -0.308 N 
ATOM     12  H   UNL     1     -11.082  -4.453  23.856  0.00  0.00    +0.149 HD
ATOM     13  C   UNL     1      -9.370  -3.569  23.262  0.00  0.00    +0.210 C 
ATOM     14  C   UNL     1      -8.807  -2.279  22.635  0.00  0.00    +0.109 C 
ATOM     15  O   UNL     1      -8.616  -4.487  23.587  0.00  0.00    -0.276 OA
ENDBRANCH  10  11
BRANCH   7  16
ATOM     16  C   UNL     1     -10.795   0.804  21.692  0.00  0.00    +0.414 C 
ATOM     17  O   UNL     1     -10.213   1.512  22.513  0.00  0.00    -0.240 OA
ATOM     18  O   UNL     1     -10.276   0.607  20.592  0.00  0.00    -0.240 OA
ENDBRANCH   7  16
BRANCH   7  19
ATOM     19  O   UNL     1     -13.219   1.129  21.788  0.00  0.00    -0.343 OA
ATOM     20  C   UNL     1     -13.978   0.899  20.575  0.00  0.00    +0.198 C 
ENDBRANCH   7  19
BRANCH   9  21
ATOM     21  O   UNL     1     -11.850  -3.410  20.796  0.00  0.00    -0.390 OA
ATOM     22  H   UNL     1     -11.539  -4.195  21.252  0.00  0.00    +0.210 HD
ENDBRANCH   9  21
ENDBRANCH   4   5
BRANCH   4  23
ATOM     23  O   UNL     1     -12.442  -2.430  25.692  0.00  0.00    -0.387 OA
ATOM     24  H   UNL     1     -13.189  -2.325  25.097  0.00  0.00    +0.210 HD
ENDBRANCH   4  23
ENDBRANCH   1   4
BRANCH   1  25
ATOM     25  C   UNL     1     -11.540  -0.284  27.586  0.00  0.00    +0.141 C 
BRANCH  25  28
ATOM     26  C   UNL     1      -9.799   1.059  28.714  0.00  0.00    +0.401 C 
ATOM     27  O   UNL     1      -8.971   0.146  28.728  0.00  0.00    -0.226 OA
ATOM     28  N   UNL     1     -11.027   0.944  28.205  0.00  0.00    -0.279 N 
ATOM     29  H   UNL     1     -11.638   1.747  28.249  0.00  0.00    +0.152 HD
BRANCH  26  30
ATOM     30  O   UNL     1      -9.446   2.326  29.275  0.00  0.00    -0.444 OA
BRANCH  30  31
ATOM     31  C   UNL     1     -10.332   3.333  28.778  0.00  0.00    +0.292 C 
BRANCH  31  33
ATOM     32  N   UNL     1     -10.220   5.269  27.245  0.00  0.00    -0.131 NA
ATOM     33  C   UNL     1      -9.686   4.091  27.690  0.00  0.00    +0.121 A 
ATOM     34  C   UNL     1      -8.546   3.814  26.972  0.00  0.00    +0.145 A 
ATOM     35  N   UNL     1      -8.422   4.863  26.089  0.00  0.00    -0.202 N 
ATOM     36  N   UNL     1      -9.446   5.735  26.275  0.00  0.00    -0.059 NA
BRANCH  35  37
ATOM     37  C   UNL     1      -7.413   5.048  25.106  0.00  0.00    +0.156 A 
ATOM     38  C   UNL     1      -6.410   4.089  24.974  0.00  0.00    +0.048 A 
ATOM     39  C   UNL     1      -5.401   4.299  24.037  0.00  0.00    +0.011 A 
ATOM     40  C   UNL     1      -5.410   5.450  23.247  0.00  0.00    -0.004 A 
ATOM     41  C   UNL     1      -6.451   6.352  23.448  0.00  0.00    +0.119 A 
ATOM     42  N   UNL     1      -7.451   6.177  24.345  0.00  0.00    -0.236 NA
BRANCH  40  43
ATOM     43  C   UNL     1      -4.283   5.740  22.299  0.00  0.00    +0.192 C 
BRANCH  43  44
ATOM     44  O   UNL     1      -4.186   7.129  22.019  0.00  0.00    -0.390 OA
ATOM     45  H   UNL     1      -4.941   7.356  21.448  0.00  0.00    +0.210 HD
ENDBRANCH  43  44
ENDBRANCH  40  43
ENDBRANCH  35  37
ENDBRANCH  31  33
ENDBRANCH  30  31
ENDBRANCH  26  30
ENDBRANCH  25  28
ENDBRANCH   1  25
TORSDOF 16
