REMARK  Name = lig_assembled_45.pdb
REMARK  24 active torsions:
REMARK  status: ('A' for Active; 'I' for Inactive)
REMARK    1  A    between atoms: _2  and  _10
REMARK    2  A    between atoms: _3  and  _12
REMARK    3  A    between atoms: _3  and  _13
REMARK    4  A    between atoms: _3  and  _14
REMARK    5  A    between atoms: _3  and  _16
REMARK    6  A    between atoms: _5  and  _21
REMARK    7  A    between atoms: _6  and  _16
REMARK    8  A    between atoms: _7  and  _8
REMARK    9  A    between atoms: _7  and  _21
REMARK   10  A    between atoms: _10  and  _11
REMARK   11  A    between atoms: _11  and  _12
REMARK   12  A    between atoms: _14  and  _15
REMARK   13  A    between atoms: _17  and  _37
REMARK   14  A    between atoms: _19  and  _25
REMARK   15  A    between atoms: _20  and  _24
REMARK   16  A    between atoms: _24  and  _25
REMARK   17  A    between atoms: _27  and  _28
REMARK   18  A    between atoms: _29  and  _30
REMARK   19  A    between atoms: _31  and  _33
REMARK   20  A    between atoms: _33  and  _34
REMARK   21  A    between atoms: _33  and  _35
REMARK   22  A    between atoms: _35  and  _36
REMARK   23  A    between atoms: _35  and  _37
REMARK   24  A    between atoms: _38  and  _40
REMARK                            x       y       z     vdW  Elec       q    Type
REMARK                         _______ _______ _______ _____ _____    ______ ____
ROOT
ATOM      1  C   UNL     1     -14.849  16.163  36.490  0.00  0.00    +0.163 C 
ENDROOT
BRANCH   1   2
ATOM      2  O   UNL     1     -15.448  15.018  35.862  0.00  0.00    -0.388 OA
ATOM      3  H   UNL     1     -14.998  14.834  35.034  0.00  0.00    +0.210 HD
ENDBRANCH   1   2
BRANCH   1   4
ATOM      4  C   UNL     1     -15.637  16.579  37.744  0.00  0.00    +0.175 C 
BRANCH   4   5
ATOM      5  C   UNL     1     -15.011  17.793  38.445  0.00  0.00    +0.176 C 
ATOM      6  O   UNL     1     -14.714  17.414  39.817  0.00  0.00    -0.332 OA
ATOM      7  C   UNL     1     -14.010  18.422  40.615  0.00  0.00    +0.277 C 
ATOM      8  C   UNL     1     -14.785  19.763  40.599  0.00  0.00    +0.110 C 
ATOM      9  C   UNL     1     -15.150  20.191  39.162  0.00  0.00    +0.143 C 
ATOM     10  C   UNL     1     -15.876  19.067  38.422  0.00  0.00    +0.133 C 
BRANCH  10  11
ATOM     11  N   UNL     1     -16.142  19.456  37.028  0.00  0.00    -0.308 N 
ATOM     12  H   UNL     1     -15.349  19.662  36.436  0.00  0.00    +0.149 HD
ATOM     13  C   UNL     1     -17.362  19.553  36.493  0.00  0.00    +0.210 C 
ATOM     14  C   UNL     1     -18.550  19.258  37.428  0.00  0.00    +0.109 C 
ATOM     15  O   UNL     1     -17.554  19.867  35.318  0.00  0.00    -0.276 OA
ENDBRANCH  10  11
BRANCH   7  16
ATOM     16  C   UNL     1     -12.582  18.645  40.078  0.00  0.00    +0.414 C 
ATOM     17  O   UNL     1     -12.116  19.782  40.008  0.00  0.00    -0.240 OA
ATOM     18  O   UNL     1     -11.895  17.689  39.715  0.00  0.00    -0.240 OA
ENDBRANCH   7  16
BRANCH   9  19
ATOM     19  O   UNL     1     -15.990  21.346  39.202  0.00  0.00    -0.390 OA
ATOM     20  H   UNL     1     -16.473  21.420  38.377  0.00  0.00    +0.210 HD
ENDBRANCH   9  19
BRANCH   7  21
ATOM     21  O   UNL     1     -13.948  17.947  41.985  0.00  0.00    -0.343 OA
ATOM     22  C   UNL     1     -14.760  16.779  42.265  0.00  0.00    +0.198 C 
ENDBRANCH   7  21
ENDBRANCH   4   5
BRANCH   4  23
ATOM     23  O   UNL     1     -15.732  15.470  38.661  0.00  0.00    -0.387 OA
ATOM     24  H   UNL     1     -14.943  15.438  39.208  0.00  0.00    +0.210 HD
ENDBRANCH   4  23
ENDBRANCH   1   4
BRANCH   1  25
ATOM     25  C   UNL     1     -13.406  15.852  36.875  0.00  0.00    +0.141 C 
BRANCH  25  28
ATOM     26  C   UNL     1     -12.321  14.000  38.098  0.00  0.00    +0.401 C 
ATOM     27  O   UNL     1     -11.536  14.734  38.702  0.00  0.00    -0.226 OA
ATOM     28  N   UNL     1     -13.225  14.437  37.221  0.00  0.00    -0.279 N 
ATOM     29  H   UNL     1     -13.819  13.756  36.768  0.00  0.00    +0.152 HD
BRANCH  26  30
ATOM     30  O   UNL     1     -12.275  12.590  38.333  0.00  0.00    -0.444 OA
BRANCH  30  31
ATOM     31  C   UNL     1     -13.493  12.169  38.952  0.00  0.00    +0.292 C 
BRANCH  31  33
ATOM     32  N   UNL     1     -14.447  13.091  41.048  0.00  0.00    -0.131 NA
ATOM     33  C   UNL     1     -13.441  12.420  40.405  0.00  0.00    +0.120 A 
ATOM     34  C   UNL     1     -12.473  12.074  41.321  0.00  0.00    +0.137 A 
ATOM     35  N   UNL     1     -12.960  12.564  42.494  0.00  0.00    -0.251 N 
ATOM     36  N   UNL     1     -14.135  13.177  42.335  0.00  0.00    -0.065 NA
BRANCH  35  37
ATOM     37  C   UNL     1     -12.333  12.499  43.799  0.00  0.00    +0.150 C 
BRANCH  37  38
ATOM     38  C   UNL     1     -11.989  13.872  44.360  0.00  0.00    +0.074 C 
BRANCH  38  39
ATOM     39  C   UNL     1     -10.498  14.216  44.480  0.00  0.00    +0.134 C 
BRANCH  39  40
ATOM     40  N   UNL     1      -9.947  15.403  43.623  0.00  0.00    +0.241 N 
ATOM     41  C   UNL     1     -10.970  15.736  42.524  0.00  0.00    +0.192 C 
BRANCH  40  42
ATOM     42  C   UNL     1      -8.641  14.876  42.942  0.00  0.00    +0.129 C 
ATOM     43  C   UNL     1      -8.181  13.515  43.453  0.00  0.00    +0.060 C 
ENDBRANCH  40  42
BRANCH  40  44
ATOM     44  C   UNL     1      -9.636  16.685  44.419  0.00  0.00    +0.129 C 
ATOM     45  C   UNL     1     -10.856  17.534  44.734  0.00  0.00    +0.060 C 
ENDBRANCH  40  44
ENDBRANCH  39  40
ENDBRANCH  38  39
ENDBRANCH  37  38
ENDBRANCH  35  37
ENDBRANCH  31  33
ENDBRANCH  30  31
ENDBRANCH  26  30
ENDBRANCH  25  28
ENDBRANCH   1  25
TORSDOF 19
