REMARK  Name = lig_assembled_17.pdb
REMARK  22 active torsions:
REMARK  status: ('A' for Active; 'I' for Inactive)
REMARK    1  A    between atoms: _2  and  _10
REMARK    2  A    between atoms: _3  and  _11
REMARK    3  A    between atoms: _3  and  _12
REMARK    4  A    between atoms: _3  and  _14
REMARK    5  A    between atoms: _5  and  _19
REMARK    6  A    between atoms: _6  and  _14
REMARK    7  A    between atoms: _7  and  _8
REMARK    8  A    between atoms: _7  and  _19
REMARK    9  A    between atoms: _10  and  _11
REMARK   10  A    between atoms: _12  and  _13
REMARK   11  A    between atoms: _15  and  _35
REMARK   12  A    between atoms: _17  and  _23
REMARK   13  A    between atoms: _18  and  _22
REMARK   14  A    between atoms: _22  and  _23
REMARK   15  A    between atoms: _25  and  _26
REMARK   16  A    between atoms: _27  and  _28
REMARK   17  A    between atoms: _29  and  _31
REMARK   18  A    between atoms: _31  and  _32
REMARK   19  A    between atoms: _31  and  _33
REMARK   20  A    between atoms: _33  and  _34
REMARK   21  A    between atoms: _33  and  _35
REMARK   22  A    between atoms: _36  and  _38
REMARK                            x       y       z     vdW  Elec       q    Type
REMARK                         _______ _______ _______ _____ _____    ______ ____
ROOT
ATOM      1  C   UNL     1     -12.201   8.216  33.348  0.00  0.00    +0.163 C 
ENDROOT
BRANCH   1   2
ATOM      2  O   UNL     1     -13.395   7.823  32.653  0.00  0.00    -0.388 OA
ATOM      3  H   UNL     1     -13.806   7.086  33.113  0.00  0.00    +0.210 HD
ENDBRANCH   1   2
BRANCH   1   4
ATOM      4  C   UNL     1     -11.436   9.295  32.561  0.00  0.00    +0.175 C 
BRANCH   4   5
ATOM      5  C   UNL     1     -10.054   8.806  32.103  0.00  0.00    +0.176 C 
ATOM      6  O   UNL     1      -9.496   7.985  33.166  0.00  0.00    -0.332 OA
ATOM      7  C   UNL     1      -8.215   7.340  32.863  0.00  0.00    +0.277 C 
ATOM      8  C   UNL     1      -7.173   8.393  32.412  0.00  0.00    +0.110 C 
ATOM      9  C   UNL     1      -7.732   9.310  31.305  0.00  0.00    +0.143 C 
ATOM     10  C   UNL     1      -9.067   9.925  31.724  0.00  0.00    +0.133 C 
BRANCH  10  11
ATOM     11  N   UNL     1      -9.632  10.728  30.628  0.00  0.00    -0.308 N 
ATOM     12  H   UNL     1      -9.985  10.237  29.818  0.00  0.00    +0.149 HD
ATOM     13  C   UNL     1      -9.709  12.061  30.633  0.00  0.00    +0.210 C 
ATOM     14  C   UNL     1      -9.140  12.780  31.870  0.00  0.00    +0.109 C 
ATOM     15  O   UNL     1     -10.201  12.706  29.706  0.00  0.00    -0.276 OA
ENDBRANCH  10  11
BRANCH   7  16
ATOM     16  C   UNL     1      -8.386   6.277  31.757  0.00  0.00    +0.414 C 
ATOM     17  O   UNL     1      -8.706   6.614  30.618  0.00  0.00    -0.240 OA
ATOM     18  O   UNL     1      -8.203   5.085  32.004  0.00  0.00    -0.240 OA
ENDBRANCH   7  16
BRANCH   9  19
ATOM     19  O   UNL     1      -6.799  10.355  31.028  0.00  0.00    -0.390 OA
ATOM     20  H   UNL     1      -7.253  11.086  30.603  0.00  0.00    +0.210 HD
ENDBRANCH   9  19
BRANCH   7  21
ATOM     21  O   UNL     1      -7.732   6.708  34.077  0.00  0.00    -0.343 OA
ATOM     22  C   UNL     1      -8.678   6.690  35.176  0.00  0.00    +0.198 C 
ENDBRANCH   7  21
ENDBRANCH   4   5
BRANCH   4  23
ATOM     23  O   UNL     1     -11.302  10.489  33.356  0.00  0.00    -0.387 OA
ATOM     24  H   UNL     1     -10.535  10.409  33.928  0.00  0.00    +0.210 HD
ENDBRANCH   4  23
ENDBRANCH   1   4
BRANCH   1  25
ATOM     25  C   UNL     1     -12.554   8.751  34.732  0.00  0.00    +0.141 C 
BRANCH  25  28
ATOM     26  C   UNL     1     -13.452   6.947  36.162  0.00  0.00    +0.401 C 
ATOM     27  O   UNL     1     -12.341   6.508  36.468  0.00  0.00    -0.226 OA
ATOM     28  N   UNL     1     -13.645   7.988  35.351  0.00  0.00    -0.279 N 
ATOM     29  H   UNL     1     -14.595   8.268  35.152  0.00  0.00    +0.152 HD
BRANCH  26  30
ATOM     30  O   UNL     1     -14.619   6.314  36.693  0.00  0.00    -0.444 OA
BRANCH  30  31
ATOM     31  C   UNL     1     -15.581   7.309  37.052  0.00  0.00    +0.292 C 
BRANCH  31  33
ATOM     32  N   UNL     1     -15.228   6.334  39.296  0.00  0.00    -0.131 NA
ATOM     33  C   UNL     1     -15.832   7.275  38.504  0.00  0.00    +0.120 A 
ATOM     34  C   UNL     1     -16.619   8.089  39.289  0.00  0.00    +0.137 A 
ATOM     35  N   UNL     1     -16.434   7.602  40.548  0.00  0.00    -0.250 N 
ATOM     36  N   UNL     1     -15.607   6.542  40.549  0.00  0.00    -0.065 NA
BRANCH  35  37
ATOM     37  C   UNL     1     -16.964   8.108  41.797  0.00  0.00    +0.160 C 
BRANCH  37  38
ATOM     38  C   UNL     1     -16.307   9.448  42.160  0.00  0.00    +0.107 C 
BRANCH  38  39
ATOM     39  N   UNL     1     -15.187   9.382  43.131  0.00  0.00    -0.301 NA
BRANCH  39  40
ATOM     40  C   UNL     1     -13.875   9.161  42.495  0.00  0.00    +0.081 C 
ATOM     41  C   UNL     1     -13.642   9.856  41.157  0.00  0.00    +0.020 C 
ENDBRANCH  39  40
BRANCH  39  42
ATOM     42  C   UNL     1     -15.228  10.586  43.986  0.00  0.00    +0.081 C 
ATOM     43  C   UNL     1     -14.178  10.624  45.092  0.00  0.00    +0.020 C 
ENDBRANCH  39  42
ENDBRANCH  38  39
ENDBRANCH  37  38
ENDBRANCH  35  37
ENDBRANCH  31  33
ENDBRANCH  30  31
ENDBRANCH  26  30
ENDBRANCH  25  28
ENDBRANCH   1  25
TORSDOF 18
