REMARK  Name = lig_assembled_19.pdb
REMARK  20 active torsions:
REMARK  status: ('A' for Active; 'I' for Inactive)
REMARK    1  A    between atoms: _2  and  _9
REMARK    2  A    between atoms: _4  and  _18
REMARK    3  A    between atoms: _5  and  _11
REMARK    4  A    between atoms: _6  and  _7
REMARK    5  A    between atoms: _6  and  _18
REMARK    6  A    between atoms: _9  and  _10
REMARK    7  A    between atoms: _10  and  _13
REMARK    8  A    between atoms: _11  and  _13
REMARK    9  A    between atoms: _14  and  _34
REMARK   10  A    between atoms: _16  and  _22
REMARK   11  A    between atoms: _17  and  _21
REMARK   12  A    between atoms: _21  and  _22
REMARK   13  A    between atoms: _24  and  _25
REMARK   14  A    between atoms: _26  and  _27
REMARK   15  A    between atoms: _28  and  _30
REMARK   16  A    between atoms: _30  and  _31
REMARK   17  A    between atoms: _30  and  _32
REMARK   18  A    between atoms: _32  and  _33
REMARK   19  A    between atoms: _32  and  _34
REMARK   20  A    between atoms: _35  and  _37
REMARK                            x       y       z     vdW  Elec       q    Type
REMARK                         _______ _______ _______ _____ _____    ______ ____
ROOT
ATOM      1  C   UNL     1     -10.998   6.556  20.784  0.00  0.00    +0.163 C 
ENDROOT
BRANCH   1   2
ATOM      2  O   UNL     1     -10.563   5.356  20.124  0.00  0.00    -0.388 OA
ATOM      3  H   UNL     1     -10.903   4.590  20.593  0.00  0.00    +0.210 HD
ENDBRANCH   1   2
BRANCH   1   4
ATOM      4  C   UNL     1     -10.351   7.799  20.149  0.00  0.00    +0.175 C 
BRANCH   4   5
ATOM      5  C   UNL     1      -9.174   8.327  20.982  0.00  0.00    +0.176 C 
ATOM      6  O   UNL     1      -9.567   9.605  21.553  0.00  0.00    -0.332 OA
ATOM      7  C   UNL     1      -8.600  10.214  22.471  0.00  0.00    +0.277 C 
ATOM      8  C   UNL     1      -7.217  10.349  21.789  0.00  0.00    +0.110 C 
ATOM      9  C   UNL     1      -6.770   9.022  21.139  0.00  0.00    +0.143 C 
ATOM     10  C   UNL     1      -7.852   8.477  20.206  0.00  0.00    +0.133 C 
BRANCH  10  11
ATOM     11  N   UNL     1      -7.451   7.170  19.661  0.00  0.00    -0.308 N 
ATOM     12  H   UNL     1      -7.423   7.067  18.656  0.00  0.00    +0.149 HD
ATOM     13  C   UNL     1      -7.121   6.113  20.407  0.00  0.00    +0.210 C 
ATOM     14  C   UNL     1      -7.198   6.295  21.935  0.00  0.00    +0.109 C 
ATOM     15  O   UNL     1      -6.775   5.035  19.923  0.00  0.00    -0.276 OA
ENDBRANCH  10  11
BRANCH   7  16
ATOM     16  C   UNL     1      -8.461   9.371  23.756  0.00  0.00    +0.414 C 
ATOM     17  O   UNL     1      -7.383   9.315  24.348  0.00  0.00    -0.240 OA
ATOM     18  O   UNL     1      -9.426   8.748  24.201  0.00  0.00    -0.240 OA
ENDBRANCH   7  16
BRANCH   9  19
ATOM     19  O   UNL     1      -5.569   9.231  20.396  0.00  0.00    -0.390 OA
ATOM     20  H   UNL     1      -5.468   8.531  19.747  0.00  0.00    +0.210 HD
ENDBRANCH   9  19
BRANCH   7  21
ATOM     21  O   UNL     1      -9.076  11.542  22.808  0.00  0.00    -0.343 OA
ATOM     22  C   UNL     1     -10.401  11.862  22.313  0.00  0.00    +0.198 C 
ENDBRANCH   7  21
ENDBRANCH   4   5
BRANCH   4  23
ATOM     23  O   UNL     1     -11.337   8.835  19.970  0.00  0.00    -0.387 OA
ATOM     24  H   UNL     1     -11.425   9.337  20.784  0.00  0.00    +0.210 HD
ENDBRANCH   4  23
ENDBRANCH   1   4
BRANCH   1  25
ATOM     25  C   UNL     1     -12.516   6.674  20.703  0.00  0.00    +0.141 C 
BRANCH  25  28
ATOM     26  C   UNL     1     -13.589   5.165  22.339  0.00  0.00    +0.401 C 
ATOM     27  O   UNL     1     -13.437   5.935  23.291  0.00  0.00    -0.226 OA
ATOM     28  N   UNL     1     -13.184   5.427  21.096  0.00  0.00    -0.279 N 
ATOM     29  H   UNL     1     -13.346   4.729  20.384  0.00  0.00    +0.152 HD
BRANCH  26  30
ATOM     30  O   UNL     1     -14.234   3.908  22.560  0.00  0.00    -0.444 OA
BRANCH  30  31
ATOM     31  C   UNL     1     -15.623   4.020  22.239  0.00  0.00    +0.292 C 
BRANCH  31  33
ATOM     32  N   UNL     1     -16.748   3.366  24.348  0.00  0.00    -0.131 NA
ATOM     33  C   UNL     1     -16.416   3.078  23.049  0.00  0.00    +0.120 A 
ATOM     34  C   UNL     1     -16.936   1.848  22.715  0.00  0.00    +0.137 A 
ATOM     35  N   UNL     1     -17.560   1.438  23.855  0.00  0.00    -0.248 N 
ATOM     36  N   UNL     1     -17.452   2.352  24.832  0.00  0.00    -0.065 NA
BRANCH  35  37
ATOM     37  C   UNL     1     -18.284   0.205  24.076  0.00  0.00    +0.186 C 
BRANCH  37  38
ATOM     38  C   UNL     1     -17.391  -1.017  23.889  0.00  0.00    +0.255 C 
BRANCH  38  39
ATOM     39  O   UNL     1     -16.239  -0.989  24.756  0.00  0.00    -0.463 OA
BRANCH  39  40
ATOM     40  C   UNL     1     -16.044  -2.093  25.524  0.00  0.00    +0.304 C 
ATOM     41  O   UNL     1     -15.557  -3.143  25.126  0.00  0.00    -0.251 OA
ATOM     42  C   UNL     1     -16.475  -1.847  26.937  0.00  0.00    +0.136 C 
ENDBRANCH  39  40
ENDBRANCH  38  39
ENDBRANCH  37  38
ENDBRANCH  35  37
ENDBRANCH  31  33
ENDBRANCH  30  31
ENDBRANCH  26  30
ENDBRANCH  25  28
ENDBRANCH   1  25
TORSDOF 17
