REMARK  Name = lig_assembled_68.pdb
REMARK  19 active torsions:
REMARK  status: ('A' for Active; 'I' for Inactive)
REMARK    1  A    between atoms: _2  and  _9
REMARK    2  A    between atoms: _4  and  _21
REMARK    3  A    between atoms: _6  and  _7
REMARK    4  A    between atoms: _6  and  _21
REMARK    5  A    between atoms: _9  and  _10
REMARK    6  A    between atoms: _10  and  _11
REMARK    7  A    between atoms: _10  and  _16
REMARK    8  A    between atoms: _17  and  _37
REMARK    9  A    between atoms: _19  and  _25
REMARK   10  A    between atoms: _20  and  _24
REMARK   11  A    between atoms: _24  and  _25
REMARK   12  A    between atoms: _27  and  _28
REMARK   13  A    between atoms: _29  and  _30
REMARK   14  A    between atoms: _31  and  _33
REMARK   15  A    between atoms: _33  and  _34
REMARK   16  A    between atoms: _33  and  _35
REMARK   17  A    between atoms: _35  and  _36
REMARK   18  A    between atoms: _35  and  _37
REMARK   19  A    between atoms: _38  and  _40
REMARK                            x       y       z     vdW  Elec       q    Type
REMARK                         _______ _______ _______ _____ _____    ______ ____
ROOT
ATOM      1  C   UNL     1     -10.258  10.436  33.337  0.00  0.00    +0.163 C 
ENDROOT
BRANCH   1   2
ATOM      2  O   UNL     1      -8.838  10.549  33.144  0.00  0.00    -0.388 OA
ATOM      3  H   UNL     1      -8.630  10.432  32.214  0.00  0.00    +0.210 HD
ENDBRANCH   1   2
BRANCH   1   4
ATOM      4  C   UNL     1     -10.614  10.470  34.833  0.00  0.00    +0.175 C 
BRANCH   4   5
ATOM      5  C   UNL     1      -9.941   9.331  35.613  0.00  0.00    +0.176 C 
ATOM      6  O   UNL     1      -8.522   9.633  35.709  0.00  0.00    -0.332 OA
ATOM      7  C   UNL     1      -7.729   8.701  36.517  0.00  0.00    +0.277 C 
ATOM      8  C   UNL     1      -7.923   7.249  36.016  0.00  0.00    +0.110 C 
ATOM      9  C   UNL     1      -9.417   6.893  35.867  0.00  0.00    +0.143 C 
ATOM     10  C   UNL     1     -10.146   7.928  35.011  0.00  0.00    +0.133 C 
BRANCH  10  11
ATOM     11  N   UNL     1     -11.584   7.625  34.949  0.00  0.00    -0.308 N 
ATOM     12  H   UNL     1     -12.122   7.713  35.800  0.00  0.00    +0.149 HD
ATOM     13  C   UNL     1     -12.226   7.242  33.841  0.00  0.00    +0.210 C 
ATOM     14  C   UNL     1     -11.373   7.093  32.567  0.00  0.00    +0.109 C 
ATOM     15  O   UNL     1     -13.435   7.009  33.816  0.00  0.00    -0.276 OA
ENDBRANCH  10  11
BRANCH   7  16
ATOM     16  C   UNL     1      -8.129   8.791  38.005  0.00  0.00    +0.414 C 
ATOM     17  O   UNL     1      -8.274   7.766  38.671  0.00  0.00    -0.240 OA
ATOM     18  O   UNL     1      -8.308   9.886  38.539  0.00  0.00    -0.240 OA
ENDBRANCH   7  16
BRANCH   7  19
ATOM     19  O   UNL     1      -6.330   9.055  36.366  0.00  0.00    -0.343 OA
ATOM     20  C   UNL     1      -6.085  10.294  35.654  0.00  0.00    +0.198 C 
ENDBRANCH   7  19
BRANCH   9  21
ATOM     21  O   UNL     1      -9.547   5.606  35.262  0.00  0.00    -0.390 OA
ATOM     22  H   UNL     1     -10.422   5.520  34.876  0.00  0.00    +0.210 HD
ENDBRANCH   9  21
ENDBRANCH   4   5
BRANCH   4  23
ATOM     23  O   UNL     1     -12.045  10.411  35.004  0.00  0.00    -0.387 OA
ATOM     24  H   UNL     1     -12.332   9.495  34.989  0.00  0.00    +0.210 HD
ENDBRANCH   4  23
ENDBRANCH   1   4
BRANCH   1  25
ATOM     25  C   UNL     1     -10.974  11.575  32.617  0.00  0.00    +0.141 C 
BRANCH  25  28
ATOM     26  C   UNL     1     -10.966  12.159  30.216  0.00  0.00    +0.401 C 
ATOM     27  O   UNL     1     -10.583  13.316  30.402  0.00  0.00    -0.226 OA
ATOM     28  N   UNL     1     -11.181  11.278  31.194  0.00  0.00    -0.279 N 
ATOM     29  H   UNL     1     -11.504  10.354  30.942  0.00  0.00    +0.152 HD
BRANCH  26  30
ATOM     30  O   UNL     1     -11.205  11.713  28.879  0.00  0.00    -0.444 OA
BRANCH  30  31
ATOM     31  C   UNL     1     -10.061  11.997  28.069  0.00  0.00    +0.292 C 
BRANCH  31  33
ATOM     32  N   UNL     1      -7.700  11.274  28.293  0.00  0.00    -0.131 NA
ATOM     33  C   UNL     1      -9.033  10.956  28.245  0.00  0.00    +0.120 A 
ATOM     34  C   UNL     1      -9.174   9.594  28.374  0.00  0.00    +0.137 A 
ATOM     35  N   UNL     1      -7.894   9.142  28.507  0.00  0.00    -0.249 N 
ATOM     36  N   UNL     1      -7.009  10.152  28.446  0.00  0.00    -0.065 NA
BRANCH  35  37
ATOM     37  C   UNL     1      -7.444   7.768  28.591  0.00  0.00    +0.181 C 
BRANCH  37  38
ATOM     38  C   UNL     1      -7.897   7.088  29.889  0.00  0.00    +0.166 C 
BRANCH  38  39
ATOM     39  C   UNL     1      -6.764   6.733  30.840  0.00  0.00    -0.017 A 
ATOM     40  C   UNL     1      -6.565   7.524  31.986  0.00  0.00    +0.006 A 
ATOM     41  C   UNL     1      -5.553   7.218  32.899  0.00  0.00    +0.000 A 
ATOM     42  C   UNL     1      -4.730   6.117  32.686  0.00  0.00    +0.000 A 
ATOM     43  C   UNL     1      -4.923   5.313  31.568  0.00  0.00    +0.000 A 
ATOM     44  C   UNL     1      -5.936   5.615  30.653  0.00  0.00    +0.006 A 
ENDBRANCH  38  39
BRANCH  38  45
ATOM     45  O   UNL     1      -8.595   5.881  29.564  0.00  0.00    -0.385 OA
ATOM     46  H   UNL     1      -7.966   5.143  29.616  0.00  0.00    +0.210 HD
ENDBRANCH  38  45
ENDBRANCH  37  38
ENDBRANCH  35  37
ENDBRANCH  31  33
ENDBRANCH  30  31
ENDBRANCH  26  30
ENDBRANCH  25  28
ENDBRANCH   1  25
TORSDOF 17
