REMARK  Name = lig_assembled_58.pdb
REMARK  18 active torsions:
REMARK  status: ('A' for Active; 'I' for Inactive)
REMARK    1  A    between atoms: _2  and  _9
REMARK    2  A    between atoms: _4  and  _25
REMARK    3  A    between atoms: _6  and  _7
REMARK    4  A    between atoms: _6  and  _25
REMARK    5  A    between atoms: _9  and  _10
REMARK    6  A    between atoms: _9  and  _16
REMARK    7  A    between atoms: _21  and  _41
REMARK    8  A    between atoms: _23  and  _29
REMARK    9  A    between atoms: _24  and  _28
REMARK   10  A    between atoms: _28  and  _29
REMARK   11  A    between atoms: _31  and  _32
REMARK   12  A    between atoms: _33  and  _34
REMARK   13  A    between atoms: _35  and  _37
REMARK   14  A    between atoms: _37  and  _38
REMARK   15  A    between atoms: _37  and  _39
REMARK   16  A    between atoms: _39  and  _40
REMARK   17  A    between atoms: _39  and  _41
REMARK   18  A    between atoms: _42  and  _44
REMARK                            x       y       z     vdW  Elec       q    Type
REMARK                         _______ _______ _______ _____ _____    ______ ____
ROOT
ATOM      1  C   UNL     1      -3.388  20.373  26.342  0.00  0.00    +0.141 C 
ENDROOT
BRANCH   1   4
ATOM      2  C   UNL     1      -5.412  20.356  27.760  0.00  0.00    +0.401 C 
ATOM      3  O   UNL     1      -5.479  19.126  27.813  0.00  0.00    -0.226 OA
ATOM      4  N   UNL     1      -4.471  21.023  27.091  0.00  0.00    -0.279 N 
ATOM      5  H   UNL     1      -4.505  22.033  27.099  0.00  0.00    +0.152 HD
BRANCH   2   6
ATOM      6  O   UNL     1      -6.394  21.136  28.448  0.00  0.00    -0.444 OA
BRANCH   6   7
ATOM      7  C   UNL     1      -6.047  22.521  28.367  0.00  0.00    +0.292 C 
BRANCH   7   9
ATOM      8  N   UNL     1      -7.266  23.852  30.076  0.00  0.00    -0.131 NA
ATOM      9  C   UNL     1      -6.152  23.152  29.696  0.00  0.00    +0.120 A 
ATOM     10  C   UNL     1      -5.257  23.137  30.740  0.00  0.00    +0.138 A 
ATOM     11  N   UNL     1      -5.940  23.705  31.780  0.00  0.00    -0.240 N 
ATOM     12  N   UNL     1      -7.120  24.206  31.346  0.00  0.00    -0.064 NA
BRANCH  11  13
ATOM     13  C   UNL     1      -5.576  23.786  33.206  0.00  0.00    +0.169 C 
BRANCH  13  14
ATOM     14  C   UNL     1      -5.053  22.426  33.691  0.00  0.00    -0.019 A 
ATOM     15  C   UNL     1      -5.926  21.514  34.308  0.00  0.00    +0.006 A 
ATOM     16  C   UNL     1      -5.449  20.298  34.805  0.00  0.00    +0.000 A 
ATOM     17  C   UNL     1      -4.101  19.968  34.683  0.00  0.00    +0.000 A 
ATOM     18  C   UNL     1      -3.221  20.859  34.078  0.00  0.00    +0.000 A 
ATOM     19  C   UNL     1      -3.691  22.080  33.598  0.00  0.00    +0.006 A 
ENDBRANCH  13  14
BRANCH  13  20
ATOM     20  C   UNL     1      -4.662  24.980  33.518  0.00  0.00    -0.019 A 
ATOM     21  C   UNL     1      -4.422  25.983  32.562  0.00  0.00    +0.006 A 
ATOM     22  C   UNL     1      -3.587  27.066  32.852  0.00  0.00    +0.000 A 
ATOM     23  C   UNL     1      -2.996  27.179  34.107  0.00  0.00    +0.000 A 
ATOM     24  C   UNL     1      -3.263  26.229  35.084  0.00  0.00    +0.000 A 
ATOM     25  C   UNL     1      -4.101  25.153  34.799  0.00  0.00    +0.006 A 
ENDBRANCH  13  20
ENDBRANCH  11  13
ENDBRANCH   7   9
ENDBRANCH   6   7
ENDBRANCH   2   6
ENDBRANCH   1   4
BRANCH   1  26
ATOM     26  C   UNL     1      -3.238  20.953  24.940  0.00  0.00    +0.163 C 
BRANCH  26  27
ATOM     27  O   UNL     1      -2.317  20.158  24.175  0.00  0.00    -0.388 OA
ATOM     28  H   UNL     1      -1.443  20.213  24.568  0.00  0.00    +0.210 HD
ENDBRANCH  26  27
BRANCH  26  29
ATOM     29  C   UNL     1      -4.615  21.009  24.257  0.00  0.00    +0.175 C 
BRANCH  29  30
ATOM     30  C   UNL     1      -4.543  20.606  22.776  0.00  0.00    +0.176 C 
ATOM     31  O   UNL     1      -4.330  19.169  22.714  0.00  0.00    -0.332 OA
ATOM     32  C   UNL     1      -4.340  18.584  21.370  0.00  0.00    +0.277 C 
ATOM     33  C   UNL     1      -3.316  19.305  20.459  0.00  0.00    +0.110 C 
ATOM     34  C   UNL     1      -3.482  20.838  20.517  0.00  0.00    +0.143 C 
ATOM     35  C   UNL     1      -3.461  21.338  21.961  0.00  0.00    +0.133 C 
BRANCH  35  36
ATOM     36  N   UNL     1      -3.707  22.788  22.009  0.00  0.00    -0.308 N 
ATOM     37  H   UNL     1      -4.645  23.114  21.820  0.00  0.00    +0.149 HD
ATOM     38  C   UNL     1      -2.772  23.702  22.284  0.00  0.00    +0.210 C 
ATOM     39  C   UNL     1      -1.348  23.176  22.541  0.00  0.00    +0.109 C 
ATOM     40  O   UNL     1      -3.011  24.909  22.331  0.00  0.00    -0.276 OA
ENDBRANCH  35  36
BRANCH  32  41
ATOM     41  C   UNL     1      -5.746  18.681  20.742  0.00  0.00    +0.414 C 
ATOM     42  O   UNL     1      -5.883  18.643  19.519  0.00  0.00    -0.240 OA
ATOM     43  O   UNL     1      -6.742  18.796  21.456  0.00  0.00    -0.240 OA
ENDBRANCH  32  41
BRANCH  34  44
ATOM     44  O   UNL     1      -2.428  21.465  19.786  0.00  0.00    -0.390 OA
ATOM     45  H   UNL     1      -2.332  22.375  20.078  0.00  0.00    +0.210 HD
ENDBRANCH  34  44
BRANCH  32  46
ATOM     46  O   UNL     1      -3.950  17.191  21.483  0.00  0.00    -0.343 OA
ATOM     47  C   UNL     1      -4.739  16.409  22.415  0.00  0.00    +0.198 C 
ENDBRANCH  32  46
ENDBRANCH  29  30
BRANCH  29  48
ATOM     48  O   UNL     1      -5.180  22.329  24.385  0.00  0.00    -0.387 OA
ATOM     49  H   UNL     1      -4.845  22.891  23.682  0.00  0.00    +0.210 HD
ENDBRANCH  29  48
ENDBRANCH  26  29
ENDBRANCH   1  26
TORSDOF 16
