REMARK  Name = lig_assembled_65.pdb
REMARK  16 active torsions:
REMARK  status: ('A' for Active; 'I' for Inactive)
REMARK    1  A    between atoms: _8  and  _20
REMARK    2  A    between atoms: _9  and  _15
REMARK    3  A    between atoms: _10  and  _11
REMARK    4  A    between atoms: _10  and  _20
REMARK    5  A    between atoms: _16  and  _36
REMARK    6  A    between atoms: _18  and  _24
REMARK    7  A    between atoms: _19  and  _23
REMARK    8  A    between atoms: _23  and  _24
REMARK    9  A    between atoms: _26  and  _27
REMARK   10  A    between atoms: _28  and  _29
REMARK   11  A    between atoms: _30  and  _32
REMARK   12  A    between atoms: _32  and  _33
REMARK   13  A    between atoms: _32  and  _34
REMARK   14  A    between atoms: _34  and  _35
REMARK   15  A    between atoms: _34  and  _36
REMARK   16  A    between atoms: _37  and  _39
REMARK                            x       y       z     vdW  Elec       q    Type
REMARK                         _______ _______ _______ _____ _____    ______ ____
ROOT
ATOM      1  C   UNL     1     -17.646  11.599  40.739  0.00  0.00    +0.163 C 
ENDROOT
BRANCH   1   2
ATOM      2  O   UNL     1     -18.813  12.086  40.056  0.00  0.00    -0.388 OA
ATOM      3  H   UNL     1     -19.516  12.239  40.691  0.00  0.00    +0.210 HD
ENDBRANCH   1   2
BRANCH   1   4
ATOM      4  C   UNL     1     -17.110  12.669  41.684  0.00  0.00    +0.141 C 
BRANCH   4   7
ATOM      5  C   UNL     1     -18.026  14.891  42.259  0.00  0.00    +0.401 C 
ATOM      6  O   UNL     1     -18.019  14.683  43.475  0.00  0.00    -0.226 OA
ATOM      7  N   UNL     1     -17.625  14.003  41.349  0.00  0.00    -0.279 N 
ATOM      8  H   UNL     1     -17.677  14.262  40.374  0.00  0.00    +0.152 HD
BRANCH   5   9
ATOM      9  O   UNL     1     -18.493  16.152  41.773  0.00  0.00    -0.444 OA
BRANCH   9  10
ATOM     10  C   UNL     1     -17.475  16.762  40.975  0.00  0.00    +0.292 C 
BRANCH  10  12
ATOM     11  N   UNL     1     -16.852  18.361  42.761  0.00  0.00    -0.131 NA
ATOM     12  C   UNL     1     -16.478  17.427  41.834  0.00  0.00    +0.121 A 
ATOM     13  C   UNL     1     -15.113  17.270  41.882  0.00  0.00    +0.149 A 
ATOM     14  N   UNL     1     -14.688  18.146  42.859  0.00  0.00    -0.155 N 
ATOM     15  C   UNL     1     -13.347  18.378  43.283  0.00  0.00    +0.416 C 
ATOM     16  N   UNL     1     -13.128  19.271  44.255  0.00  0.00    +0.041 NA
ATOM     17  C   UNL     1     -11.850  19.445  44.584  0.00  0.00    +0.339 C 
ATOM     18  C   UNL     1     -11.539  20.442  45.656  0.00  0.00    +0.149 C 
ATOM     19  N   UNL     1     -10.829  18.803  44.016  0.00  0.00    +0.007 NA
ATOM     20  C   UNL     1     -11.153  17.951  43.056  0.00  0.00    +0.386 C 
ATOM     21  N   UNL     1     -10.125  17.273  42.435  0.00  0.00    -0.296 N 
ATOM     22  H   UNL     1      -9.306  17.247  43.026  0.00  0.00    +0.148 HD
ATOM     23  H   UNL     1     -10.446  16.400  42.042  0.00  0.00    +0.148 HD
ATOM     24  N   UNL     1     -12.384  17.681  42.662  0.00  0.00    -0.290 NA
ATOM     25  N   UNL     1     -15.761  18.792  43.383  0.00  0.00    -0.055 NA
ENDBRANCH  10  12
ENDBRANCH   9  10
ENDBRANCH   5   9
ENDBRANCH   4   7
ENDBRANCH   1   4
BRANCH   1  26
ATOM     26  C   UNL     1     -16.548  11.201  39.737  0.00  0.00    +0.175 C 
BRANCH  26  27
ATOM     27  C   UNL     1     -16.877  11.656  38.308  0.00  0.00    +0.176 C 
ATOM     28  O   UNL     1     -17.580  10.570  37.644  0.00  0.00    -0.332 OA
ATOM     29  C   UNL     1     -18.070  10.864  36.294  0.00  0.00    +0.277 C 
ATOM     30  C   UNL     1     -16.913  11.366  35.395  0.00  0.00    +0.110 C 
ATOM     31  C   UNL     1     -16.117  12.501  36.073  0.00  0.00    +0.143 C 
ATOM     32  C   UNL     1     -15.658  12.089  37.473  0.00  0.00    +0.133 C 
BRANCH  32  33
ATOM     33  N   UNL     1     -14.976  13.208  38.141  0.00  0.00    -0.308 N 
ATOM     34  H   UNL     1     -14.030  13.060  38.462  0.00  0.00    +0.149 HD
ATOM     35  C   UNL     1     -15.527  14.407  38.353  0.00  0.00    +0.210 C 
ATOM     36  C   UNL     1     -16.980  14.592  37.876  0.00  0.00    +0.109 C 
ATOM     37  O   UNL     1     -14.927  15.331  38.903  0.00  0.00    -0.276 OA
ENDBRANCH  32  33
BRANCH  29  38
ATOM     38  C   UNL     1     -19.188  11.926  36.337  0.00  0.00    +0.414 C 
ATOM     39  O   UNL     1     -19.936  12.000  37.311  0.00  0.00    -0.240 OA
ATOM     40  O   UNL     1     -19.341  12.709  35.399  0.00  0.00    -0.240 OA
ENDBRANCH  29  38
BRANCH  29  41
ATOM     41  O   UNL     1     -18.588   9.633  35.727  0.00  0.00    -0.343 OA
ATOM     42  C   UNL     1     -18.221   9.393  34.345  0.00  0.00    +0.198 C 
ENDBRANCH  29  41
BRANCH  31  43
ATOM     43  O   UNL     1     -14.975  12.828  35.281  0.00  0.00    -0.390 OA
ATOM     44  H   UNL     1     -14.323  13.274  35.826  0.00  0.00    +0.210 HD
ENDBRANCH  31  43
ENDBRANCH  26  27
BRANCH  26  45
ATOM     45  O   UNL     1     -16.340   9.775  39.769  0.00  0.00    -0.387 OA
ATOM     46  H   UNL     1     -16.976   9.346  39.193  0.00  0.00    +0.210 HD
ENDBRANCH  26  45
ENDBRANCH   1  26
TORSDOF 13
