REMARK  Name = lig_assembled_66.pdb
REMARK  18 active torsions:
REMARK  status: ('A' for Active; 'I' for Inactive)
REMARK    1  A    between atoms: _2  and  _10
REMARK    2  A    between atoms: _5  and  _21
REMARK    3  A    between atoms: _7  and  _8
REMARK    4  A    between atoms: _7  and  _21
REMARK    5  A    between atoms: _10  and  _11
REMARK    6  A    between atoms: _15  and  _16
REMARK    7  A    between atoms: _17  and  _37
REMARK    8  A    between atoms: _19  and  _25
REMARK    9  A    between atoms: _20  and  _24
REMARK   10  A    between atoms: _24  and  _25
REMARK   11  A    between atoms: _27  and  _28
REMARK   12  A    between atoms: _29  and  _30
REMARK   13  A    between atoms: _31  and  _33
REMARK   14  A    between atoms: _33  and  _34
REMARK   15  A    between atoms: _33  and  _35
REMARK   16  A    between atoms: _35  and  _36
REMARK   17  A    between atoms: _35  and  _37
REMARK   18  A    between atoms: _38  and  _40
REMARK                            x       y       z     vdW  Elec       q    Type
REMARK                         _______ _______ _______ _____ _____    ______ ____
ROOT
ATOM      1  C   UNL     1      -8.348  17.318  29.399  0.00  0.00    +0.163 C 
ENDROOT
BRANCH   1   2
ATOM      2  O   UNL     1      -9.392  17.854  28.570  0.00  0.00    -0.388 OA
ATOM      3  H   UNL     1     -10.134  17.245  28.554  0.00  0.00    +0.210 HD
ENDBRANCH   1   2
BRANCH   1   4
ATOM      4  C   UNL     1      -7.086  18.194  29.331  0.00  0.00    +0.175 C 
BRANCH   4   5
ATOM      5  C   UNL     1      -6.891  18.819  27.942  0.00  0.00    +0.176 C 
ATOM      6  O   UNL     1      -7.375  17.870  26.952  0.00  0.00    -0.332 OA
ATOM      7  C   UNL     1      -7.366  18.341  25.564  0.00  0.00    +0.277 C 
ATOM      8  C   UNL     1      -5.952  18.833  25.169  0.00  0.00    +0.110 C 
ATOM      9  C   UNL     1      -5.382  19.821  26.209  0.00  0.00    +0.143 C 
ATOM     10  C   UNL     1      -5.443  19.231  27.618  0.00  0.00    +0.133 C 
BRANCH  10  11
ATOM     11  N   UNL     1      -4.978  20.214  28.609  0.00  0.00    -0.308 N 
ATOM     12  H   UNL     1      -4.190  19.962  29.190  0.00  0.00    +0.149 HD
ATOM     13  C   UNL     1      -5.528  21.417  28.791  0.00  0.00    +0.210 C 
ATOM     14  C   UNL     1      -6.743  21.760  27.909  0.00  0.00    +0.109 C 
ATOM     15  O   UNL     1      -5.109  22.226  29.619  0.00  0.00    -0.276 OA
ENDBRANCH  10  11
BRANCH   7  16
ATOM     16  C   UNL     1      -8.383  19.484  25.368  0.00  0.00    +0.414 C 
ATOM     17  O   UNL     1      -9.407  19.527  26.048  0.00  0.00    -0.240 OA
ATOM     18  O   UNL     1      -8.179  20.364  24.530  0.00  0.00    -0.240 OA
ENDBRANCH   7  16
BRANCH   7  19
ATOM     19  O   UNL     1      -7.716  17.223  24.709  0.00  0.00    -0.343 OA
ATOM     20  C   UNL     1      -6.658  16.253  24.504  0.00  0.00    +0.198 C 
ENDBRANCH   7  19
BRANCH   9  21
ATOM     21  O   UNL     1      -4.025  20.130  25.886  0.00  0.00    -0.390 OA
ATOM     22  H   UNL     1      -3.577  20.461  26.668  0.00  0.00    +0.210 HD
ENDBRANCH   9  21
ENDBRANCH   4   5
BRANCH   4  23
ATOM     23  O   UNL     1      -5.925  17.422  29.696  0.00  0.00    -0.387 OA
ATOM     24  H   UNL     1      -5.599  16.950  28.926  0.00  0.00    +0.210 HD
ENDBRANCH   4  23
ENDBRANCH   1   4
BRANCH   1  25
ATOM     25  C   UNL     1      -8.826  17.225  30.845  0.00  0.00    +0.141 C 
BRANCH  25  28
ATOM     26  C   UNL     1      -9.550  19.355  31.866  0.00  0.00    +0.401 C 
ATOM     27  O   UNL     1      -8.441  19.614  32.339  0.00  0.00    -0.226 OA
ATOM     28  N   UNL     1      -9.822  18.257  31.160  0.00  0.00    -0.279 N 
ATOM     29  H   UNL     1     -10.765  18.129  30.822  0.00  0.00    +0.152 HD
BRANCH  26  30
ATOM     30  O   UNL     1     -10.627  20.271  32.080  0.00  0.00    -0.444 OA
BRANCH  30  31
ATOM     31  C   UNL     1     -10.101  21.550  32.445  0.00  0.00    +0.292 C 
BRANCH  31  33
ATOM     32  N   UNL     1     -10.006  21.255  34.903  0.00  0.00    -0.131 NA
ATOM     33  C   UNL     1     -10.521  21.907  33.814  0.00  0.00    +0.120 A 
ATOM     34  C   UNL     1     -11.384  22.889  34.245  0.00  0.00    +0.137 A 
ATOM     35  N   UNL     1     -11.308  22.822  35.606  0.00  0.00    -0.247 N 
ATOM     36  N   UNL     1     -10.493  21.825  35.998  0.00  0.00    -0.065 NA
BRANCH  35  37
ATOM     37  C   UNL     1     -11.765  23.812  36.565  0.00  0.00    +0.180 C 
BRANCH  37  38
ATOM     38  C   UNL     1     -11.816  23.294  37.979  0.00  0.00    -0.025 A 
ATOM     39  C   UNL     1     -10.837  23.674  38.909  0.00  0.00    +0.005 A 
ATOM     40  C   UNL     1     -10.923  23.266  40.242  0.00  0.00    +0.002 A 
ATOM     41  C   UNL     1     -11.979  22.456  40.659  0.00  0.00    +0.019 A 
ATOM     42  C   UNL     1     -12.944  22.039  39.738  0.00  0.00    +0.052 A 
ATOM     43  C   UNL     1     -12.863  22.458  38.403  0.00  0.00    +0.024 A 
BRANCH  42  44
ATOM     44  C   UNL     1     -14.022  21.193  40.160  0.00  0.00    +0.099 C 
ATOM     45  N   UNL     1     -14.899  20.510  40.494  0.00  0.00    -0.191 NA
ENDBRANCH  42  44
ENDBRANCH  37  38
ENDBRANCH  35  37
ENDBRANCH  31  33
ENDBRANCH  30  31
ENDBRANCH  26  30
ENDBRANCH  25  28
ENDBRANCH   1  25
TORSDOF 16
