REMARK  Name = lig_assembled_14.pdb
REMARK  18 active torsions:
REMARK  status: ('A' for Active; 'I' for Inactive)
REMARK    1  A    between atoms: _2  and  _10
REMARK    2  A    between atoms: _3  and  _11
REMARK    3  A    between atoms: _5  and  _19
REMARK    4  A    between atoms: _7  and  _8
REMARK    5  A    between atoms: _7  and  _19
REMARK    6  A    between atoms: _10  and  _11
REMARK    7  A    between atoms: _15  and  _35
REMARK    8  A    between atoms: _17  and  _23
REMARK    9  A    between atoms: _18  and  _22
REMARK   10  A    between atoms: _22  and  _23
REMARK   11  A    between atoms: _25  and  _26
REMARK   12  A    between atoms: _27  and  _28
REMARK   13  A    between atoms: _29  and  _31
REMARK   14  A    between atoms: _31  and  _32
REMARK   15  A    between atoms: _31  and  _33
REMARK   16  A    between atoms: _33  and  _34
REMARK   17  A    between atoms: _33  and  _35
REMARK   18  A    between atoms: _36  and  _38
REMARK                            x       y       z     vdW  Elec       q    Type
REMARK                         _______ _______ _______ _____ _____    ______ ____
ROOT
ATOM      1  C   UNL     1     -10.107  10.650  32.827  0.00  0.00    +0.163 C 
ENDROOT
BRANCH   1   2
ATOM      2  O   UNL     1     -10.410  10.229  34.167  0.00  0.00    -0.388 OA
ATOM      3  H   UNL     1      -9.715   9.646  34.485  0.00  0.00    +0.210 HD
ENDBRANCH   1   2
BRANCH   1   4
ATOM      4  C   UNL     1     -11.268  11.464  32.231  0.00  0.00    +0.175 C 
BRANCH   4   5
ATOM      5  C   UNL     1     -12.311  10.568  31.548  0.00  0.00    +0.176 C 
ATOM      6  O   UNL     1     -13.029   9.846  32.586  0.00  0.00    -0.332 OA
ATOM      7  C   UNL     1     -14.144   9.014  32.124  0.00  0.00    +0.277 C 
ATOM      8  C   UNL     1     -13.664   8.023  31.035  0.00  0.00    +0.110 C 
ATOM      9  C   UNL     1     -12.868   8.740  29.925  0.00  0.00    +0.143 C 
ATOM     10  C   UNL     1     -11.735   9.579  30.517  0.00  0.00    +0.133 C 
BRANCH  10  11
ATOM     11  N   UNL     1     -11.038  10.325  29.457  0.00  0.00    -0.308 N 
ATOM     12  H   UNL     1     -11.537  11.077  29.004  0.00  0.00    +0.149 HD
ATOM     13  C   UNL     1      -9.790  10.072  29.055  0.00  0.00    +0.210 C 
ATOM     14  C   UNL     1      -9.066   8.902  29.748  0.00  0.00    +0.109 C 
ATOM     15  O   UNL     1      -9.226  10.723  28.175  0.00  0.00    -0.276 OA
ENDBRANCH  10  11
BRANCH   7  16
ATOM     16  C   UNL     1     -15.283   9.888  31.560  0.00  0.00    +0.414 C 
ATOM     17  O   UNL     1     -15.982   9.476  30.635  0.00  0.00    -0.240 OA
ATOM     18  O   UNL     1     -15.503  11.006  32.030  0.00  0.00    -0.240 OA
ENDBRANCH   7  16
BRANCH   9  19
ATOM     19  O   UNL     1     -12.318   7.775  29.027  0.00  0.00    -0.390 OA
ATOM     20  H   UNL     1     -11.581   8.163  28.550  0.00  0.00    +0.210 HD
ENDBRANCH   9  19
BRANCH   7  21
ATOM     21  O   UNL     1     -14.631   8.248  33.256  0.00  0.00    -0.343 OA
ATOM     22  C   UNL     1     -13.796   8.306  34.440  0.00  0.00    +0.198 C 
ENDBRANCH   7  21
ENDBRANCH   4   5
BRANCH   4  23
ATOM     23  O   UNL     1     -10.763  12.439  31.297  0.00  0.00    -0.387 OA
ATOM     24  H   UNL     1     -10.651  12.030  30.436  0.00  0.00    +0.210 HD
ENDBRANCH   4  23
ENDBRANCH   1   4
BRANCH   1  25
ATOM     25  C   UNL     1      -8.837  11.495  32.821  0.00  0.00    +0.141 C 
BRANCH  25  28
ATOM     26  C   UNL     1      -6.670  10.307  32.832  0.00  0.00    +0.401 C 
ATOM     27  O   UNL     1      -6.531  10.354  31.608  0.00  0.00    -0.226 OA
ATOM     28  N   UNL     1      -7.720  10.809  33.483  0.00  0.00    -0.279 N 
ATOM     29  H   UNL     1      -7.749  10.713  34.488  0.00  0.00    +0.152 HD
BRANCH  26  30
ATOM     30  O   UNL     1      -5.659   9.676  33.622  0.00  0.00    -0.444 OA
BRANCH  30  31
ATOM     31  C   UNL     1      -6.116   8.388  34.043  0.00  0.00    +0.292 C 
BRANCH  31  33
ATOM     32  N   UNL     1      -5.649   6.827  32.181  0.00  0.00    -0.131 NA
ATOM     33  C   UNL     1      -5.313   7.324  33.413  0.00  0.00    +0.120 A 
ATOM     34  C   UNL     1      -4.193   6.668  33.873  0.00  0.00    +0.137 A 
ATOM     35  N   UNL     1      -3.907   5.778  32.883  0.00  0.00    -0.250 N 
ATOM     36  N   UNL     1      -4.778   5.881  31.864  0.00  0.00    -0.065 NA
BRANCH  35  37
ATOM     37  C   UNL     1      -2.869   4.770  32.857  0.00  0.00    +0.160 C 
BRANCH  37  38
ATOM     38  C   UNL     1      -1.778   5.100  31.833  0.00  0.00    +0.107 C 
BRANCH  38  39
ATOM     39  N   UNL     1      -0.659   4.141  31.855  0.00  0.00    -0.301 NA
ATOM     40  C   UNL     1      -1.031   2.812  31.361  0.00  0.00    +0.084 C 
ATOM     41  C   UNL     1       0.316   2.173  31.092  0.00  0.00    +0.017 C 
ATOM     42  C   UNL     1       1.152   3.312  30.538  0.00  0.00    +0.017 C 
ATOM     43  C   UNL     1       0.456   4.586  31.006  0.00  0.00    +0.084 C 
ENDBRANCH  38  39
ENDBRANCH  37  38
ENDBRANCH  35  37
ENDBRANCH  31  33
ENDBRANCH  30  31
ENDBRANCH  26  30
ENDBRANCH  25  28
ENDBRANCH   1  25
TORSDOF 16
