REMARK  Name = lig_assembled_25.pdb
REMARK  16 active torsions:
REMARK  status: ('A' for Active; 'I' for Inactive)
REMARK    1  A    between atoms: _2  and  _9
REMARK    2  A    between atoms: _4  and  _25
REMARK    3  A    between atoms: _6  and  _7
REMARK    4  A    between atoms: _6  and  _25
REMARK    5  A    between atoms: _21  and  _41
REMARK    6  A    between atoms: _23  and  _29
REMARK    7  A    between atoms: _24  and  _28
REMARK    8  A    between atoms: _28  and  _29
REMARK    9  A    between atoms: _31  and  _32
REMARK   10  A    between atoms: _33  and  _34
REMARK   11  A    between atoms: _35  and  _37
REMARK   12  A    between atoms: _37  and  _38
REMARK   13  A    between atoms: _37  and  _39
REMARK   14  A    between atoms: _39  and  _40
REMARK   15  A    between atoms: _39  and  _41
REMARK   16  A    between atoms: _42  and  _44
REMARK                            x       y       z     vdW  Elec       q    Type
REMARK                         _______ _______ _______ _____ _____    ______ ____
ROOT
ATOM      1  C   UNL     1     -11.431  14.297  32.628  0.00  0.00    +0.141 C 
ENDROOT
BRANCH   1   4
ATOM      2  C   UNL     1      -9.635  14.318  30.931  0.00  0.00    +0.401 C 
ATOM      3  O   UNL     1     -10.172  13.469  30.216  0.00  0.00    -0.226 OA
ATOM      4  N   UNL     1     -10.150  14.759  32.079  0.00  0.00    -0.279 N 
ATOM      5  H   UNL     1      -9.630  15.451  32.601  0.00  0.00    +0.152 HD
BRANCH   2   6
ATOM      6  O   UNL     1      -8.381  14.874  30.527  0.00  0.00    -0.444 OA
BRANCH   6   7
ATOM      7  C   UNL     1      -8.404  15.134  29.121  0.00  0.00    +0.292 C 
BRANCH   7   9
ATOM      8  N   UNL     1      -8.097  17.482  29.822  0.00  0.00    -0.131 NA
ATOM      9  C   UNL     1      -8.000  16.526  28.848  0.00  0.00    +0.120 A 
ATOM     10  C   UNL     1      -7.518  17.105  27.695  0.00  0.00    +0.138 A 
ATOM     11  N   UNL     1      -7.357  18.422  28.023  0.00  0.00    -0.240 N 
ATOM     12  N   UNL     1      -7.698  18.638  29.311  0.00  0.00    -0.064 NA
BRANCH  11  13
ATOM     13  C   UNL     1      -6.976  19.551  27.191  0.00  0.00    +0.170 C 
ATOM     14  C   UNL     1      -6.737  19.152  25.741  0.00  0.00    -0.011 A 
ATOM     15  C   UNL     1      -5.441  19.546  25.339  0.00  0.00    -0.012 A 
ATOM     16  C   UNL     1      -4.775  20.182  26.459  0.00  0.00    -0.012 A 
ATOM     17  C   UNL     1      -3.519  20.760  26.543  0.00  0.00    +0.009 A 
ATOM     18  C   UNL     1      -3.134  21.340  27.756  0.00  0.00    +0.001 A 
ATOM     19  C   UNL     1      -3.998  21.332  28.864  0.00  0.00    +0.000 A 
ATOM     20  C   UNL     1      -5.265  20.749  28.782  0.00  0.00    +0.006 A 
ATOM     21  C   UNL     1      -5.004  19.308  24.048  0.00  0.00    +0.009 A 
ATOM     22  C   UNL     1      -5.874  18.672  23.157  0.00  0.00    +0.001 A 
ATOM     23  C   UNL     1      -7.163  18.285  23.559  0.00  0.00    +0.000 A 
ATOM     24  C   UNL     1      -7.608  18.526  24.860  0.00  0.00    +0.006 A 
ATOM     25  C   UNL     1      -5.641  20.176  27.576  0.00  0.00    -0.011 A 
ENDBRANCH  11  13
ENDBRANCH   7   9
ENDBRANCH   6   7
ENDBRANCH   2   6
ENDBRANCH   1   4
BRANCH   1  26
ATOM     26  C   UNL     1     -11.239  13.429  33.867  0.00  0.00    +0.163 C 
BRANCH  26  27
ATOM     27  O   UNL     1     -11.800  14.083  35.017  0.00  0.00    -0.388 OA
ATOM     28  H   UNL     1     -11.313  14.892  35.195  0.00  0.00    +0.210 HD
ENDBRANCH  26  27
BRANCH  26  29
ATOM     29  C   UNL     1     -11.896  12.056  33.641  0.00  0.00    +0.175 C 
BRANCH  29  30
ATOM     30  C   UNL     1     -11.302  10.974  34.554  0.00  0.00    +0.176 C 
ATOM     31  O   UNL     1     -11.716  11.262  35.917  0.00  0.00    -0.332 OA
ATOM     32  C   UNL     1     -11.327  10.268  36.922  0.00  0.00    +0.277 C 
ATOM     33  C   UNL     1      -9.798  10.025  36.879  0.00  0.00    +0.110 C 
ATOM     34  C   UNL     1      -9.306   9.745  35.444  0.00  0.00    +0.143 C 
ATOM     35  C   UNL     1      -9.769  10.840  34.481  0.00  0.00    +0.133 C 
BRANCH  35  36
ATOM     36  N   UNL     1      -9.368  10.517  33.103  0.00  0.00    -0.308 N 
ATOM     37  H   UNL     1      -9.893   9.806  32.613  0.00  0.00    +0.149 HD
ATOM     38  C   UNL     1      -8.357  11.104  32.456  0.00  0.00    +0.210 C 
ATOM     39  C   UNL     1      -7.561  12.165  33.239  0.00  0.00    +0.109 C 
ATOM     40  O   UNL     1      -8.053  10.824  31.296  0.00  0.00    -0.276 OA
ENDBRANCH  35  36
BRANCH  32  41
ATOM     41  C   UNL     1     -12.067   8.935  36.687  0.00  0.00    +0.414 C 
ATOM     42  O   UNL     1     -11.571   7.875  37.067  0.00  0.00    -0.240 OA
ATOM     43  O   UNL     1     -13.159   8.919  36.118  0.00  0.00    -0.240 OA
ENDBRANCH  32  41
BRANCH  34  44
ATOM     44  O   UNL     1      -7.879   9.678  35.428  0.00  0.00    -0.390 OA
ATOM     45  H   UNL     1      -7.561   9.832  34.535  0.00  0.00    +0.210 HD
ENDBRANCH  34  44
BRANCH  32  46
ATOM     46  O   UNL     1     -11.670  10.793  38.230  0.00  0.00    -0.343 OA
ATOM     47  C   UNL     1     -12.261  12.117  38.222  0.00  0.00    +0.198 C 
ENDBRANCH  32  46
ENDBRANCH  29  30
BRANCH  29  48
ATOM     48  O   UNL     1     -11.767  11.666  32.259  0.00  0.00    -0.387 OA
ATOM     49  H   UNL     1     -10.915  11.245  32.123  0.00  0.00    +0.210 HD
ENDBRANCH  29  48
ENDBRANCH  26  29
ENDBRANCH   1  26
TORSDOF 14
