REMARK  Name = lig_assembled_82.pdb
REMARK  19 active torsions:
REMARK  status: ('A' for Active; 'I' for Inactive)
REMARK    1  A    between atoms: _2  and  _9
REMARK    2  A    between atoms: _4  and  _22
REMARK    3  A    between atoms: _5  and  _16
REMARK    4  A    between atoms: _6  and  _7
REMARK    5  A    between atoms: _6  and  _22
REMARK    6  A    between atoms: _9  and  _10
REMARK    7  A    between atoms: _16  and  _17
REMARK    8  A    between atoms: _18  and  _38
REMARK    9  A    between atoms: _20  and  _26
REMARK   10  A    between atoms: _21  and  _25
REMARK   11  A    between atoms: _25  and  _26
REMARK   12  A    between atoms: _28  and  _29
REMARK   13  A    between atoms: _30  and  _31
REMARK   14  A    between atoms: _32  and  _34
REMARK   15  A    between atoms: _34  and  _35
REMARK   16  A    between atoms: _34  and  _36
REMARK   17  A    between atoms: _36  and  _37
REMARK   18  A    between atoms: _36  and  _38
REMARK   19  A    between atoms: _39  and  _41
REMARK                            x       y       z     vdW  Elec       q    Type
REMARK                         _______ _______ _______ _____ _____    ______ ____
ROOT
ATOM      1  C   UNL     1     -10.312  17.138  31.665  0.00  0.00    +0.163 C 
ENDROOT
BRANCH   1   2
ATOM      2  O   UNL     1     -10.410  17.071  30.233  0.00  0.00    -0.388 OA
ATOM      3  H   UNL     1     -10.635  17.938  29.887  0.00  0.00    +0.210 HD
ENDBRANCH   1   2
BRANCH   1   4
ATOM      4  C   UNL     1      -9.155  18.047  32.067  0.00  0.00    +0.141 C 
BRANCH   4   7
ATOM      5  C   UNL     1      -7.010  17.878  30.852  0.00  0.00    +0.401 C 
ATOM      6  O   UNL     1      -6.466  17.188  31.717  0.00  0.00    -0.226 OA
ATOM      7  N   UNL     1      -8.262  18.329  30.936  0.00  0.00    -0.279 N 
ATOM      8  H   UNL     1      -8.617  18.896  30.179  0.00  0.00    +0.152 HD
BRANCH   5   9
ATOM      9  O   UNL     1      -6.271  18.232  29.680  0.00  0.00    -0.444 OA
BRANCH   9  10
ATOM     10  C   UNL     1      -6.037  17.063  28.891  0.00  0.00    +0.292 C 
BRANCH  10  12
ATOM     11  N   UNL     1      -8.429  16.828  28.301  0.00  0.00    -0.131 NA
ATOM     12  C   UNL     1      -7.111  16.868  27.911  0.00  0.00    +0.120 A 
ATOM     13  C   UNL     1      -7.054  16.691  26.541  0.00  0.00    +0.137 A 
ATOM     14  N   UNL     1      -8.346  16.421  26.185  0.00  0.00    -0.247 N 
ATOM     15  N   UNL     1      -9.176  16.594  27.231  0.00  0.00    -0.065 NA
BRANCH  14  16
ATOM     16  C   UNL     1      -8.852  15.910  24.909  0.00  0.00    +0.176 C 
BRANCH  16  17
ATOM     17  C   UNL     1      -8.898  14.402  24.866  0.00  0.00    -0.049 C 
ATOM     18  C   UNL     1     -10.139  13.729  25.360  0.00  0.00    +0.023 C 
ATOM     19  C   UNL     1     -10.632  12.405  24.619  0.00  0.00    -0.025 C 
ATOM     20  C   UNL     1     -10.540  11.978  23.149  0.00  0.00    +0.012 C 
ATOM     21  C   UNL     1      -9.415  11.761  25.434  0.00  0.00    -0.000 C 
ATOM     22  C   UNL     1      -8.000  12.082  24.856  0.00  0.00    +0.031 C 
ATOM     23  C   UNL     1     -12.130  12.302  25.000  0.00  0.00    +0.012 C 
ATOM     24  C   UNL     1      -9.766  12.768  26.560  0.00  0.00    +0.012 C 
ATOM     25  C   UNL     1      -7.872  13.574  24.593  0.00  0.00    -0.025 C 
ENDBRANCH  16  17
ENDBRANCH  14  16
ENDBRANCH  10  12
ENDBRANCH   9  10
ENDBRANCH   5   9
ENDBRANCH   4   7
ENDBRANCH   1   4
BRANCH   1  26
ATOM     26  C   UNL     1     -10.100  15.739  32.268  0.00  0.00    +0.175 C 
BRANCH  26  27
ATOM     27  C   UNL     1     -10.969  14.675  31.581  0.00  0.00    +0.176 C 
ATOM     28  O   UNL     1     -12.237  15.294  31.228  0.00  0.00    -0.332 OA
ATOM     29  C   UNL     1     -13.161  14.452  30.462  0.00  0.00    +0.277 C 
ATOM     30  C   UNL     1     -13.419  13.118  31.205  0.00  0.00    +0.110 C 
ATOM     31  C   UNL     1     -12.099  12.438  31.629  0.00  0.00    +0.143 C 
ATOM     32  C   UNL     1     -11.213  13.404  32.415  0.00  0.00    +0.133 C 
BRANCH  32  33
ATOM     33  N   UNL     1      -9.923  12.774  32.738  0.00  0.00    -0.308 N 
ATOM     34  H   UNL     1      -9.660  12.711  33.712  0.00  0.00    +0.149 HD
ATOM     35  C   UNL     1      -9.079  12.279  31.830  0.00  0.00    +0.210 C 
ATOM     36  C   UNL     1      -9.497  12.414  30.353  0.00  0.00    +0.109 C 
ATOM     37  O   UNL     1      -8.012  11.743  32.130  0.00  0.00    -0.276 OA
ENDBRANCH  32  33
BRANCH  29  38
ATOM     38  C   UNL     1     -12.598  14.159  29.056  0.00  0.00    +0.414 C 
ATOM     39  O   UNL     1     -11.863  14.974  28.501  0.00  0.00    -0.240 OA
ATOM     40  O   UNL     1     -12.879  13.109  28.477  0.00  0.00    -0.240 OA
ENDBRANCH  29  38
BRANCH  29  41
ATOM     41  O   UNL     1     -14.422  15.161  30.346  0.00  0.00    -0.343 OA
ATOM     42  C   UNL     1     -15.550  14.512  30.985  0.00  0.00    +0.198 C 
ENDBRANCH  29  41
BRANCH  31  43
ATOM     43  O   UNL     1     -12.384  11.296  32.438  0.00  0.00    -0.390 OA
ATOM     44  H   UNL     1     -11.610  11.071  32.959  0.00  0.00    +0.210 HD
ENDBRANCH  31  43
ENDBRANCH  26  27
BRANCH  26  45
ATOM     45  O   UNL     1     -10.370  15.762  33.684  0.00  0.00    -0.387 OA
ATOM     46  H   UNL     1     -11.312  15.647  33.832  0.00  0.00    +0.210 HD
ENDBRANCH  26  45
ENDBRANCH   1  26
TORSDOF 15
