REMARK  Name = lig_assembled_47.pdb
REMARK  22 active torsions:
REMARK  status: ('A' for Active; 'I' for Inactive)
REMARK    1  A    between atoms: _2  and  _9
REMARK    2  A    between atoms: _4  and  _30
REMARK    3  A    between atoms: _6  and  _7
REMARK    4  A    between atoms: _6  and  _30
REMARK    5  A    between atoms: _9  and  _10
REMARK    6  A    between atoms: _10  and  _11
REMARK    7  A    between atoms: _10  and  _12
REMARK    8  A    between atoms: _11  and  _24
REMARK    9  A    between atoms: _12  and  _13
REMARK   10  A    between atoms: _12  and  _19
REMARK   11  A    between atoms: _26  and  _46
REMARK   12  A    between atoms: _28  and  _34
REMARK   13  A    between atoms: _29  and  _33
REMARK   14  A    between atoms: _33  and  _34
REMARK   15  A    between atoms: _36  and  _37
REMARK   16  A    between atoms: _38  and  _39
REMARK   17  A    between atoms: _40  and  _42
REMARK   18  A    between atoms: _42  and  _43
REMARK   19  A    between atoms: _42  and  _44
REMARK   20  A    between atoms: _44  and  _45
REMARK   21  A    between atoms: _44  and  _46
REMARK   22  A    between atoms: _47  and  _49
REMARK                            x       y       z     vdW  Elec       q    Type
REMARK                         _______ _______ _______ _____ _____    ______ ____
ROOT
ATOM      1  C   UNL     1     -14.046  -1.091  25.950  0.00  0.00    +0.401 C 
ATOM      2  O   UNL     1     -15.239  -1.353  26.116  0.00  0.00    -0.226 OA
ATOM      3  N   UNL     1     -13.173  -0.928  26.945  0.00  0.00    -0.279 N 
ATOM      4  H   UNL     1     -12.212  -0.725  26.708  0.00  0.00    +0.152 HD
ENDROOT
BRANCH   3   5
ATOM      5  C   UNL     1     -13.529  -1.028  28.366  0.00  0.00    +0.141 C 
BRANCH   5   6
ATOM      6  C   UNL     1     -12.429  -0.478  29.268  0.00  0.00    +0.163 C 
BRANCH   6   7
ATOM      7  O   UNL     1     -12.946   0.591  30.076  0.00  0.00    -0.388 OA
ATOM      8  H   UNL     1     -13.202   1.325  29.512  0.00  0.00    +0.210 HD
ENDBRANCH   6   7
BRANCH   6   9
ATOM      9  C   UNL     1     -11.871  -1.611  30.146  0.00  0.00    +0.175 C 
BRANCH   9  10
ATOM     10  C   UNL     1     -12.842  -2.006  31.268  0.00  0.00    +0.176 C 
ATOM     11  O   UNL     1     -12.442  -1.302  32.475  0.00  0.00    -0.332 OA
ATOM     12  C   UNL     1     -13.324  -1.476  33.633  0.00  0.00    +0.277 C 
ATOM     13  C   UNL     1     -13.518  -2.980  33.944  0.00  0.00    +0.110 C 
ATOM     14  C   UNL     1     -13.914  -3.776  32.683  0.00  0.00    +0.143 C 
ATOM     15  C   UNL     1     -12.931  -3.519  31.541  0.00  0.00    +0.133 C 
BRANCH  15  16
ATOM     16  N   UNL     1     -13.367  -4.214  30.319  0.00  0.00    -0.308 N 
ATOM     17  H   UNL     1     -12.735  -4.888  29.909  0.00  0.00    +0.149 HD
ATOM     18  C   UNL     1     -14.543  -4.014  29.718  0.00  0.00    +0.210 C 
ATOM     19  C   UNL     1     -15.472  -2.963  30.354  0.00  0.00    +0.109 C 
ATOM     20  O   UNL     1     -14.887  -4.622  28.704  0.00  0.00    -0.276 OA
ENDBRANCH  15  16
BRANCH  12  21
ATOM     21  C   UNL     1     -14.697  -0.821  33.377  0.00  0.00    +0.414 C 
ATOM     22  O   UNL     1     -14.813   0.069  32.535  0.00  0.00    -0.240 OA
ATOM     23  O   UNL     1     -15.689  -1.182  34.012  0.00  0.00    -0.240 OA
ENDBRANCH  12  21
BRANCH  12  24
ATOM     24  O   UNL     1     -12.690  -0.849  34.778  0.00  0.00    -0.343 OA
ATOM     25  C   UNL     1     -11.659   0.117  34.454  0.00  0.00    +0.198 C 
ENDBRANCH  12  24
BRANCH  14  26
ATOM     26  O   UNL     1     -13.934  -5.173  32.982  0.00  0.00    -0.390 OA
ATOM     27  H   UNL     1     -13.854  -5.676  32.168  0.00  0.00    +0.210 HD
ENDBRANCH  14  26
ENDBRANCH   9  10
BRANCH   9  28
ATOM     28  O   UNL     1     -10.598  -1.226  30.704  0.00  0.00    -0.387 OA
ATOM     29  H   UNL     1     -10.741  -0.719  31.506  0.00  0.00    +0.210 HD
ENDBRANCH   9  28
ENDBRANCH   6   9
ENDBRANCH   5   6
ENDBRANCH   3   5
BRANCH   1  30
ATOM     30  O   UNL     1     -13.544  -0.952  24.618  0.00  0.00    -0.444 OA
BRANCH  30  31
ATOM     31  C   UNL     1     -12.272  -0.300  24.652  0.00  0.00    +0.292 C 
BRANCH  31  33
ATOM     32  N   UNL     1     -13.333   1.867  25.236  0.00  0.00    -0.131 NA
ATOM     33  C   UNL     1     -12.336   0.948  25.438  0.00  0.00    +0.120 A 
ATOM     34  C   UNL     1     -11.485   1.421  26.413  0.00  0.00    +0.137 A 
ATOM     35  N   UNL     1     -11.990   2.648  26.728  0.00  0.00    -0.251 N 
ATOM     36  N   UNL     1     -13.112   2.904  26.034  0.00  0.00    -0.065 NA
BRANCH  35  37
ATOM     37  C   UNL     1     -11.384   3.683  27.554  0.00  0.00    +0.160 C 
BRANCH  37  38
ATOM     38  C   UNL     1     -11.958   3.761  28.971  0.00  0.00    +0.131 C 
BRANCH  38  39
ATOM     39  C   UNL     1     -10.815   3.492  29.942  0.00  0.00    +0.311 C 
ATOM     40  O   UNL     1     -10.263   2.406  30.031  0.00  0.00    -0.251 OA
BRANCH  39  41
ATOM     41  O   UNL     1     -10.349   4.547  30.641  0.00  0.00    -0.480 OA
ATOM     42  H   UNL     1     -10.866   5.370  30.646  0.00  0.00    +0.295 HD
ENDBRANCH  39  41
ENDBRANCH  38  39
BRANCH  38  43
ATOM     43  C   UNL     1     -12.701   5.094  29.302  0.00  0.00    +0.064 C 
BRANCH  43  44
ATOM     44  C   UNL     1     -13.060   5.306  30.774  0.00  0.00    -0.039 A 
ATOM     45  C   UNL     1     -14.206   4.688  31.310  0.00  0.00    +0.004 A 
ATOM     46  C   UNL     1     -14.562   4.862  32.652  0.00  0.00    +0.000 A 
ATOM     47  C   UNL     1     -13.790   5.671  33.479  0.00  0.00    +0.000 A 
ATOM     48  C   UNL     1     -12.665   6.306  32.963  0.00  0.00    +0.000 A 
ATOM     49  C   UNL     1     -12.297   6.118  31.626  0.00  0.00    +0.004 A 
ENDBRANCH  43  44
BRANCH  43  50
ATOM     50  C   UNL     1     -11.952   6.285  28.691  0.00  0.00    -0.039 A 
ATOM     51  C   UNL     1     -10.550   6.280  28.617  0.00  0.00    +0.004 A 
ATOM     52  C   UNL     1      -9.856   7.428  28.221  0.00  0.00    +0.000 A 
ATOM     53  C   UNL     1     -10.550   8.583  27.871  0.00  0.00    +0.000 A 
ATOM     54  C   UNL     1     -11.939   8.592  27.902  0.00  0.00    +0.000 A 
ATOM     55  C   UNL     1     -12.634   7.453  28.309  0.00  0.00    +0.004 A 
ENDBRANCH  43  50
ENDBRANCH  38  43
ENDBRANCH  37  38
ENDBRANCH  35  37
ENDBRANCH  31  33
ENDBRANCH  30  31
ENDBRANCH   1  30
TORSDOF 20
