REMARK  Name = lig_assembled_34.pdb
REMARK  19 active torsions:
REMARK  status: ('A' for Active; 'I' for Inactive)
REMARK    1  A    between atoms: _2  and  _9
REMARK    2  A    between atoms: _4  and  _37
REMARK    3  A    between atoms: _6  and  _7
REMARK    4  A    between atoms: _6  and  _37
REMARK    5  A    between atoms: _11  and  _12
REMARK    6  A    between atoms: _13  and  _14
REMARK    7  A    between atoms: _18  and  _31
REMARK    8  A    between atoms: _33  and  _53
REMARK    9  A    between atoms: _35  and  _41
REMARK   10  A    between atoms: _36  and  _40
REMARK   11  A    between atoms: _40  and  _41
REMARK   12  A    between atoms: _43  and  _44
REMARK   13  A    between atoms: _45  and  _46
REMARK   14  A    between atoms: _47  and  _49
REMARK   15  A    between atoms: _49  and  _50
REMARK   16  A    between atoms: _49  and  _51
REMARK   17  A    between atoms: _51  and  _52
REMARK   18  A    between atoms: _51  and  _53
REMARK   19  A    between atoms: _54  and  _56
REMARK                            x       y       z     vdW  Elec       q    Type
REMARK                         _______ _______ _______ _____ _____    ______ ____
ROOT
ATOM      1  N   UNL     1     -13.419   0.678  20.375  0.00  0.00    -0.131 NA
ATOM      2  C   UNL     1     -13.774   1.340  19.234  0.00  0.00    +0.121 A 
ATOM      3  C   UNL     1     -13.081   2.523  19.173  0.00  0.00    +0.143 A 
ATOM      4  N   UNL     1     -12.278   2.540  20.293  0.00  0.00    -0.220 N 
ATOM      5  N   UNL     1     -12.521   1.418  21.023  0.00  0.00    -0.060 NA
ENDROOT
BRANCH   4   6
ATOM      6  C   UNL     1     -11.305   3.508  20.657  0.00  0.00    +0.068 A 
ATOM      7  C   UNL     1      -9.957   3.141  20.728  0.00  0.00    +0.038 A 
ATOM      8  C   UNL     1      -8.951   4.016  21.207  0.00  0.00    +0.007 A 
ATOM      9  C   UNL     1      -9.314   5.333  21.554  0.00  0.00    -0.008 A 
ATOM     10  C   UNL     1     -10.673   5.712  21.432  0.00  0.00    +0.011 A 
ATOM     11  C   UNL     1     -11.664   4.810  21.006  0.00  0.00    +0.028 A 
BRANCH   9  12
ATOM     12  C   UNL     1      -8.376   6.354  22.125  0.00  0.00    +0.004 A 
ATOM     13  C   UNL     1      -7.694   7.237  21.341  0.00  0.00    +0.026 A 
ATOM     14  C   UNL     1      -7.773   7.224  19.875  0.00  0.00    +0.016 A 
ATOM     15  C   UNL     1      -6.955   7.973  19.121  0.00  0.00    +0.051 A 
ATOM     16  C   UNL     1      -5.959   8.872  19.752  0.00  0.00    +0.183 A 
ATOM     17  O   UNL     1      -5.161   9.514  19.074  0.00  0.00    -0.288 OA
ATOM     18  C   UNL     1      -6.013   9.025  21.219  0.00  0.00    +0.097 A 
ATOM     19  C   UNL     1      -6.851   8.282  21.953  0.00  0.00    +0.140 A 
ATOM     20  O   UNL     1      -6.964   8.561  23.307  0.00  0.00    -0.455 OA
ATOM     21  C   UNL     1      -7.613   7.660  24.109  0.00  0.00    +0.140 A 
ATOM     22  C   UNL     1      -7.618   7.941  25.475  0.00  0.00    +0.092 A 
ATOM     23  C   UNL     1      -8.207   7.043  26.352  0.00  0.00    +0.120 A 
ATOM     24  C   UNL     1      -8.717   5.835  25.886  0.00  0.00    +0.046 A 
ATOM     25  C   UNL     1      -8.716   5.574  24.513  0.00  0.00    +0.016 A 
ATOM     26  C   UNL     1      -8.219   6.515  23.598  0.00  0.00    +0.026 A 
BRANCH  23  27
ATOM     27  O   UNL     1      -8.281   7.380  27.670  0.00  0.00    -0.507 OA
ATOM     28  H   UNL     1      -8.874   6.744  28.103  0.00  0.00    +0.292 HD
ENDBRANCH  23  27
ENDBRANCH   9  12
BRANCH   8  29
ATOM     29  C   UNL     1      -7.565   3.424  21.378  0.00  0.00    +0.072 C 
ATOM     30  O   UNL     1      -6.776   3.554  20.388  0.00  0.00    -0.545 OA
ATOM     31  O   UNL     1      -7.312   2.785  22.441  0.00  0.00    -0.545 OA
ENDBRANCH   8  29
ENDBRANCH   4   6
BRANCH   2  32
ATOM     32  C   UNL     1     -14.755   0.795  18.275  0.00  0.00    +0.292 C 
BRANCH  32  33
ATOM     33  O   UNL     1     -15.981   1.528  18.332  0.00  0.00    -0.444 OA
BRANCH  33  34
ATOM     34  C   UNL     1     -16.674   1.209  19.541  0.00  0.00    +0.401 C 
ATOM     35  O   UNL     1     -17.212   2.115  20.181  0.00  0.00    -0.226 OA
ATOM     36  N   UNL     1     -16.697  -0.075  19.903  0.00  0.00    -0.279 N 
ATOM     37  H   UNL     1     -16.234  -0.747  19.307  0.00  0.00    +0.152 HD
BRANCH  36  38
ATOM     38  C   UNL     1     -17.356  -0.566  21.120  0.00  0.00    +0.141 C 
BRANCH  38  39
ATOM     39  C   UNL     1     -16.370  -0.742  22.270  0.00  0.00    +0.163 C 
BRANCH  39  40
ATOM     40  O   UNL     1     -16.620   0.243  23.286  0.00  0.00    -0.388 OA
ATOM     41  H   UNL     1     -16.446   1.119  22.934  0.00  0.00    +0.210 HD
ENDBRANCH  39  40
BRANCH  39  42
ATOM     42  C   UNL     1     -16.494  -2.165  22.840  0.00  0.00    +0.175 C 
BRANCH  42  43
ATOM     43  C   UNL     1     -15.135  -2.874  22.926  0.00  0.00    +0.176 C 
ATOM     44  O   UNL     1     -14.341  -2.460  21.780  0.00  0.00    -0.332 OA
ATOM     45  C   UNL     1     -12.963  -2.958  21.750  0.00  0.00    +0.277 C 
ATOM     46  C   UNL     1     -12.943  -4.502  21.871  0.00  0.00    +0.110 C 
ATOM     47  C   UNL     1     -13.799  -4.992  23.057  0.00  0.00    +0.143 C 
ATOM     48  C   UNL     1     -15.212  -4.411  22.991  0.00  0.00    +0.133 C 
BRANCH  48  49
ATOM     49  N   UNL     1     -15.992  -4.814  24.172  0.00  0.00    -0.308 N 
ATOM     50  H   UNL     1     -16.869  -5.290  24.017  0.00  0.00    +0.149 HD
ATOM     51  C   UNL     1     -15.615  -4.593  25.434  0.00  0.00    +0.210 C 
ATOM     52  C   UNL     1     -14.285  -3.843  25.635  0.00  0.00    +0.109 C 
ATOM     53  O   UNL     1     -16.281  -4.956  26.404  0.00  0.00    -0.276 OA
ENDBRANCH  48  49
BRANCH  45  54
ATOM     54  C   UNL     1     -12.133  -2.341  22.895  0.00  0.00    +0.414 C 
ATOM     55  O   UNL     1     -12.354  -1.190  23.271  0.00  0.00    -0.240 OA
ATOM     56  O   UNL     1     -11.243  -2.993  23.443  0.00  0.00    -0.240 OA
ENDBRANCH  45  54
BRANCH  47  57
ATOM     57  O   UNL     1     -13.876  -6.418  23.040  0.00  0.00    -0.390 OA
ATOM     58  H   UNL     1     -14.639  -6.704  23.546  0.00  0.00    +0.210 HD
ENDBRANCH  47  57
BRANCH  45  59
ATOM     59  O   UNL     1     -12.381  -2.592  20.473  0.00  0.00    -0.343 OA
ATOM     60  C   UNL     1     -13.263  -2.743  19.332  0.00  0.00    +0.198 C 
ENDBRANCH  45  59
ENDBRANCH  42  43
BRANCH  42  61
ATOM     61  O   UNL     1     -17.410  -2.942  22.042  0.00  0.00    -0.387 OA
ATOM     62  H   UNL     1     -16.942  -3.318  21.293  0.00  0.00    +0.210 HD
ENDBRANCH  42  61
ENDBRANCH  39  42
ENDBRANCH  38  39
ENDBRANCH  36  38
ENDBRANCH  33  34
ENDBRANCH  32  33
ENDBRANCH   2  32
TORSDOF 17
