REMARK  Name = lig_assembled_80.pdb
REMARK  16 active torsions:
REMARK  status: ('A' for Active; 'I' for Inactive)
REMARK    1  A    between atoms: _2  and  _10
REMARK    2  A    between atoms: _5  and  _24
REMARK    3  A    between atoms: _7  and  _8
REMARK    4  A    between atoms: _7  and  _24
REMARK    5  A    between atoms: _20  and  _40
REMARK    6  A    between atoms: _22  and  _28
REMARK    7  A    between atoms: _23  and  _27
REMARK    8  A    between atoms: _27  and  _28
REMARK    9  A    between atoms: _30  and  _31
REMARK   10  A    between atoms: _32  and  _33
REMARK   11  A    between atoms: _34  and  _36
REMARK   12  A    between atoms: _36  and  _37
REMARK   13  A    between atoms: _36  and  _38
REMARK   14  A    between atoms: _38  and  _39
REMARK   15  A    between atoms: _38  and  _40
REMARK   16  A    between atoms: _41  and  _43
REMARK                            x       y       z     vdW  Elec       q    Type
REMARK                         _______ _______ _______ _____ _____    ______ ____
ROOT
ATOM      1  C   UNL     1     -16.593   9.382  33.510  0.00  0.00    +0.141 C 
ENDROOT
BRANCH   1   4
ATOM      2  C   UNL     1     -17.598   9.657  35.751  0.00  0.00    +0.401 C 
ATOM      3  O   UNL     1     -16.577  10.133  36.254  0.00  0.00    -0.226 OA
ATOM      4  N   UNL     1     -17.692   9.272  34.478  0.00  0.00    -0.279 N 
ATOM      5  H   UNL     1     -18.569   8.884  34.160  0.00  0.00    +0.152 HD
BRANCH   2   6
ATOM      6  O   UNL     1     -18.762   9.494  36.566  0.00  0.00    -0.444 OA
BRANCH   6   7
ATOM      7  C   UNL     1     -18.614   8.329  37.382  0.00  0.00    +0.292 C 
BRANCH   7   9
ATOM      8  N   UNL     1     -17.862   6.445  35.983  0.00  0.00    -0.131 NA
ATOM      9  C   UNL     1     -18.889   7.110  36.595  0.00  0.00    +0.120 A 
ATOM     10  C   UNL     1     -20.075   6.456  36.344  0.00  0.00    +0.138 A 
ATOM     11  N   UNL     1     -19.709   5.425  35.520  0.00  0.00    -0.239 N 
ATOM     12  N   UNL     1     -18.370   5.404  35.337  0.00  0.00    -0.065 NA
BRANCH  11  13
ATOM     13  C   UNL     1     -20.510   4.312  34.996  0.00  0.00    +0.195 C 
ATOM     14  C   UNL     1     -20.165   4.120  33.526  0.00  0.00    +0.041 C 
ATOM     15  C   UNL     1     -21.152   3.191  32.851  0.00  0.00    +0.039 C 
ATOM     16  C   UNL     1     -20.738   1.769  33.064  0.00  0.00    -0.026 A 
ATOM     17  C   UNL     1     -20.707   1.176  34.328  0.00  0.00    +0.037 A 
ATOM     18  C   UNL     1     -20.426  -0.197  34.434  0.00  0.00    +0.023 A 
ATOM     19  C   UNL     1     -20.064  -0.947  33.317  0.00  0.00    +0.002 A 
ATOM     20  C   UNL     1     -20.022  -0.341  32.070  0.00  0.00    +0.000 A 
ATOM     21  N   UNL     1     -20.853   1.849  35.553  0.00  0.00    -0.284 N 
ATOM     22  H   UNL     1     -20.830   1.249  36.372  0.00  0.00    +0.155 HD
ATOM     23  C   UNL     1     -20.381   0.999  31.941  0.00  0.00    +0.005 A 
ATOM     24  C   UNL     1     -20.445   3.100  35.918  0.00  0.00    +0.242 C 
ATOM     25  O   UNL     1     -20.115   3.208  37.105  0.00  0.00    -0.273 OA
ENDBRANCH  11  13
ENDBRANCH   7   9
ENDBRANCH   6   7
ENDBRANCH   2   6
ENDBRANCH   1   4
BRANCH   1  26
ATOM     26  C   UNL     1     -16.121   8.014  33.029  0.00  0.00    +0.163 C 
BRANCH  26  27
ATOM     27  O   UNL     1     -15.857   7.161  34.155  0.00  0.00    -0.388 OA
ATOM     28  H   UNL     1     -15.125   7.518  34.664  0.00  0.00    +0.210 HD
ENDBRANCH  26  27
BRANCH  26  29
ATOM     29  C   UNL     1     -17.188   7.396  32.109  0.00  0.00    +0.175 C 
BRANCH  29  30
ATOM     30  C   UNL     1     -17.562   8.330  30.950  0.00  0.00    +0.176 C 
ATOM     31  O   UNL     1     -18.977   8.646  31.069  0.00  0.00    -0.332 OA
ATOM     32  C   UNL     1     -19.493   9.618  30.101  0.00  0.00    +0.277 C 
ATOM     33  C   UNL     1     -19.179   9.161  28.655  0.00  0.00    +0.110 C 
ATOM     34  C   UNL     1     -17.692   8.785  28.488  0.00  0.00    +0.143 C 
ATOM     35  C   UNL     1     -17.260   7.771  29.547  0.00  0.00    +0.133 C 
BRANCH  35  36
ATOM     36  N   UNL     1     -15.821   7.486  29.432  0.00  0.00    -0.308 N 
ATOM     37  H   UNL     1     -15.177   8.254  29.556  0.00  0.00    +0.149 HD
ATOM     38  C   UNL     1     -15.311   6.278  29.174  0.00  0.00    +0.210 C 
ATOM     39  C   UNL     1     -16.320   5.134  28.965  0.00  0.00    +0.109 C 
ATOM     40  O   UNL     1     -14.100   6.066  29.098  0.00  0.00    -0.276 OA
ENDBRANCH  35  36
BRANCH  32  41
ATOM     41  C   UNL     1     -18.881  11.012  30.346  0.00  0.00    +0.414 C 
ATOM     42  O   UNL     1     -18.603  11.744  29.396  0.00  0.00    -0.240 OA
ATOM     43  O   UNL     1     -18.664  11.406  31.493  0.00  0.00    -0.240 OA
ENDBRANCH  32  41
BRANCH  34  44
ATOM     44  O   UNL     1     -17.478   8.229  27.190  0.00  0.00    -0.390 OA
ATOM     45  H   UNL     1     -16.672   7.708  27.192  0.00  0.00    +0.210 HD
ENDBRANCH  34  44
BRANCH  32  46
ATOM     46  O   UNL     1     -20.935   9.684  30.256  0.00  0.00    -0.343 OA
ATOM     47  C   UNL     1     -21.460   8.971  31.404  0.00  0.00    +0.198 C 
ENDBRANCH  32  46
ENDBRANCH  29  30
BRANCH  29  48
ATOM     48  O   UNL     1     -18.363   7.054  32.871  0.00  0.00    -0.387 OA
ATOM     49  H   UNL     1     -18.927   7.826  32.953  0.00  0.00    +0.210 HD
ENDBRANCH  29  48
ENDBRANCH  26  29
ENDBRANCH   1  26
TORSDOF 14
