REMARK  Name = lig_assembled_88.pdb
REMARK  18 active torsions:
REMARK  status: ('A' for Active; 'I' for Inactive)
REMARK    1  A    between atoms: _2  and  _9
REMARK    2  A    between atoms: _4  and  _20
REMARK    3  A    between atoms: _5  and  _15
REMARK    4  A    between atoms: _6  and  _7
REMARK    5  A    between atoms: _6  and  _20
REMARK    6  A    between atoms: _9  and  _10
REMARK    7  A    between atoms: _16  and  _36
REMARK    8  A    between atoms: _18  and  _24
REMARK    9  A    between atoms: _19  and  _23
REMARK   10  A    between atoms: _23  and  _24
REMARK   11  A    between atoms: _26  and  _27
REMARK   12  A    between atoms: _28  and  _29
REMARK   13  A    between atoms: _30  and  _32
REMARK   14  A    between atoms: _32  and  _33
REMARK   15  A    between atoms: _32  and  _34
REMARK   16  A    between atoms: _34  and  _35
REMARK   17  A    between atoms: _34  and  _36
REMARK   18  A    between atoms: _37  and  _39
REMARK                            x       y       z     vdW  Elec       q    Type
REMARK                         _______ _______ _______ _____ _____    ______ ____
ROOT
ATOM      1  C   UNL     1     -14.318  21.030  37.733  0.00  0.00    +0.163 C 
ENDROOT
BRANCH   1   2
ATOM      2  O   UNL     1     -13.198  21.695  37.124  0.00  0.00    -0.388 OA
ATOM      3  H   UNL     1     -13.458  22.580  36.857  0.00  0.00    +0.210 HD
ENDBRANCH   1   2
BRANCH   1   4
ATOM      4  C   UNL     1     -13.984  19.560  38.038  0.00  0.00    +0.175 C 
BRANCH   4   5
ATOM      5  C   UNL     1     -14.831  18.589  37.202  0.00  0.00    +0.176 C 
ATOM      6  O   UNL     1     -16.049  19.281  36.811  0.00  0.00    -0.332 OA
ATOM      7  C   UNL     1     -16.939  18.540  35.912  0.00  0.00    +0.277 C 
ATOM      8  C   UNL     1     -17.293  17.160  36.518  0.00  0.00    +0.110 C 
ATOM      9  C   UNL     1     -16.031  16.400  36.979  0.00  0.00    +0.143 C 
ATOM     10  C   UNL     1     -15.177  17.264  37.906  0.00  0.00    +0.133 C 
BRANCH  10  11
ATOM     11  N   UNL     1     -13.936  16.561  38.268  0.00  0.00    -0.308 N 
ATOM     12  H   UNL     1     -13.742  16.422  39.250  0.00  0.00    +0.149 HD
ATOM     13  C   UNL     1     -13.050  16.096  37.384  0.00  0.00    +0.210 C 
ATOM     14  C   UNL     1     -13.362  16.347  35.897  0.00  0.00    +0.109 C 
ATOM     15  O   UNL     1     -12.026  15.498  37.716  0.00  0.00    -0.276 OA
ENDBRANCH  10  11
BRANCH   7  16
ATOM     16  C   UNL     1     -16.280  18.342  34.531  0.00  0.00    +0.414 C 
ATOM     17  O   UNL     1     -15.621  19.249  34.022  0.00  0.00    -0.240 OA
ATOM     18  O   UNL     1     -16.407  17.277  33.925  0.00  0.00    -0.240 OA
ENDBRANCH   7  16
BRANCH   7  19
ATOM     19  O   UNL     1     -18.164  19.303  35.764  0.00  0.00    -0.343 OA
ATOM     20  C   UNL     1     -18.110  20.655  36.284  0.00  0.00    +0.198 C 
ENDBRANCH   7  19
BRANCH   9  21
ATOM     21  O   UNL     1     -16.412  15.206  37.665  0.00  0.00    -0.390 OA
ATOM     22  H   UNL     1     -15.686  14.911  38.220  0.00  0.00    +0.210 HD
ENDBRANCH   9  21
ENDBRANCH   4   5
BRANCH   4  23
ATOM     23  O   UNL     1     -14.164  19.292  39.443  0.00  0.00    -0.387 OA
ATOM     24  H   UNL     1     -15.086  19.084  39.615  0.00  0.00    +0.210 HD
ENDBRANCH   4  23
ENDBRANCH   1   4
BRANCH   1  25
ATOM     25  C   UNL     1     -14.709  21.743  39.023  0.00  0.00    +0.141 C 
BRANCH  25  28
ATOM     26  C   UNL     1     -14.866  24.057  39.875  0.00  0.00    +0.401 C 
ATOM     27  O   UNL     1     -15.027  23.715  41.048  0.00  0.00    -0.226 OA
ATOM     28  N   UNL     1     -14.715  23.202  38.862  0.00  0.00    -0.279 N 
ATOM     29  H   UNL     1     -14.599  23.579  37.932  0.00  0.00    +0.152 HD
BRANCH  26  30
ATOM     30  O   UNL     1     -14.841  25.451  39.555  0.00  0.00    -0.444 OA
BRANCH  30  31
ATOM     31  C   UNL     1     -13.993  25.666  38.424  0.00  0.00    +0.292 C 
BRANCH  31  33
ATOM     32  N   UNL     1     -14.857  27.721  37.346  0.00  0.00    -0.131 NA
ATOM     33  C   UNL     1     -14.730  26.357  37.349  0.00  0.00    +0.120 A 
ATOM     34  C   UNL     1     -15.391  25.840  36.257  0.00  0.00    +0.137 A 
ATOM     35  N   UNL     1     -15.960  26.934  35.673  0.00  0.00    -0.247 N 
ATOM     36  N   UNL     1     -15.596  28.067  36.301  0.00  0.00    -0.065 NA
BRANCH  35  37
ATOM     37  C   UNL     1     -16.910  26.972  34.571  0.00  0.00    +0.184 C 
BRANCH  37  38
ATOM     38  C   UNL     1     -17.895  25.820  34.593  0.00  0.00    +0.017 A 
ATOM     39  C   UNL     1     -19.054  25.831  35.392  0.00  0.00    +0.024 A 
ATOM     40  C   UNL     1     -19.940  24.750  35.387  0.00  0.00    +0.019 A 
ATOM     41 BR   UNL     1     -21.460  24.782  36.512  0.00  0.00    -0.050 Br
ATOM     42  C   UNL     1     -19.716  23.650  34.567  0.00  0.00    +0.034 A 
ATOM     43  C   UNL     1     -18.599  23.644  33.735  0.00  0.00    +0.061 A 
ATOM     44 BR   UNL     1     -18.318  22.158  32.592  0.00  0.00    -0.046 Br
ATOM     45  C   UNL     1     -17.701  24.720  33.745  0.00  0.00    +0.136 A 
BRANCH  45  46
ATOM     46  O   UNL     1     -16.607  24.731  32.920  0.00  0.00    -0.505 OA
ATOM     47  H   UNL     1     -16.642  23.923  32.374  0.00  0.00    +0.292 HD
ENDBRANCH  45  46
ENDBRANCH  37  38
ENDBRANCH  35  37
ENDBRANCH  31  33
ENDBRANCH  30  31
ENDBRANCH  26  30
ENDBRANCH  25  28
ENDBRANCH   1  25
TORSDOF 16
