REMARK  Name = lig_assembled_57.pdb
REMARK  17 active torsions:
REMARK  status: ('A' for Active; 'I' for Inactive)
REMARK    1  A    between atoms: _2  and  _10
REMARK    2  A    between atoms: _3  and  _13
REMARK    3  A    between atoms: _5  and  _19
REMARK    4  A    between atoms: _7  and  _8
REMARK    5  A    between atoms: _7  and  _19
REMARK    6  A    between atoms: _15  and  _35
REMARK    7  A    between atoms: _17  and  _23
REMARK    8  A    between atoms: _18  and  _22
REMARK    9  A    between atoms: _22  and  _23
REMARK   10  A    between atoms: _25  and  _26
REMARK   11  A    between atoms: _27  and  _28
REMARK   12  A    between atoms: _29  and  _31
REMARK   13  A    between atoms: _31  and  _32
REMARK   14  A    between atoms: _31  and  _33
REMARK   15  A    between atoms: _33  and  _34
REMARK   16  A    between atoms: _33  and  _35
REMARK   17  A    between atoms: _36  and  _38
REMARK                            x       y       z     vdW  Elec       q    Type
REMARK                         _______ _______ _______ _____ _____    ______ ____
ROOT
ATOM      1  C   UNL     1     -13.663  11.800  35.511  0.00  0.00    +0.163 C 
ENDROOT
BRANCH   1   2
ATOM      2  O   UNL     1     -13.111  11.029  34.431  0.00  0.00    -0.388 OA
ATOM      3  H   UNL     1     -12.432  11.542  33.986  0.00  0.00    +0.210 HD
ENDBRANCH   1   2
BRANCH   1   4
ATOM      4  C   UNL     1     -12.595  12.059  36.568  0.00  0.00    +0.141 C 
BRANCH   4   7
ATOM      5  C   UNL     1     -11.050  10.201  37.084  0.00  0.00    +0.401 C 
ATOM      6  O   UNL     1     -11.702   9.802  38.052  0.00  0.00    -0.226 OA
ATOM      7  N   UNL     1     -11.390  11.252  36.337  0.00  0.00    -0.279 N 
ATOM      8  H   UNL     1     -10.785  11.507  35.569  0.00  0.00    +0.152 HD
BRANCH   5   9
ATOM      9  O   UNL     1      -9.850   9.511  36.724  0.00  0.00    -0.444 OA
BRANCH   9  10
ATOM     10  C   UNL     1      -8.729  10.147  37.346  0.00  0.00    +0.292 C 
BRANCH  10  12
ATOM     11  N   UNL     1      -8.239  11.525  35.357  0.00  0.00    -0.131 NA
ATOM     12  C   UNL     1      -7.804  10.658  36.318  0.00  0.00    +0.120 A 
ATOM     13  C   UNL     1      -6.458  10.424  36.139  0.00  0.00    +0.137 A 
ATOM     14  N   UNL     1      -6.111  11.246  35.109  0.00  0.00    -0.248 N 
ATOM     15  N   UNL     1      -7.204  11.849  34.598  0.00  0.00    -0.065 NA
BRANCH  14  16
ATOM     16  C   UNL     1      -4.805  11.595  34.560  0.00  0.00    +0.111 C 
ATOM     17  C   UNL     1      -4.692  13.112  34.349  0.00  0.00    +0.042 C 
ATOM     18  C   UNL     1      -4.514  13.828  35.686  0.00  0.00    +0.086 C 
ATOM     19  N   UNL     1      -3.325  13.380  36.420  0.00  0.00    -0.305 NA
ATOM     20  C   UNL     1      -3.297  11.930  36.613  0.00  0.00    +0.086 C 
ATOM     21  C   UNL     1      -2.089  13.901  35.843  0.00  0.00    +0.104 C 
ATOM     22  C   UNL     1      -3.582  11.102  35.351  0.00  0.00    +0.042 C 
ENDBRANCH  14  16
ENDBRANCH  10  12
ENDBRANCH   9  10
ENDBRANCH   5   9
ENDBRANCH   4   7
ENDBRANCH   1   4
BRANCH   1  23
ATOM     23  C   UNL     1     -14.856  11.071  36.153  0.00  0.00    +0.175 C 
BRANCH  23  24
ATOM     24  C   UNL     1     -14.678   9.546  36.137  0.00  0.00    +0.176 C 
ATOM     25  O   UNL     1     -15.245   9.043  34.896  0.00  0.00    -0.332 OA
ATOM     26  C   UNL     1     -15.071   7.607  34.656  0.00  0.00    +0.277 C 
ATOM     27  C   UNL     1     -15.618   6.788  35.852  0.00  0.00    +0.110 C 
ATOM     28  C   UNL     1     -15.067   7.307  37.197  0.00  0.00    +0.143 C 
ATOM     29  C   UNL     1     -15.299   8.812  37.340  0.00  0.00    +0.133 C 
BRANCH  29  30
ATOM     30  N   UNL     1     -14.693   9.310  38.586  0.00  0.00    -0.308 N 
ATOM     31  H   UNL     1     -13.700   9.176  38.714  0.00  0.00    +0.149 HD
ATOM     32  C   UNL     1     -15.370   9.927  39.558  0.00  0.00    +0.210 C 
ATOM     33  C   UNL     1     -16.887  10.093  39.344  0.00  0.00    +0.109 C 
ATOM     34  O   UNL     1     -14.834  10.347  40.584  0.00  0.00    -0.276 OA
ENDBRANCH  29  30
BRANCH  26  35
ATOM     35  C   UNL     1     -13.583   7.266  34.436  0.00  0.00    +0.414 C 
ATOM     36  O   UNL     1     -12.887   7.968  33.703  0.00  0.00    -0.240 OA
ATOM     37  O   UNL     1     -13.078   6.288  34.989  0.00  0.00    -0.240 OA
ENDBRANCH  26  35
BRANCH  28  38
ATOM     38  O   UNL     1     -15.710   6.627  38.275  0.00  0.00    -0.390 OA
ATOM     39  H   UNL     1     -15.627   7.147  39.078  0.00  0.00    +0.210 HD
ENDBRANCH  28  38
BRANCH  26  40
ATOM     40  O   UNL     1     -15.834   7.254  33.473  0.00  0.00    -0.343 OA
ATOM     41  C   UNL     1     -17.274   7.309  33.634  0.00  0.00    +0.198 C 
ENDBRANCH  26  40
ENDBRANCH  23  24
BRANCH  23  42
ATOM     42  O   UNL     1     -16.080  11.435  35.484  0.00  0.00    -0.387 OA
ATOM     43  H   UNL     1     -16.199  10.880  34.710  0.00  0.00    +0.210 HD
ENDBRANCH  23  42
ENDBRANCH   1  23
TORSDOF 14
