REMARK  Name = lig_assembled_10.pdb
REMARK  21 active torsions:
REMARK  status: ('A' for Active; 'I' for Inactive)
REMARK    1  A    between atoms: _2  and  _9
REMARK    2  A    between atoms: _4  and  _20
REMARK    3  A    between atoms: _5  and  _9
REMARK    4  A    between atoms: _5  and  _12
REMARK    5  A    between atoms: _6  and  _7
REMARK    6  A    between atoms: _6  and  _20
REMARK    7  A    between atoms: _9  and  _10
REMARK    8  A    between atoms: _10  and  _11
REMARK    9  A    between atoms: _11  and  _14
REMARK   10  A    between atoms: _16  and  _36
REMARK   11  A    between atoms: _18  and  _24
REMARK   12  A    between atoms: _19  and  _23
REMARK   13  A    between atoms: _23  and  _24
REMARK   14  A    between atoms: _26  and  _27
REMARK   15  A    between atoms: _28  and  _29
REMARK   16  A    between atoms: _30  and  _32
REMARK   17  A    between atoms: _32  and  _33
REMARK   18  A    between atoms: _32  and  _34
REMARK   19  A    between atoms: _34  and  _35
REMARK   20  A    between atoms: _34  and  _36
REMARK   21  A    between atoms: _37  and  _39
REMARK                            x       y       z     vdW  Elec       q    Type
REMARK                         _______ _______ _______ _____ _____    ______ ____
ROOT
ATOM      1  C   UNL     1     -17.647  12.122  40.741  0.00  0.00    +0.163 C 
ENDROOT
BRANCH   1   2
ATOM      2  O   UNL     1     -18.818  12.822  40.291  0.00  0.00    -0.388 OA
ATOM      3  H   UNL     1     -19.454  12.877  41.008  0.00  0.00    +0.210 HD
ENDBRANCH   1   2
BRANCH   1   4
ATOM      4  C   UNL     1     -16.667  11.884  39.579  0.00  0.00    +0.175 C 
BRANCH   4   5
ATOM      5  C   UNL     1     -15.221  11.714  40.067  0.00  0.00    +0.176 C 
ATOM      6  O   UNL     1     -14.414  12.751  39.444  0.00  0.00    -0.332 OA
ATOM      7  C   UNL     1     -13.015  12.812  39.877  0.00  0.00    +0.277 C 
ATOM      8  C   UNL     1     -12.331  11.435  39.692  0.00  0.00    +0.110 C 
ATOM      9  C   UNL     1     -13.168  10.296  40.311  0.00  0.00    +0.143 C 
ATOM     10  C   UNL     1     -14.607  10.329  39.794  0.00  0.00    +0.133 C 
BRANCH  10  11
ATOM     11  N   UNL     1     -15.416   9.293  40.456  0.00  0.00    -0.308 N 
ATOM     12  H   UNL     1     -15.933   8.653  39.870  0.00  0.00    +0.149 HD
ATOM     13  C   UNL     1     -15.513   9.145  41.780  0.00  0.00    +0.210 C 
ATOM     14  C   UNL     1     -14.734  10.153  42.645  0.00  0.00    +0.109 C 
ATOM     15  O   UNL     1     -16.187   8.259  42.306  0.00  0.00    -0.276 OA
ENDBRANCH  10  11
BRANCH   7  16
ATOM     16  C   UNL     1     -12.918  13.241  41.356  0.00  0.00    +0.414 C 
ATOM     17  O   UNL     1     -13.659  14.118  41.797  0.00  0.00    -0.240 OA
ATOM     18  O   UNL     1     -12.100  12.710  42.108  0.00  0.00    -0.240 OA
ENDBRANCH   7  16
BRANCH   7  19
ATOM     19  O   UNL     1     -12.328  13.779  39.042  0.00  0.00    -0.343 OA
ATOM     20  C   UNL     1     -12.810  13.862  37.677  0.00  0.00    +0.198 C 
ENDBRANCH   7  19
BRANCH   9  21
ATOM     21  O   UNL     1     -12.581   9.035  39.987  0.00  0.00    -0.390 OA
ATOM     22  H   UNL     1     -13.239   8.342  40.075  0.00  0.00    +0.210 HD
ENDBRANCH   9  21
ENDBRANCH   4   5
BRANCH   4  23
ATOM     23  O   UNL     1     -16.748  12.968  38.632  0.00  0.00    -0.387 OA
ATOM     24  H   UNL     1     -16.181  13.688  38.920  0.00  0.00    +0.210 HD
ENDBRANCH   4  23
ENDBRANCH   1   4
BRANCH   1  25
ATOM     25  C   UNL     1     -16.951  12.920  41.838  0.00  0.00    +0.141 C 
BRANCH  25  28
ATOM     26  C   UNL     1     -17.258  15.371  41.894  0.00  0.00    +0.401 C 
ATOM     27  O   UNL     1     -18.151  15.334  42.744  0.00  0.00    -0.226 OA
ATOM     28  N   UNL     1     -16.646  14.290  41.409  0.00  0.00    -0.279 N 
ATOM     29  H   UNL     1     -15.932  14.422  40.707  0.00  0.00    +0.152 HD
BRANCH  26  30
ATOM     30  O   UNL     1     -16.841  16.638  41.380  0.00  0.00    -0.444 OA
BRANCH  30  31
ATOM     31  C   UNL     1     -16.255  16.460  40.087  0.00  0.00    +0.292 C 
BRANCH  31  33
ATOM     32  N   UNL     1     -15.079  18.571  39.546  0.00  0.00    -0.131 NA
ATOM     33  C   UNL     1     -15.029  17.270  39.967  0.00  0.00    +0.120 A 
ATOM     34  C   UNL     1     -13.720  16.932  40.230  0.00  0.00    +0.138 A 
ATOM     35  N   UNL     1     -13.025  18.079  39.994  0.00  0.00    -0.237 N 
ATOM     36  N   UNL     1     -13.846  19.055  39.558  0.00  0.00    -0.065 NA
BRANCH  35  37
ATOM     37  C   UNL     1     -11.611  18.382  40.137  0.00  0.00    +0.227 C 
BRANCH  37  38
ATOM     38  C   UNL     1     -11.261  19.180  41.375  0.00  0.00    +0.330 C 
ATOM     39  O   UNL     1     -10.558  18.714  42.265  0.00  0.00    -0.249 OA
BRANCH  38  40
ATOM     40  O   UNL     1     -11.716  20.448  41.446  0.00  0.00    -0.479 OA
ATOM     41  H   UNL     1     -12.209  20.789  40.656  0.00  0.00    +0.295 HD
ENDBRANCH  38  40
ENDBRANCH  37  38
BRANCH  37  42
ATOM     42  C   UNL     1     -10.957  18.953  38.871  0.00  0.00    +0.158 C 
BRANCH  42  43
ATOM     43  C   UNL     1     -10.807  17.915  37.795  0.00  0.00    +0.307 C 
ATOM     44  O   UNL     1     -10.291  16.819  37.975  0.00  0.00    -0.251 OA
BRANCH  43  45
ATOM     45  O   UNL     1     -11.367  18.267  36.622  0.00  0.00    -0.481 OA
ATOM     46  H   UNL     1     -11.765  19.159  36.603  0.00  0.00    +0.295 HD
ENDBRANCH  43  45
ENDBRANCH  42  43
ENDBRANCH  37  42
ENDBRANCH  35  37
ENDBRANCH  31  33
ENDBRANCH  30  31
ENDBRANCH  26  30
ENDBRANCH  25  28
ENDBRANCH   1  25
TORSDOF 19
