REMARK  Name = lig_assembled_22.pdb
REMARK  20 active torsions:
REMARK  status: ('A' for Active; 'I' for Inactive)
REMARK    1  A    between atoms: _2  and  _9
REMARK    2  A    between atoms: _4  and  _18
REMARK    3  A    between atoms: _5  and  _9
REMARK    4  A    between atoms: _5  and  _12
REMARK    5  A    between atoms: _6  and  _7
REMARK    6  A    between atoms: _6  and  _18
REMARK    7  A    between atoms: _9  and  _10
REMARK    8  A    between atoms: _9  and  _11
REMARK    9  A    between atoms: _14  and  _34
REMARK   10  A    between atoms: _16  and  _22
REMARK   11  A    between atoms: _17  and  _21
REMARK   12  A    between atoms: _21  and  _22
REMARK   13  A    between atoms: _24  and  _25
REMARK   14  A    between atoms: _26  and  _27
REMARK   15  A    between atoms: _28  and  _30
REMARK   16  A    between atoms: _30  and  _31
REMARK   17  A    between atoms: _30  and  _32
REMARK   18  A    between atoms: _32  and  _33
REMARK   19  A    between atoms: _32  and  _34
REMARK   20  A    between atoms: _35  and  _37
REMARK                            x       y       z     vdW  Elec       q    Type
REMARK                         _______ _______ _______ _____ _____    ______ ____
ROOT
ATOM      1  C   UNL     1     -17.983  12.643  41.909  0.00  0.00    +0.163 C 
ENDROOT
BRANCH   1   2
ATOM      2  O   UNL     1     -18.352  12.923  40.548  0.00  0.00    -0.388 OA
ATOM      3  H   UNL     1     -19.210  13.355  40.531  0.00  0.00    +0.210 HD
ENDBRANCH   1   2
BRANCH   1   4
ATOM      4  C   UNL     1     -17.794  13.947  42.677  0.00  0.00    +0.141 C 
BRANCH   4   7
ATOM      5  C   UNL     1     -16.218  15.604  41.741  0.00  0.00    +0.401 C 
ATOM      6  O   UNL     1     -15.272  15.242  42.445  0.00  0.00    -0.226 OA
ATOM      7  N   UNL     1     -17.434  15.059  41.788  0.00  0.00    -0.279 N 
ATOM      8  H   UNL     1     -18.148  15.431  41.178  0.00  0.00    +0.152 HD
BRANCH   5   9
ATOM      9  O   UNL     1     -16.023  16.675  40.815  0.00  0.00    -0.444 OA
BRANCH   9  10
ATOM     10  C   UNL     1     -16.420  16.254  39.507  0.00  0.00    +0.292 C 
BRANCH  10  12
ATOM     11  N   UNL     1     -14.041  15.959  38.914  0.00  0.00    -0.131 NA
ATOM     12  C   UNL     1     -15.328  15.503  38.859  0.00  0.00    +0.120 A 
ATOM     13  C   UNL     1     -15.357  14.325  38.144  0.00  0.00    +0.138 A 
ATOM     14  N   UNL     1     -14.054  14.116  37.789  0.00  0.00    -0.235 N 
ATOM     15  N   UNL     1     -13.271  15.108  38.255  0.00  0.00    -0.064 NA
BRANCH  14  16
ATOM     16  C   UNL     1     -13.469  13.029  37.000  0.00  0.00    +0.155 C 
ATOM     17  C   UNL     1     -12.224  13.488  36.210  0.00  0.00    +0.048 C 
ATOM     18  C   UNL     1     -14.523  12.524  35.997  0.00  0.00    +0.048 C 
BRANCH  16  19
ATOM     19  C   UNL     1     -13.037  11.880  37.915  0.00  0.00    +0.332 C 
ATOM     20  O   UNL     1     -13.019  10.702  37.578  0.00  0.00    -0.248 OA
BRANCH  19  21
ATOM     21  O   UNL     1     -12.661  12.244  39.165  0.00  0.00    -0.479 OA
ATOM     22  H   UNL     1     -12.725  13.195  39.378  0.00  0.00    +0.295 HD
ENDBRANCH  19  21
ENDBRANCH  16  19
ENDBRANCH  14  16
ENDBRANCH  10  12
ENDBRANCH   9  10
ENDBRANCH   5   9
ENDBRANCH   4   7
ENDBRANCH   1   4
BRANCH   1  23
ATOM     23  C   UNL     1     -16.685  11.819  41.968  0.00  0.00    +0.175 C 
BRANCH  23  24
ATOM     24  C   UNL     1     -16.925  10.401  42.506  0.00  0.00    +0.176 C 
ATOM     25  O   UNL     1     -17.891  10.491  43.590  0.00  0.00    -0.332 OA
ATOM     26  C   UNL     1     -18.325   9.213  44.160  0.00  0.00    +0.277 C 
ATOM     27  C   UNL     1     -17.102   8.381  44.618  0.00  0.00    +0.110 C 
ATOM     28  C   UNL     1     -16.032   8.284  43.510  0.00  0.00    +0.143 C 
ATOM     29  C   UNL     1     -15.657   9.671  42.986  0.00  0.00    +0.133 C 
BRANCH  29  30
ATOM     30  N   UNL     1     -14.702   9.560  41.872  0.00  0.00    -0.308 N 
ATOM     31  H   UNL     1     -15.035   9.165  41.003  0.00  0.00    +0.149 HD
ATOM     32  C   UNL     1     -13.425   9.946  41.933  0.00  0.00    +0.210 C 
ATOM     33  C   UNL     1     -12.942  10.519  43.279  0.00  0.00    +0.109 C 
ATOM     34  O   UNL     1     -12.652   9.855  40.979  0.00  0.00    -0.276 OA
ENDBRANCH  29  30
BRANCH  26  35
ATOM     35  C   UNL     1     -19.142   8.404  43.132  0.00  0.00    +0.414 C 
ATOM     36  O   UNL     1     -19.843   8.983  42.303  0.00  0.00    -0.240 OA
ATOM     37  O   UNL     1     -19.100   7.173  43.130  0.00  0.00    -0.240 OA
ENDBRANCH  26  35
BRANCH  26  38
ATOM     38  O   UNL     1     -19.146   9.496  45.322  0.00  0.00    -0.343 OA
ATOM     39  C   UNL     1     -19.664  10.848  45.391  0.00  0.00    +0.198 C 
ENDBRANCH  26  38
BRANCH  28  40
ATOM     40  O   UNL     1     -14.864   7.642  44.023  0.00  0.00    -0.390 OA
ATOM     41  H   UNL     1     -14.109   7.864  43.473  0.00  0.00    +0.210 HD
ENDBRANCH  28  40
ENDBRANCH  23  24
BRANCH  23  42
ATOM     42  O   UNL     1     -15.702  12.497  42.776  0.00  0.00    -0.387 OA
ATOM     43  H   UNL     1     -15.843  12.281  43.700  0.00  0.00    +0.210 HD
ENDBRANCH  23  42
ENDBRANCH   1  23
TORSDOF 16
