REMARK  Name = lig_assembled_61.pdb
REMARK  17 active torsions:
REMARK  status: ('A' for Active; 'I' for Inactive)
REMARK    1  A    between atoms: _2  and  _9
REMARK    2  A    between atoms: _4  and  _17
REMARK    3  A    between atoms: _6  and  _7
REMARK    4  A    between atoms: _6  and  _17
REMARK    5  A    between atoms: _9  and  _10
REMARK    6  A    between atoms: _13  and  _33
REMARK    7  A    between atoms: _15  and  _21
REMARK    8  A    between atoms: _16  and  _20
REMARK    9  A    between atoms: _20  and  _21
REMARK   10  A    between atoms: _23  and  _24
REMARK   11  A    between atoms: _25  and  _26
REMARK   12  A    between atoms: _27  and  _29
REMARK   13  A    between atoms: _29  and  _30
REMARK   14  A    between atoms: _29  and  _31
REMARK   15  A    between atoms: _31  and  _32
REMARK   16  A    between atoms: _31  and  _33
REMARK   17  A    between atoms: _34  and  _36
REMARK                            x       y       z     vdW  Elec       q    Type
REMARK                         _______ _______ _______ _____ _____    ______ ____
ROOT
ATOM      1  C   UNL     1     -14.239  18.757  35.652  0.00  0.00    +0.163 C 
ENDROOT
BRANCH   1   2
ATOM      2  O   UNL     1     -13.072  19.125  34.899  0.00  0.00    -0.388 OA
ATOM      3  H   UNL     1     -13.323  19.719  34.188  0.00  0.00    +0.210 HD
ENDBRANCH   1   2
BRANCH   1   4
ATOM      4  C   UNL     1     -14.824  19.986  36.341  0.00  0.00    +0.141 C 
BRANCH   4   7
ATOM      5  C   UNL     1     -13.796  21.974  37.387  0.00  0.00    +0.401 C 
ATOM      6  O   UNL     1     -14.535  21.953  38.375  0.00  0.00    -0.226 OA
ATOM      7  N   UNL     1     -13.865  21.097  36.386  0.00  0.00    -0.279 N 
ATOM      8  H   UNL     1     -13.221  21.202  35.614  0.00  0.00    +0.152 HD
BRANCH   5   9
ATOM      9  O   UNL     1     -12.800  22.995  37.287  0.00  0.00    -0.444 OA
BRANCH   9  10
ATOM     10  C   UNL     1     -12.683  23.673  38.541  0.00  0.00    +0.292 C 
BRANCH  10  12
ATOM     11  N   UNL     1     -10.239  23.717  38.931  0.00  0.00    -0.131 NA
ATOM     12  C   UNL     1     -11.475  23.224  39.259  0.00  0.00    +0.120 A 
ATOM     13  C   UNL     1     -11.342  22.322  40.292  0.00  0.00    +0.137 A 
ATOM     14  N   UNL     1      -9.997  22.266  40.506  0.00  0.00    -0.247 N 
ATOM     15  N   UNL     1      -9.340  23.136  39.716  0.00  0.00    -0.065 NA
BRANCH  14  16
ATOM     16  C   UNL     1      -9.271  21.448  41.461  0.00  0.00    +0.180 C 
BRANCH  16  17
ATOM     17  C   UNL     1      -8.450  20.389  40.779  0.00  0.00    -0.019 A 
ATOM     18  C   UNL     1      -8.994  19.227  40.134  0.00  0.00    +0.013 A 
ATOM     19  C   UNL     1      -8.020  18.396  39.622  0.00  0.00    +0.045 A 
ATOM     20  S   UNL     1      -6.450  19.006  39.896  0.00  0.00    -0.105 S 
ATOM     21  C   UNL     1      -7.066  20.375  40.711  0.00  0.00    +0.050 A 
ENDBRANCH  16  17
ENDBRANCH  14  16
ENDBRANCH  10  12
ENDBRANCH   9  10
ENDBRANCH   5   9
ENDBRANCH   4   7
ENDBRANCH   1   4
BRANCH   1  22
ATOM     22  C   UNL     1     -13.899  17.690  36.707  0.00  0.00    +0.175 C 
BRANCH  22  23
ATOM     23  C   UNL     1     -12.956  16.611  36.154  0.00  0.00    +0.176 C 
ATOM     24  O   UNL     1     -13.333  16.352  34.774  0.00  0.00    -0.332 OA
ATOM     25  C   UNL     1     -12.470  15.418  34.045  0.00  0.00    +0.277 C 
ATOM     26  C   UNL     1     -12.350  14.080  34.814  0.00  0.00    +0.110 C 
ATOM     27  C   UNL     1     -11.981  14.305  36.296  0.00  0.00    +0.143 C 
ATOM     28  C   UNL     1     -12.942  15.296  36.955  0.00  0.00    +0.133 C 
BRANCH  28  29
ATOM     29  N   UNL     1     -12.529  15.569  38.341  0.00  0.00    -0.308 N 
ATOM     30  H   UNL     1     -13.193  15.378  39.078  0.00  0.00    +0.149 HD
ATOM     31  C   UNL     1     -11.334  16.054  38.689  0.00  0.00    +0.210 C 
ATOM     32  C   UNL     1     -10.353  16.360  37.541  0.00  0.00    +0.109 C 
ATOM     33  O   UNL     1     -11.010  16.259  39.859  0.00  0.00    -0.276 OA
ENDBRANCH  28  29
BRANCH  25  34
ATOM     34  C   UNL     1     -11.065  16.020  33.837  0.00  0.00    +0.414 C 
ATOM     35  O   UNL     1     -10.922  17.238  33.731  0.00  0.00    -0.240 OA
ATOM     36  O   UNL     1     -10.075  15.290  33.775  0.00  0.00    -0.240 OA
ENDBRANCH  25  34
BRANCH  25  37
ATOM     37  O   UNL     1     -13.083  15.152  32.757  0.00  0.00    -0.343 OA
ATOM     38  C   UNL     1     -14.472  14.740  32.814  0.00  0.00    +0.198 C 
ENDBRANCH  25  37
BRANCH  27  39
ATOM     39  O   UNL     1     -12.030  13.063  36.999  0.00  0.00    -0.390 OA
ATOM     40  H   UNL     1     -12.127  13.231  37.940  0.00  0.00    +0.210 HD
ENDBRANCH  27  39
ENDBRANCH  22  23
BRANCH  22  41
ATOM     41  O   UNL     1     -15.107  17.085  37.208  0.00  0.00    -0.387 OA
ATOM     42  H   UNL     1     -15.376  16.373  36.622  0.00  0.00    +0.210 HD
ENDBRANCH  22  41
ENDBRANCH   1  22
TORSDOF 15
