REMARK  Name = lig_assembled_39.pdb
REMARK  17 active torsions:
REMARK  status: ('A' for Active; 'I' for Inactive)
REMARK    1  A    between atoms: _2  and  _9
REMARK    2  A    between atoms: _4  and  _19
REMARK    3  A    between atoms: _6  and  _7
REMARK    4  A    between atoms: _6  and  _19
REMARK    5  A    between atoms: _9  and  _10
REMARK    6  A    between atoms: _15  and  _35
REMARK    7  A    between atoms: _17  and  _23
REMARK    8  A    between atoms: _18  and  _22
REMARK    9  A    between atoms: _22  and  _23
REMARK   10  A    between atoms: _25  and  _26
REMARK   11  A    between atoms: _27  and  _28
REMARK   12  A    between atoms: _29  and  _31
REMARK   13  A    between atoms: _31  and  _32
REMARK   14  A    between atoms: _31  and  _33
REMARK   15  A    between atoms: _33  and  _34
REMARK   16  A    between atoms: _33  and  _35
REMARK   17  A    between atoms: _36  and  _38
REMARK                            x       y       z     vdW  Elec       q    Type
REMARK                         _______ _______ _______ _____ _____    ______ ____
ROOT
ATOM      1  C   UNL     1     -15.325  11.805  38.379  0.00  0.00    +0.163 C 
ENDROOT
BRANCH   1   2
ATOM      2  O   UNL     1     -16.519  12.529  38.036  0.00  0.00    -0.388 OA
ATOM      3  H   UNL     1     -17.041  12.679  38.828  0.00  0.00    +0.210 HD
ENDBRANCH   1   2
BRANCH   1   4
ATOM      4  C   UNL     1     -14.444  12.654  39.290  0.00  0.00    +0.141 C 
BRANCH   4   7
ATOM      5  C   UNL     1     -12.529  11.460  40.297  0.00  0.00    +0.401 C 
ATOM      6  O   UNL     1     -13.149  11.126  41.309  0.00  0.00    -0.226 OA
ATOM      7  N   UNL     1     -13.055  12.180  39.305  0.00  0.00    -0.279 N 
ATOM      8  H   UNL     1     -12.464  12.413  38.519  0.00  0.00    +0.152 HD
BRANCH   5   9
ATOM      9  O   UNL     1     -11.162  11.066  40.158  0.00  0.00    -0.444 OA
BRANCH   9  10
ATOM     10  C   UNL     1     -10.452  12.059  39.413  0.00  0.00    +0.292 C 
BRANCH  10  12
ATOM     11  N   UNL     1      -9.023  12.400  41.405  0.00  0.00    -0.131 NA
ATOM     12  C   UNL     1      -9.674  12.924  40.319  0.00  0.00    +0.120 A 
ATOM     13  C   UNL     1      -9.441  14.280  40.264  0.00  0.00    +0.137 A 
ATOM     14  N   UNL     1      -8.576  14.503  41.295  0.00  0.00    -0.247 N 
ATOM     15  N   UNL     1      -8.376  13.384  42.014  0.00  0.00    -0.065 NA
BRANCH  14  16
ATOM     16  C   UNL     1      -7.855  15.728  41.608  0.00  0.00    +0.181 C 
BRANCH  16  17
ATOM     17  C   UNL     1      -8.641  16.676  42.496  0.00  0.00    -0.012 A 
ATOM     18  C   UNL     1      -9.825  16.258  43.137  0.00  0.00    +0.006 A 
ATOM     19  C   UNL     1     -10.561  17.122  43.951  0.00  0.00    +0.000 A 
ATOM     20  C   UNL     1     -10.144  18.435  44.127  0.00  0.00    +0.001 A 
ATOM     21  C   UNL     1      -9.002  18.889  43.472  0.00  0.00    +0.015 A 
ATOM     22  C   UNL     1      -8.262  18.023  42.653  0.00  0.00    +0.023 A 
ATOM     23 BR   UNL     1      -6.755  18.771  41.765  0.00  0.00    -0.050 Br
ENDBRANCH  16  17
ENDBRANCH  14  16
ENDBRANCH  10  12
ENDBRANCH   9  10
ENDBRANCH   5   9
ENDBRANCH   4   7
ENDBRANCH   1   4
BRANCH   1  24
ATOM     24  C   UNL     1     -14.536  11.417  37.118  0.00  0.00    +0.175 C 
BRANCH  24  25
ATOM     25  C   UNL     1     -14.740  12.423  35.975  0.00  0.00    +0.176 C 
ATOM     26  O   UNL     1     -15.876  11.976  35.184  0.00  0.00    -0.332 OA
ATOM     27  C   UNL     1     -16.288  12.876  34.103  0.00  0.00    +0.277 C 
ATOM     28  C   UNL     1     -15.091  13.187  33.171  0.00  0.00    +0.110 C 
ATOM     29  C   UNL     1     -13.849  13.636  33.970  0.00  0.00    +0.143 C 
ATOM     30  C   UNL     1     -13.511  12.629  35.070  0.00  0.00    +0.133 C 
BRANCH  30  31
ATOM     31  N   UNL     1     -12.380  13.110  35.879  0.00  0.00    -0.308 N 
ATOM     32  H   UNL     1     -11.567  12.516  35.953  0.00  0.00    +0.149 HD
ATOM     33  C   UNL     1     -12.359  14.280  36.523  0.00  0.00    +0.210 C 
ATOM     34  C   UNL     1     -13.625  15.151  36.412  0.00  0.00    +0.109 C 
ATOM     35  O   UNL     1     -11.392  14.664  37.181  0.00  0.00    -0.276 OA
ENDBRANCH  30  31
BRANCH  27  36
ATOM     36  C   UNL     1     -16.853  14.193  34.673  0.00  0.00    +0.414 C 
ATOM     37  O   UNL     1     -17.401  14.208  35.775  0.00  0.00    -0.240 OA
ATOM     38  O   UNL     1     -16.762  15.241  34.032  0.00  0.00    -0.240 OA
ENDBRANCH  27  36
BRANCH  27  39
ATOM     39  O   UNL     1     -17.310  12.203  33.324  0.00  0.00    -0.343 OA
ATOM     40  C   UNL     1     -17.354  10.762  33.486  0.00  0.00    +0.198 C 
ENDBRANCH  27  39
BRANCH  29  41
ATOM     41  O   UNL     1     -12.731  13.765  33.091  0.00  0.00    -0.390 OA
ATOM     42  H   UNL     1     -11.917  13.719  33.598  0.00  0.00    +0.210 HD
ENDBRANCH  29  41
ENDBRANCH  24  25
BRANCH  24  43
ATOM     43  O   UNL     1     -14.909  10.093  36.686  0.00  0.00    -0.387 OA
ATOM     44  H   UNL     1     -15.696  10.144  36.139  0.00  0.00    +0.210 HD
ENDBRANCH  24  43
ENDBRANCH   1  24
TORSDOF 15
