REMARK  Name = lig_assembled_9.pdb
REMARK  20 active torsions:
REMARK  status: ('A' for Active; 'I' for Inactive)
REMARK    1  A    between atoms: _2  and  _9
REMARK    2  A    between atoms: _4  and  _23
REMARK    3  A    between atoms: _6  and  _7
REMARK    4  A    between atoms: _6  and  _23
REMARK    5  A    between atoms: _11  and  _12
REMARK    6  A    between atoms: _12  and  _17
REMARK    7  A    between atoms: _13  and  _14
REMARK    8  A    between atoms: _13  and  _17
REMARK    9  A    between atoms: _19  and  _39
REMARK   10  A    between atoms: _21  and  _27
REMARK   11  A    between atoms: _22  and  _26
REMARK   12  A    between atoms: _26  and  _27
REMARK   13  A    between atoms: _29  and  _30
REMARK   14  A    between atoms: _31  and  _32
REMARK   15  A    between atoms: _33  and  _35
REMARK   16  A    between atoms: _35  and  _36
REMARK   17  A    between atoms: _35  and  _37
REMARK   18  A    between atoms: _37  and  _38
REMARK   19  A    between atoms: _37  and  _39
REMARK   20  A    between atoms: _40  and  _42
REMARK                            x       y       z     vdW  Elec       q    Type
REMARK                         _______ _______ _______ _____ _____    ______ ____
ROOT
ATOM      1  C   UNL     1     -12.352  12.138  34.766  0.00  0.00    +0.163 C 
ENDROOT
BRANCH   1   2
ATOM      2  O   UNL     1     -13.440  11.996  33.839  0.00  0.00    -0.388 OA
ATOM      3  H   UNL     1     -14.057  11.338  34.167  0.00  0.00    +0.210 HD
ENDBRANCH   1   2
BRANCH   1   4
ATOM      4  C   UNL     1     -11.268  13.074  34.203  0.00  0.00    +0.175 C 
BRANCH   4   5
ATOM      5  C   UNL     1     -10.527  12.450  33.012  0.00  0.00    +0.176 C 
ATOM      6  O   UNL     1     -11.387  12.559  31.844  0.00  0.00    -0.332 OA
ATOM      7  C   UNL     1     -10.799  12.106  30.580  0.00  0.00    +0.277 C 
ATOM      8  C   UNL     1     -10.279  10.654  30.714  0.00  0.00    +0.110 C 
ATOM      9  C   UNL     1      -9.386  10.481  31.960  0.00  0.00    +0.143 C 
ATOM     10  C   UNL     1     -10.095  10.986  33.217  0.00  0.00    +0.133 C 
BRANCH  10  11
ATOM     11  N   UNL     1      -9.201  10.897  34.383  0.00  0.00    -0.308 N 
ATOM     12  H   UNL     1      -9.572  10.490  35.231  0.00  0.00    +0.149 HD
ATOM     13  C   UNL     1      -7.934  11.318  34.394  0.00  0.00    +0.210 C 
ATOM     14  C   UNL     1      -7.408  11.957  33.095  0.00  0.00    +0.109 C 
ATOM     15  O   UNL     1      -7.204  11.217  35.382  0.00  0.00    -0.276 OA
ENDBRANCH  10  11
BRANCH   7  16
ATOM     16  C   UNL     1      -9.639  13.031  30.154  0.00  0.00    +0.414 C 
ATOM     17  O   UNL     1      -9.479  14.119  30.706  0.00  0.00    -0.240 OA
ATOM     18  O   UNL     1      -8.865  12.690  29.259  0.00  0.00    -0.240 OA
ENDBRANCH   7  16
BRANCH   7  19
ATOM     19  O   UNL     1     -11.838  12.129  29.568  0.00  0.00    -0.343 OA
ATOM     20  C   UNL     1     -13.094  12.717  29.993  0.00  0.00    +0.198 C 
ENDBRANCH   7  19
BRANCH   9  21
ATOM     21  O   UNL     1      -9.055   9.102  32.128  0.00  0.00    -0.390 OA
ATOM     22  H   UNL     1      -8.794   8.944  33.038  0.00  0.00    +0.210 HD
ENDBRANCH   9  21
ENDBRANCH   4   5
BRANCH   4  23
ATOM     23  O   UNL     1     -10.332  13.429  35.240  0.00  0.00    -0.387 OA
ATOM     24  H   UNL     1      -9.659  12.748  35.312  0.00  0.00    +0.210 HD
ENDBRANCH   4  23
ENDBRANCH   1   4
BRANCH   1  25
ATOM     25  C   UNL     1     -12.865  12.691  36.092  0.00  0.00    +0.141 C 
BRANCH  25  28
ATOM     26  C   UNL     1     -14.556  11.053  36.840  0.00  0.00    +0.401 C 
ATOM     27  O   UNL     1     -15.375  11.360  35.971  0.00  0.00    -0.226 OA
ATOM     28  N   UNL     1     -13.360  11.628  36.974  0.00  0.00    -0.279 N 
ATOM     29  H   UNL     1     -12.761  11.314  37.724  0.00  0.00    +0.152 HD
BRANCH  26  30
ATOM     30  O   UNL     1     -14.888  10.023  37.775  0.00  0.00    -0.444 OA
BRANCH  30  31
ATOM     31  C   UNL     1     -16.123  10.344  38.420  0.00  0.00    +0.292 C 
BRANCH  31  33
ATOM     32  N   UNL     1     -14.855  11.048  40.426  0.00  0.00    -0.131 NA
ATOM     33  C   UNL     1     -15.884  11.256  39.555  0.00  0.00    +0.121 A 
ATOM     34  C   UNL     1     -16.567  12.390  39.928  0.00  0.00    +0.143 A 
ATOM     35  N   UNL     1     -15.886  12.869  41.024  0.00  0.00    -0.220 N 
ATOM     36  N   UNL     1     -14.868  12.027  41.321  0.00  0.00    -0.060 NA
BRANCH  35  37
ATOM     37  C   UNL     1     -16.121  14.057  41.763  0.00  0.00    +0.068 A 
ATOM     38  C   UNL     1     -17.381  14.671  41.743  0.00  0.00    +0.042 A 
ATOM     39  C   UNL     1     -17.599  15.864  42.450  0.00  0.00    +0.061 A 
ATOM     40  C   UNL     1     -16.553  16.438  43.181  0.00  0.00    +0.015 A 
ATOM     41  C   UNL     1     -15.300  15.821  43.214  0.00  0.00    +0.003 A 
ATOM     42  C   UNL     1     -15.083  14.635  42.510  0.00  0.00    +0.028 A 
BRANCH  39  43
ATOM     43  C   UNL     1     -18.935  16.514  42.502  0.00  0.00    +0.339 C 
ATOM     44  O   UNL     1     -19.159  17.554  43.099  0.00  0.00    -0.245 OA
BRANCH  43  45
ATOM     45  O   UNL     1     -19.851  15.729  41.884  0.00  0.00    -0.461 OA
BRANCH  45  46
ATOM     46  C   UNL     1     -21.069  15.511  42.609  0.00  0.00    +0.229 C 
ATOM     47  C   UNL     1     -20.881  14.286  43.484  0.00  0.00    +0.048 C 
ENDBRANCH  45  46
ENDBRANCH  43  45
ENDBRANCH  39  43
ENDBRANCH  35  37
ENDBRANCH  31  33
ENDBRANCH  30  31
ENDBRANCH  26  30
ENDBRANCH  25  28
ENDBRANCH   1  25
TORSDOF 17
