REMARK  Name = lig_assembled_76.pdb
REMARK  21 active torsions:
REMARK  status: ('A' for Active; 'I' for Inactive)
REMARK    1  A    between atoms: _2  and  _9
REMARK    2  A    between atoms: _4  and  _23
REMARK    3  A    between atoms: _6  and  _7
REMARK    4  A    between atoms: _6  and  _23
REMARK    5  A    between atoms: _9  and  _10
REMARK    6  A    between atoms: _10  and  _11
REMARK    7  A    between atoms: _10  and  _18
REMARK    8  A    between atoms: _11  and  _12
REMARK    9  A    between atoms: _12  and  _13
REMARK   10  A    between atoms: _19  and  _39
REMARK   11  A    between atoms: _21  and  _27
REMARK   12  A    between atoms: _22  and  _26
REMARK   13  A    between atoms: _26  and  _27
REMARK   14  A    between atoms: _29  and  _30
REMARK   15  A    between atoms: _31  and  _32
REMARK   16  A    between atoms: _33  and  _35
REMARK   17  A    between atoms: _35  and  _36
REMARK   18  A    between atoms: _35  and  _37
REMARK   19  A    between atoms: _37  and  _38
REMARK   20  A    between atoms: _37  and  _39
REMARK   21  A    between atoms: _40  and  _42
REMARK                            x       y       z     vdW  Elec       q    Type
REMARK                         _______ _______ _______ _____ _____    ______ ____
ROOT
ATOM      1  C   UNL     1     -11.014  10.932  32.642  0.00  0.00    +0.141 C 
ENDROOT
BRANCH   1   4
ATOM      2  C   UNL     1      -8.778  11.198  31.624  0.00  0.00    +0.401 C 
ATOM      3  O   UNL     1      -8.226  11.494  32.686  0.00  0.00    -0.226 OA
ATOM      4  N   UNL     1     -10.079  10.926  31.510  0.00  0.00    -0.279 N 
ATOM      5  H   UNL     1     -10.441  10.703  30.594  0.00  0.00    +0.152 HD
BRANCH   2   6
ATOM      6  O   UNL     1      -7.997  11.141  30.427  0.00  0.00    -0.444 OA
BRANCH   6   7
ATOM      7  C   UNL     1      -7.824   9.777  30.034  0.00  0.00    +0.292 C 
BRANCH   7   9
ATOM      8  N   UNL     1      -9.383   9.513  28.124  0.00  0.00    -0.131 NA
ATOM      9  C   UNL     1      -8.100   9.618  28.596  0.00  0.00    +0.120 A 
ATOM     10  C   UNL     1      -7.221   9.535  27.539  0.00  0.00    +0.137 A 
ATOM     11  N   UNL     1      -8.031   9.386  26.456  0.00  0.00    -0.249 N 
ATOM     12  N   UNL     1      -9.327   9.363  26.807  0.00  0.00    -0.065 NA
BRANCH  11  13
ATOM     13  C   UNL     1      -7.639   9.129  25.088  0.00  0.00    +0.176 C 
BRANCH  13  14
ATOM     14  C   UNL     1      -7.929  10.307  24.152  0.00  0.00    +0.136 C 
BRANCH  14  15
ATOM     15  O   UNL     1      -7.166  11.454  24.550  0.00  0.00    -0.390 OA
ATOM     16  H   UNL     1      -6.220  11.269  24.417  0.00  0.00    +0.210 HD
ENDBRANCH  14  15
BRANCH  14  17
ATOM     17  C   UNL     1      -7.568   9.998  22.690  0.00  0.00    +0.038 C 
BRANCH  17  18
ATOM     18  C   UNL     1      -8.126   8.665  22.193  0.00  0.00    +0.038 C 
BRANCH  18  19
ATOM     19  C   UNL     1      -7.596   8.300  20.831  0.00  0.00    -0.047 A 
ATOM     20  C   UNL     1      -6.438   7.519  20.708  0.00  0.00    +0.003 A 
ATOM     21  C   UNL     1      -5.955   7.164  19.448  0.00  0.00    +0.000 A 
ATOM     22  C   UNL     1      -6.620   7.592  18.301  0.00  0.00    +0.000 A 
ATOM     23  C   UNL     1      -7.765   8.379  18.414  0.00  0.00    +0.000 A 
ATOM     24  C   UNL     1      -8.249   8.736  19.673  0.00  0.00    +0.003 A 
ENDBRANCH  18  19
ENDBRANCH  17  18
ENDBRANCH  14  17
ENDBRANCH  13  14
ENDBRANCH  11  13
ENDBRANCH   7   9
ENDBRANCH   6   7
ENDBRANCH   2   6
ENDBRANCH   1   4
BRANCH   1  25
ATOM     25  C   UNL     1     -10.931   9.644  33.455  0.00  0.00    +0.163 C 
BRANCH  25  26
ATOM     26  O   UNL     1     -10.054   9.827  34.578  0.00  0.00    -0.388 OA
ATOM     27  H   UNL     1      -9.161   9.988  34.265  0.00  0.00    +0.210 HD
ENDBRANCH  25  26
BRANCH  25  28
ATOM     28  C   UNL     1     -12.340   9.237  33.918  0.00  0.00    +0.175 C 
BRANCH  28  29
ATOM     29  C   UNL     1     -12.411   7.757  34.322  0.00  0.00    +0.176 C 
ATOM     30  O   UNL     1     -11.726   7.608  35.596  0.00  0.00    -0.332 OA
ATOM     31  C   UNL     1     -11.784   6.271  36.194  0.00  0.00    +0.277 C 
ATOM     32  C   UNL     1     -11.265   5.208  35.194  0.00  0.00    +0.110 C 
ATOM     33  C   UNL     1     -11.942   5.347  33.814  0.00  0.00    +0.143 C 
ATOM     34  C   UNL     1     -11.826   6.778  33.287  0.00  0.00    +0.133 C 
BRANCH  34  35
ATOM     35  N   UNL     1     -12.549   6.918  32.014  0.00  0.00    -0.308 N 
ATOM     36  H   UNL     1     -13.556   6.839  32.031  0.00  0.00    +0.149 HD
ATOM     37  C   UNL     1     -11.961   7.144  30.835  0.00  0.00    +0.210 C 
ATOM     38  C   UNL     1     -10.423   7.234  30.838  0.00  0.00    +0.109 C 
ATOM     39  O   UNL     1     -12.593   7.272  29.786  0.00  0.00    -0.276 OA
ENDBRANCH  34  35
BRANCH  31  40
ATOM     40  C   UNL     1     -13.226   5.921  36.616  0.00  0.00    +0.414 C 
ATOM     41  O   UNL     1     -13.625   4.759  36.558  0.00  0.00    -0.240 OA
ATOM     42  O   UNL     1     -13.990   6.802  37.014  0.00  0.00    -0.240 OA
ENDBRANCH  31  40
BRANCH  33  43
ATOM     43  O   UNL     1     -11.329   4.452  32.885  0.00  0.00    -0.390 OA
ATOM     44  H   UNL     1     -11.504   4.751  31.989  0.00  0.00    +0.210 HD
ENDBRANCH  33  43
BRANCH  31  45
ATOM     45  O   UNL     1     -10.919   6.263  37.359  0.00  0.00    -0.343 OA
ATOM     46  C   UNL     1     -10.304   7.538  37.674  0.00  0.00    +0.198 C 
ENDBRANCH  31  45
ENDBRANCH  28  29
BRANCH  28  47
ATOM     47  O   UNL     1     -13.303   9.515  32.882  0.00  0.00    -0.387 OA
ATOM     48  H   UNL     1     -13.330   8.781  32.263  0.00  0.00    +0.210 HD
ENDBRANCH  28  47
ENDBRANCH  25  28
ENDBRANCH   1  25
TORSDOF 19
