REMARK  Name = lig_assembled_84.pdb
REMARK  21 active torsions:
REMARK  status: ('A' for Active; 'I' for Inactive)
REMARK    1  A    between atoms: _2  and  _11
REMARK    2  A    between atoms: _3  and  _14
REMARK    3  A    between atoms: _4  and  _17
REMARK    4  A    between atoms: _6  and  _28
REMARK    5  A    between atoms: _8  and  _9
REMARK    6  A    between atoms: _8  and  _28
REMARK    7  A    between atoms: _11  and  _12
REMARK    8  A    between atoms: _12  and  _13
REMARK    9  A    between atoms: _12  and  _14
REMARK   10  A    between atoms: _24  and  _44
REMARK   11  A    between atoms: _26  and  _32
REMARK   12  A    between atoms: _27  and  _31
REMARK   13  A    between atoms: _31  and  _32
REMARK   14  A    between atoms: _34  and  _35
REMARK   15  A    between atoms: _36  and  _37
REMARK   16  A    between atoms: _38  and  _40
REMARK   17  A    between atoms: _40  and  _41
REMARK   18  A    between atoms: _40  and  _42
REMARK   19  A    between atoms: _42  and  _43
REMARK   20  A    between atoms: _42  and  _44
REMARK   21  A    between atoms: _45  and  _47
REMARK                            x       y       z     vdW  Elec       q    Type
REMARK                         _______ _______ _______ _____ _____    ______ ____
ROOT
ATOM      1  C   UNL     1      -9.429  24.387  26.349  0.00  0.00    +0.401 C 
ATOM      2  O   UNL     1      -9.063  24.441  27.526  0.00  0.00    -0.226 OA
ATOM      3  N   UNL     1      -8.734  24.889  25.328  0.00  0.00    -0.279 N 
ATOM      4  H   UNL     1      -9.112  24.786  24.397  0.00  0.00    +0.152 HD
ENDROOT
BRANCH   1   5
ATOM      5  O   UNL     1     -10.669  23.747  26.037  0.00  0.00    -0.444 OA
BRANCH   5   6
ATOM      6  C   UNL     1     -10.423  22.606  25.210  0.00  0.00    +0.292 C 
BRANCH   6   8
ATOM      7  N   UNL     1     -10.747  22.207  22.785  0.00  0.00    -0.131 NA
ATOM      8  C   UNL     1     -11.236  22.666  23.980  0.00  0.00    +0.120 A 
ATOM      9  C   UNL     1     -12.500  23.175  23.783  0.00  0.00    +0.137 A 
ATOM     10  N   UNL     1     -12.696  23.057  22.439  0.00  0.00    -0.251 N 
ATOM     11  N   UNL     1     -11.652  22.454  21.846  0.00  0.00    -0.065 NA
BRANCH  10  12
ATOM     12  C   UNL     1     -13.777  23.613  21.648  0.00  0.00    +0.149 C 
BRANCH  12  13
ATOM     13  C   UNL     1     -14.254  24.999  22.113  0.00  0.00    +0.021 C 
ATOM     14  C   UNL     1     -13.486  26.121  21.399  0.00  0.00    +0.010 C 
BRANCH  13  15
ATOM     15  C   UNL     1     -15.768  25.188  21.852  0.00  0.00    +0.089 C 
BRANCH  15  16
ATOM     16  N   UNL     1     -16.639  25.033  23.025  0.00  0.00    -0.299 NA
ATOM     17  C   UNL     1     -15.846  25.191  24.273  0.00  0.00    +0.103 C 
ATOM     18  C   UNL     1     -16.737  25.121  25.530  0.00  0.00    +0.120 C 
ATOM     19  N   UNL     1     -17.453  23.840  25.557  0.00  0.00    -0.327 N 
ATOM     20  C   UNL     1     -18.228  23.554  24.342  0.00  0.00    +0.120 C 
ATOM     21  C   UNL     1     -17.329  23.719  23.082  0.00  0.00    +0.103 C 
BRANCH  19  22
ATOM     22  C   UNL     1     -17.440  23.006  26.651  0.00  0.00    +0.030 A 
ATOM     23  C   UNL     1     -16.494  21.972  26.772  0.00  0.00    +0.024 A 
ATOM     24  C   UNL     1     -16.482  21.099  27.865  0.00  0.00    +0.022 A 
ATOM     25  C   UNL     1     -17.421  21.249  28.872  0.00  0.00    +0.041 A 
ATOM     26 CL   UNL     1     -17.416  20.176  30.217  0.00  0.00    -0.084 Cl
ATOM     27  C   UNL     1     -18.371  22.260  28.793  0.00  0.00    +0.022 A 
ATOM     28  C   UNL     1     -18.376  23.125  27.689  0.00  0.00    +0.024 A 
ENDBRANCH  19  22
ENDBRANCH  15  16
ENDBRANCH  13  15
ENDBRANCH  12  13
ENDBRANCH  10  12
ENDBRANCH   6   8
ENDBRANCH   5   6
ENDBRANCH   1   5
BRANCH   3  29
ATOM     29  C   UNL     1      -7.449  25.583  25.481  0.00  0.00    +0.141 C 
BRANCH  29  30
ATOM     30  C   UNL     1      -6.271  24.616  25.431  0.00  0.00    +0.163 C 
BRANCH  30  31
ATOM     31  O   UNL     1      -6.058  24.033  26.728  0.00  0.00    -0.388 OA
ATOM     32  H   UNL     1      -5.799  24.718  27.348  0.00  0.00    +0.210 HD
ENDBRANCH  30  31
BRANCH  30  33
ATOM     33  C   UNL     1      -6.543  23.528  24.378  0.00  0.00    +0.175 C 
BRANCH  33  34
ATOM     34  C   UNL     1      -5.320  22.627  24.148  0.00  0.00    +0.176 C 
ATOM     35  O   UNL     1      -5.168  21.774  25.316  0.00  0.00    -0.332 OA
ATOM     36  C   UNL     1      -4.106  20.766  25.230  0.00  0.00    +0.277 C 
ATOM     37  C   UNL     1      -2.752  21.435  24.891  0.00  0.00    +0.110 C 
ATOM     38  C   UNL     1      -2.871  22.377  23.675  0.00  0.00    +0.143 C 
ATOM     39  C   UNL     1      -4.007  23.382  23.868  0.00  0.00    +0.133 C 
BRANCH  39  40
ATOM     40  N   UNL     1      -4.167  24.217  22.667  0.00  0.00    -0.308 N 
ATOM     41  H   UNL     1      -4.488  23.769  21.820  0.00  0.00    +0.149 HD
ATOM     42  C   UNL     1      -3.915  25.528  22.623  0.00  0.00    +0.210 C 
ATOM     43  C   UNL     1      -3.403  26.176  23.923  0.00  0.00    +0.109 C 
ATOM     44  O   UNL     1      -4.072  26.205  21.606  0.00  0.00    -0.276 OA
ENDBRANCH  39  40
BRANCH  36  45
ATOM     45  C   UNL     1      -4.442  19.708  24.159  0.00  0.00    +0.414 C 
ATOM     46  O   UNL     1      -3.626  19.435  23.280  0.00  0.00    -0.240 OA
ATOM     47  O   UNL     1      -5.528  19.127  24.174  0.00  0.00    -0.240 OA
ENDBRANCH  36  45
BRANCH  36  48
ATOM     48  O   UNL     1      -3.989  20.128  26.528  0.00  0.00    -0.343 OA
ATOM     49  C   UNL     1      -4.841  20.681  27.562  0.00  0.00    +0.198 C 
ENDBRANCH  36  48
BRANCH  38  50
ATOM     50  O   UNL     1      -1.644  23.084  23.491  0.00  0.00    -0.390 OA
ATOM     51  H   UNL     1      -1.804  23.877  22.974  0.00  0.00    +0.210 HD
ENDBRANCH  38  50
ENDBRANCH  33  34
BRANCH  33  52
ATOM     52  O   UNL     1      -6.955  24.132  23.135  0.00  0.00    -0.387 OA
ATOM     53  H   UNL     1      -6.179  24.384  22.629  0.00  0.00    +0.210 HD
ENDBRANCH  33  52
ENDBRANCH  30  33
ENDBRANCH  29  30
ENDBRANCH   3  29
TORSDOF 18
