REMARK  Name = lig_assembled_70.pdb
REMARK  16 active torsions:
REMARK  status: ('A' for Active; 'I' for Inactive)
REMARK    1  A    between atoms: _2  and  _10
REMARK    2  A    between atoms: _5  and  _22
REMARK    3  A    between atoms: _7  and  _8
REMARK    4  A    between atoms: _7  and  _22
REMARK    5  A    between atoms: _18  and  _38
REMARK    6  A    between atoms: _20  and  _26
REMARK    7  A    between atoms: _21  and  _25
REMARK    8  A    between atoms: _25  and  _26
REMARK    9  A    between atoms: _28  and  _29
REMARK   10  A    between atoms: _30  and  _31
REMARK   11  A    between atoms: _32  and  _34
REMARK   12  A    between atoms: _34  and  _35
REMARK   13  A    between atoms: _34  and  _36
REMARK   14  A    between atoms: _36  and  _37
REMARK   15  A    between atoms: _36  and  _38
REMARK   16  A    between atoms: _39  and  _41
REMARK                            x       y       z     vdW  Elec       q    Type
REMARK                         _______ _______ _______ _____ _____    ______ ____
ROOT
ATOM      1  C   UNL     1      15.459   9.041  54.613  0.00  0.00    +0.163 C 
ENDROOT
BRANCH   1   2
ATOM      2  O   UNL     1      14.411   9.699  55.343  0.00  0.00    -0.388 OA
ATOM      3  H   UNL     1      14.348  10.615  55.059  0.00  0.00    +0.210 HD
ENDBRANCH   1   2
BRANCH   1   4
ATOM      4  C   UNL     1      15.104   8.981  53.131  0.00  0.00    +0.141 C 
BRANCH   4   7
ATOM      5  C   UNL     1      15.899  11.145  52.242  0.00  0.00    +0.401 C 
ATOM      6  O   UNL     1      17.093  10.879  52.402  0.00  0.00    -0.226 OA
ATOM      7  N   UNL     1      14.902  10.319  52.561  0.00  0.00    -0.279 N 
ATOM      8  H   UNL     1      13.954  10.632  52.402  0.00  0.00    +0.152 HD
BRANCH   5   9
ATOM      9  O   UNL     1      15.538  12.413  51.688  0.00  0.00    -0.444 OA
BRANCH   9  10
ATOM     10  C   UNL     1      14.348  12.890  52.321  0.00  0.00    +0.292 C 
BRANCH  10  12
ATOM     11  N   UNL     1      12.762  11.770  53.861  0.00  0.00    -0.131 NA
ATOM     12  C   UNL     1      13.476  11.763  52.697  0.00  0.00    +0.121 A 
ATOM     13  C   UNL     1      13.223  10.590  52.024  0.00  0.00    +0.143 A 
ATOM     14  N   UNL     1      12.329   9.909  52.817  0.00  0.00    -0.218 N 
ATOM     15  N   UNL     1      12.073  10.636  53.929  0.00  0.00    -0.060 NA
BRANCH  14  16
ATOM     16  C   UNL     1      11.712   8.665  52.571  0.00  0.00    +0.086 A 
ATOM     17  C   UNL     1      11.525   8.217  51.274  0.00  0.00    +0.139 A 
ATOM     18  N   UNL     1      10.980   7.011  50.968  0.00  0.00    -0.253 NA
ATOM     19  C   UNL     1      10.609   6.203  51.977  0.00  0.00    +0.071 A 
ATOM     20  C   UNL     1      10.747   6.582  53.329  0.00  0.00    +0.002 A 
ATOM     21  C   UNL     1      10.349   5.710  54.359  0.00  0.00    +0.010 A 
ATOM     22  C   UNL     1       9.833   4.453  54.055  0.00  0.00    +0.001 A 
ATOM     23  C   UNL     1       9.703   4.071  52.725  0.00  0.00    +0.002 A 
ATOM     24  C   UNL     1      10.084   4.947  51.704  0.00  0.00    +0.028 A 
ATOM     25  C   UNL     1      11.298   7.836  53.616  0.00  0.00    +0.039 A 
ENDBRANCH  14  16
ENDBRANCH  10  12
ENDBRANCH   9  10
ENDBRANCH   5   9
ENDBRANCH   4   7
ENDBRANCH   1   4
BRANCH   1  26
ATOM     26  C   UNL     1      15.689   7.616  55.144  0.00  0.00    +0.175 C 
BRANCH  26  27
ATOM     27  C   UNL     1      15.534   6.557  54.043  0.00  0.00    +0.176 C 
ATOM     28  O   UNL     1      15.459   5.254  54.684  0.00  0.00    -0.332 OA
ATOM     29  C   UNL     1      15.203   4.121  53.789  0.00  0.00    +0.277 C 
ATOM     30  C   UNL     1      16.251   4.084  52.650  0.00  0.00    +0.110 C 
ATOM     31  C   UNL     1      16.389   5.457  51.959  0.00  0.00    +0.143 C 
ATOM     32  C   UNL     1      16.650   6.563  52.982  0.00  0.00    +0.133 C 
BRANCH  32  33
ATOM     33  N   UNL     1      16.693   7.877  52.322  0.00  0.00    -0.308 N 
ATOM     34  H   UNL     1      16.236   8.652  52.782  0.00  0.00    +0.149 HD
ATOM     35  C   UNL     1      17.295   8.113  51.153  0.00  0.00    +0.210 C 
ATOM     36  C   UNL     1      17.959   6.906  50.463  0.00  0.00    +0.109 C 
ATOM     37  O   UNL     1      17.328   9.227  50.630  0.00  0.00    -0.276 OA
ENDBRANCH  32  33
BRANCH  29  38
ATOM     38  C   UNL     1      13.787   4.211  53.185  0.00  0.00    +0.414 C 
ATOM     39  O   UNL     1      13.221   5.299  53.090  0.00  0.00    -0.240 OA
ATOM     40  O   UNL     1      13.210   3.195  52.793  0.00  0.00    -0.240 OA
ENDBRANCH  29  38
BRANCH  31  41
ATOM     41  O   UNL     1      17.466   5.419  51.022  0.00  0.00    -0.390 OA
ATOM     42  H   UNL     1      17.763   6.313  50.838  0.00  0.00    +0.210 HD
ENDBRANCH  31  41
BRANCH  29  43
ATOM     43  O   UNL     1      15.327   2.900  54.564  0.00  0.00    -0.343 OA
ATOM     44  C   UNL     1      14.607   2.898  55.822  0.00  0.00    +0.198 C 
ENDBRANCH  29  43
ENDBRANCH  26  27
BRANCH  26  45
ATOM     45  O   UNL     1      14.783   7.339  56.231  0.00  0.00    -0.387 OA
ATOM     46  H   UNL     1      13.943   7.037  55.878  0.00  0.00    +0.210 HD
ENDBRANCH  26  45
ENDBRANCH   1  26
TORSDOF 14
