REMARK  Name = lig_assembled_35.pdb
REMARK  19 active torsions:
REMARK  status: ('A' for Active; 'I' for Inactive)
REMARK    1  A    between atoms: _2  and  _9
REMARK    2  A    between atoms: _4  and  _17
REMARK    3  A    between atoms: _5  and  _9
REMARK    4  A    between atoms: _5  and  _11
REMARK    5  A    between atoms: _6  and  _7
REMARK    6  A    between atoms: _6  and  _17
REMARK    7  A    between atoms: _9  and  _10
REMARK    8  A    between atoms: _13  and  _33
REMARK    9  A    between atoms: _15  and  _21
REMARK   10  A    between atoms: _16  and  _20
REMARK   11  A    between atoms: _20  and  _21
REMARK   12  A    between atoms: _23  and  _24
REMARK   13  A    between atoms: _25  and  _26
REMARK   14  A    between atoms: _27  and  _29
REMARK   15  A    between atoms: _29  and  _30
REMARK   16  A    between atoms: _29  and  _31
REMARK   17  A    between atoms: _31  and  _32
REMARK   18  A    between atoms: _31  and  _33
REMARK   19  A    between atoms: _34  and  _36
REMARK                            x       y       z     vdW  Elec       q    Type
REMARK                         _______ _______ _______ _____ _____    ______ ____
ROOT
ATOM      1  C   UNL     1     -11.363  11.334  35.387  0.00  0.00    +0.163 C 
ENDROOT
BRANCH   1   2
ATOM      2  O   UNL     1     -12.516  10.927  34.632  0.00  0.00    -0.388 OA
ATOM      3  H   UNL     1     -13.078  10.372  35.179  0.00  0.00    +0.210 HD
ENDBRANCH   1   2
BRANCH   1   4
ATOM      4  C   UNL     1     -10.367  12.100  34.500  0.00  0.00    +0.175 C 
BRANCH   4   5
ATOM      5  C   UNL     1      -8.984  11.433  34.474  0.00  0.00    +0.176 C 
ATOM      6  O   UNL     1      -8.012  12.400  34.958  0.00  0.00    -0.332 OA
ATOM      7  C   UNL     1      -6.641  11.901  35.104  0.00  0.00    +0.277 C 
ATOM      8  C   UNL     1      -6.145  11.283  33.774  0.00  0.00    +0.110 C 
ATOM      9  C   UNL     1      -7.161  10.271  33.203  0.00  0.00    +0.143 C 
ATOM     10  C   UNL     1      -8.554  10.893  33.097  0.00  0.00    +0.133 C 
BRANCH  10  11
ATOM     11  N   UNL     1      -9.531   9.894  32.634  0.00  0.00    -0.308 N 
ATOM     12  H   UNL     1     -10.046  10.095  31.789  0.00  0.00    +0.149 HD
ATOM     13  C   UNL     1      -9.780   8.740  33.258  0.00  0.00    +0.210 C 
ATOM     14  C   UNL     1      -8.996   8.475  34.558  0.00  0.00    +0.109 C 
ATOM     15  O   UNL     1     -10.593   7.915  32.840  0.00  0.00    -0.276 OA
ENDBRANCH  10  11
BRANCH   7  16
ATOM     16  C   UNL     1      -6.559  10.845  36.226  0.00  0.00    +0.414 C 
ATOM     17  O   UNL     1      -7.293  10.927  37.210  0.00  0.00    -0.240 OA
ATOM     18  O   UNL     1      -5.760   9.911  36.147  0.00  0.00    -0.240 OA
ENDBRANCH   7  16
BRANCH   7  19
ATOM     19  O   UNL     1      -5.786  13.028  35.431  0.00  0.00    -0.343 OA
ATOM     20  C   UNL     1      -5.821  14.119  34.477  0.00  0.00    +0.198 C 
ENDBRANCH   7  19
BRANCH   9  21
ATOM     21  O   UNL     1      -6.738   9.841  31.909  0.00  0.00    -0.390 OA
ATOM     22  H   UNL     1      -7.489   9.489  31.426  0.00  0.00    +0.210 HD
ENDBRANCH   9  21
ENDBRANCH   4   5
BRANCH   4  23
ATOM     23  O   UNL     1     -10.251  13.465  34.947  0.00  0.00    -0.387 OA
ATOM     24  H   UNL     1      -9.607  13.516  35.658  0.00  0.00    +0.210 HD
ENDBRANCH   4  23
ENDBRANCH   1   4
BRANCH   1  25
ATOM     25  C   UNL     1     -11.789  12.217  36.555  0.00  0.00    +0.141 C 
BRANCH  25  28
ATOM     26  C   UNL     1     -14.046  13.209  36.717  0.00  0.00    +0.401 C 
ATOM     27  O   UNL     1     -14.424  12.439  37.603  0.00  0.00    -0.226 OA
ATOM     28  N   UNL     1     -12.833  13.173  36.165  0.00  0.00    -0.279 N 
ATOM     29  H   UNL     1     -12.620  13.842  35.438  0.00  0.00    +0.152 HD
BRANCH  26  30
ATOM     30  O   UNL     1     -14.949  14.208  36.234  0.00  0.00    -0.444 OA
BRANCH  30  31
ATOM     31  C   UNL     1     -15.048  15.266  37.191  0.00  0.00    +0.292 C 
BRANCH  31  33
ATOM     32  N   UNL     1     -13.060  16.339  36.182  0.00  0.00    -0.131 NA
ATOM     33  C   UNL     1     -13.760  15.978  37.301  0.00  0.00    +0.120 A 
ATOM     34  C   UNL     1     -13.062  16.382  38.418  0.00  0.00    +0.138 A 
ATOM     35  N   UNL     1     -11.955  16.996  37.911  0.00  0.00    -0.238 N 
ATOM     36  N   UNL     1     -11.948  16.949  36.567  0.00  0.00    -0.065 NA
BRANCH  35  37
ATOM     37  C   UNL     1     -10.844  17.623  38.602  0.00  0.00    +0.214 C 
ATOM     38  C   UNL     1     -11.328  18.393  39.827  0.00  0.00    +0.045 C 
BRANCH  37  39
ATOM     39  C   UNL     1      -9.768  16.615  38.949  0.00  0.00    +0.329 C 
ATOM     40  O   UNL     1      -9.091  16.650  39.968  0.00  0.00    -0.249 OA
BRANCH  39  41
ATOM     41  O   UNL     1      -9.578  15.653  38.012  0.00  0.00    -0.479 OA
ATOM     42  H   UNL     1     -10.166  15.698  37.231  0.00  0.00    +0.295 HD
ENDBRANCH  39  41
ENDBRANCH  37  39
ENDBRANCH  35  37
ENDBRANCH  31  33
ENDBRANCH  30  31
ENDBRANCH  26  30
ENDBRANCH  25  28
ENDBRANCH   1  25
TORSDOF 16
