REMARK  Name = lig_assembled_89.pdb
REMARK  19 active torsions:
REMARK  status: ('A' for Active; 'I' for Inactive)
REMARK    1  A    between atoms: _2  and  _12
REMARK    2  A    between atoms: _5  and  _20
REMARK    3  A    between atoms: _7  and  _29
REMARK    4  A    between atoms: _9  and  _10
REMARK    5  A    between atoms: _9  and  _29
REMARK    6  A    between atoms: _20  and  _21
REMARK    7  A    between atoms: _20  and  _22
REMARK    8  A    between atoms: _25  and  _45
REMARK    9  A    between atoms: _27  and  _33
REMARK   10  A    between atoms: _28  and  _32
REMARK   11  A    between atoms: _32  and  _33
REMARK   12  A    between atoms: _35  and  _36
REMARK   13  A    between atoms: _37  and  _38
REMARK   14  A    between atoms: _39  and  _41
REMARK   15  A    between atoms: _41  and  _42
REMARK   16  A    between atoms: _41  and  _43
REMARK   17  A    between atoms: _43  and  _44
REMARK   18  A    between atoms: _43  and  _45
REMARK   19  A    between atoms: _46  and  _48
REMARK                            x       y       z     vdW  Elec       q    Type
REMARK                         _______ _______ _______ _____ _____    ______ ____
ROOT
ATOM      1  C   UNL     1     -13.485   7.625  22.288  0.00  0.00    +0.401 C 
ATOM      2  O   UNL     1     -12.535   7.191  21.634  0.00  0.00    -0.226 OA
ATOM      3  N   UNL     1     -14.665   7.011  22.385  0.00  0.00    -0.279 N 
ATOM      4  H   UNL     1     -15.381   7.440  22.954  0.00  0.00    +0.152 HD
ENDROOT
BRANCH   3   5
ATOM      5  C   UNL     1     -14.982   5.745  21.712  0.00  0.00    +0.141 C 
BRANCH   5   6
ATOM      6  C   UNL     1     -16.175   5.043  22.353  0.00  0.00    +0.163 C 
BRANCH   6   7
ATOM      7  O   UNL     1     -16.354   3.744  21.767  0.00  0.00    -0.388 OA
ATOM      8  H   UNL     1     -16.584   3.840  20.839  0.00  0.00    +0.210 HD
ENDBRANCH   6   7
BRANCH   6   9
ATOM      9  C   UNL     1     -15.952   4.935  23.872  0.00  0.00    +0.175 C 
BRANCH   9  10
ATOM     10  C   UNL     1     -16.530   3.635  24.450  0.00  0.00    +0.176 C 
ATOM     11  O   UNL     1     -17.980   3.716  24.369  0.00  0.00    -0.332 OA
ATOM     12  C   UNL     1     -18.706   2.511  24.782  0.00  0.00    +0.277 C 
ATOM     13  C   UNL     1     -18.284   2.088  26.210  0.00  0.00    +0.110 C 
ATOM     14  C   UNL     1     -16.749   2.019  26.354  0.00  0.00    +0.143 C 
ATOM     15  C   UNL     1     -16.096   3.323  25.894  0.00  0.00    +0.133 C 
BRANCH  15  16
ATOM     16  N   UNL     1     -14.630   3.213  25.953  0.00  0.00    -0.308 N 
ATOM     17  H   UNL     1     -14.186   2.505  25.385  0.00  0.00    +0.149 HD
ATOM     18  C   UNL     1     -13.848   3.989  26.709  0.00  0.00    +0.210 C 
ATOM     19  C   UNL     1     -14.556   5.041  27.583  0.00  0.00    +0.109 C 
ATOM     20  O   UNL     1     -12.621   3.884  26.728  0.00  0.00    -0.276 OA
ENDBRANCH  15  16
BRANCH  12  21
ATOM     21  C   UNL     1     -18.442   1.350  23.800  0.00  0.00    +0.414 C 
ATOM     22  O   UNL     1     -18.529   0.183  24.182  0.00  0.00    -0.240 OA
ATOM     23  O   UNL     1     -18.141   1.580  22.628  0.00  0.00    -0.240 OA
ENDBRANCH  12  21
BRANCH  14  24
ATOM     24  O   UNL     1     -16.404   1.775  27.718  0.00  0.00    -0.390 OA
ATOM     25  H   UNL     1     -15.497   2.049  27.872  0.00  0.00    +0.210 HD
ENDBRANCH  14  24
BRANCH  12  26
ATOM     26  O   UNL     1     -20.123   2.824  24.797  0.00  0.00    -0.343 OA
ATOM     27  C   UNL     1     -20.457   4.170  24.373  0.00  0.00    +0.198 C 
ENDBRANCH  12  26
ENDBRANCH   9  10
BRANCH   9  28
ATOM     28  O   UNL     1     -16.528   6.075  24.540  0.00  0.00    -0.387 OA
ATOM     29  H   UNL     1     -17.461   5.916  24.699  0.00  0.00    +0.210 HD
ENDBRANCH   9  28
ENDBRANCH   6   9
ENDBRANCH   5   6
ENDBRANCH   3   5
BRANCH   1  30
ATOM     30  O   UNL     1     -13.336   8.857  22.998  0.00  0.00    -0.444 OA
BRANCH  30  31
ATOM     31  C   UNL     1     -14.342   8.951  24.010  0.00  0.00    +0.292 C 
BRANCH  31  33
ATOM     32  N   UNL     1     -14.484   8.996  26.471  0.00  0.00    -0.131 NA
ATOM     33  C   UNL     1     -13.733   8.828  25.346  0.00  0.00    +0.121 A 
ATOM     34  C   UNL     1     -12.442   8.530  25.709  0.00  0.00    +0.145 A 
ATOM     35  N   UNL     1     -12.453   8.499  27.091  0.00  0.00    -0.199 N 
ATOM     36  N   UNL     1     -13.703   8.787  27.522  0.00  0.00    -0.059 NA
BRANCH  35  37
ATOM     37  C   UNL     1     -11.357   8.127  27.924  0.00  0.00    +0.186 A 
ATOM     38  C   UNL     1     -10.448   8.921  28.593  0.00  0.00    +0.158 A 
ATOM     39  C   UNL     1     -10.194  10.329  28.598  0.00  0.00    +0.280 A 
ATOM     40  O   UNL     1     -10.568  11.066  27.696  0.00  0.00    -0.265 OA
ATOM     41  N   UNL     1      -9.453  10.802  29.700  0.00  0.00    -0.302 N 
ATOM     42  C   UNL     1      -8.640   9.890  30.474  0.00  0.00    +0.069 A 
ATOM     43  C   UNL     1      -7.676  10.328  31.394  0.00  0.00    +0.028 A 
ATOM     44  C   UNL     1      -6.869   9.417  32.089  0.00  0.00    +0.002 A 
ATOM     45  C   UNL     1      -7.013   8.049  31.889  0.00  0.00    +0.002 A 
ATOM     46  C   UNL     1      -7.969   7.579  30.994  0.00  0.00    +0.028 A 
ATOM     47  C   UNL     1      -8.763   8.495  30.290  0.00  0.00    +0.072 A 
ATOM     48  N   UNL     1      -9.731   8.054  29.373  0.00  0.00    -0.291 N 
ATOM     49  C   UNL     1     -10.149   6.784  29.065  0.00  0.00    +0.207 A 
ATOM     50  N   UNL     1     -11.141   6.790  28.200  0.00  0.00    -0.216 NA
BRANCH  41  51
ATOM     51  C   UNL     1      -9.372  12.267  29.904  0.00  0.00    +0.085 C 
ATOM     52  C   UNL     1     -10.748  12.959  29.978  0.00  0.00    +0.030 C 
ATOM     53  C   UNL     1      -8.491  12.940  28.852  0.00  0.00    +0.030 C 
ENDBRANCH  41  51
ENDBRANCH  35  37
ENDBRANCH  31  33
ENDBRANCH  30  31
ENDBRANCH   1  30
TORSDOF 15
