REMARK  Name = lig_assembled_56.pdb
REMARK  16 active torsions:
REMARK  status: ('A' for Active; 'I' for Inactive)
REMARK    1  A    between atoms: _2  and  _10
REMARK    2  A    between atoms: _5  and  _18
REMARK    3  A    between atoms: _7  and  _8
REMARK    4  A    between atoms: _7  and  _18
REMARK    5  A    between atoms: _14  and  _34
REMARK    6  A    between atoms: _16  and  _22
REMARK    7  A    between atoms: _17  and  _21
REMARK    8  A    between atoms: _21  and  _22
REMARK    9  A    between atoms: _24  and  _25
REMARK   10  A    between atoms: _26  and  _27
REMARK   11  A    between atoms: _28  and  _30
REMARK   12  A    between atoms: _30  and  _31
REMARK   13  A    between atoms: _30  and  _32
REMARK   14  A    between atoms: _32  and  _33
REMARK   15  A    between atoms: _32  and  _34
REMARK   16  A    between atoms: _35  and  _37
REMARK                            x       y       z     vdW  Elec       q    Type
REMARK                         _______ _______ _______ _____ _____    ______ ____
ROOT
ATOM      1  C   UNL     1     -16.703  12.962  36.701  0.00  0.00    +0.163 C 
ENDROOT
BRANCH   1   2
ATOM      2  O   UNL     1     -18.127  13.151  36.696  0.00  0.00    -0.388 OA
ATOM      3  H   UNL     1     -18.517  12.672  37.432  0.00  0.00    +0.210 HD
ENDBRANCH   1   2
BRANCH   1   4
ATOM      4  C   UNL     1     -16.098  13.585  37.955  0.00  0.00    +0.141 C 
BRANCH   4   7
ATOM      5  C   UNL     1     -13.841  12.968  38.751  0.00  0.00    +0.401 C 
ATOM      6  O   UNL     1     -13.313  14.006  38.348  0.00  0.00    -0.226 OA
ATOM      7  N   UNL     1     -15.136  12.685  38.604  0.00  0.00    -0.279 N 
ATOM      8  H   UNL     1     -15.475  11.802  38.960  0.00  0.00    +0.152 HD
BRANCH   5   9
ATOM      9  O   UNL     1     -13.035  11.990  39.414  0.00  0.00    -0.444 OA
BRANCH   9  10
ATOM     10  C   UNL     1     -11.925  11.643  38.583  0.00  0.00    +0.292 C 
BRANCH  10  12
ATOM     11  N   UNL     1     -11.177   9.739  37.191  0.00  0.00    -0.131 NA
ATOM     12  C   UNL     1     -12.118  10.300  38.003  0.00  0.00    +0.121 A 
ATOM     13  C   UNL     1     -13.170   9.423  38.146  0.00  0.00    +0.143 A 
ATOM     14  N   UNL     1     -12.812   8.318  37.407  0.00  0.00    -0.220 N 
ATOM     15  N   UNL     1     -11.605   8.537  36.830  0.00  0.00    -0.060 NA
BRANCH  14  16
ATOM     16  C   UNL     1     -13.517   7.102  37.229  0.00  0.00    +0.070 A 
ATOM     17  C   UNL     1     -14.791   6.923  37.773  0.00  0.00    +0.047 A 
ATOM     18  C   UNL     1     -15.417   5.702  37.574  0.00  0.00    +0.113 A 
ATOM     19  N   UNL     1     -14.869   4.679  36.887  0.00  0.00    -0.263 NA
ATOM     20  C   UNL     1     -13.638   4.879  36.370  0.00  0.00    +0.113 A 
ATOM     21  C   UNL     1     -12.928   6.058  36.510  0.00  0.00    +0.047 A 
ENDBRANCH  14  16
ENDBRANCH  10  12
ENDBRANCH   9  10
ENDBRANCH   5   9
ENDBRANCH   4   7
ENDBRANCH   1   4
BRANCH   1  22
ATOM     22  C   UNL     1     -16.060  13.591  35.454  0.00  0.00    +0.175 C 
BRANCH  22  23
ATOM     23  C   UNL     1     -15.893  12.575  34.314  0.00  0.00    +0.176 C 
ATOM     24  O   UNL     1     -14.501  12.599  33.893  0.00  0.00    -0.332 OA
ATOM     25  C   UNL     1     -14.129  11.610  32.877  0.00  0.00    +0.277 C 
ATOM     26  C   UNL     1     -15.052  11.732  31.640  0.00  0.00    +0.110 C 
ATOM     27  C   UNL     1     -16.543  11.743  32.040  0.00  0.00    +0.143 C 
ATOM     28  C   UNL     1     -16.817  12.806  33.104  0.00  0.00    +0.133 C 
BRANCH  28  29
ATOM     29  N   UNL     1     -18.221  12.748  33.540  0.00  0.00    -0.308 N 
ATOM     30  H   UNL     1     -18.771  13.593  33.474  0.00  0.00    +0.149 HD
ATOM     31  C   UNL     1     -18.817  11.652  34.017  0.00  0.00    +0.210 C 
ATOM     32  C   UNL     1     -17.945  10.387  34.130  0.00  0.00    +0.109 C 
ATOM     33  O   UNL     1     -19.999  11.629  34.361  0.00  0.00    -0.276 OA
ENDBRANCH  28  29
BRANCH  25  34
ATOM     34  C   UNL     1     -14.218  10.180  33.448  0.00  0.00    +0.414 C 
ATOM     35  O   UNL     1     -14.019   9.976  34.645  0.00  0.00    -0.240 OA
ATOM     36  O   UNL     1     -14.488   9.230  32.712  0.00  0.00    -0.240 OA
ENDBRANCH  25  34
BRANCH  27  37
ATOM     37  O   UNL     1     -17.348  12.008  30.891  0.00  0.00    -0.390 OA
ATOM     38  H   UNL     1     -18.207  12.334  31.170  0.00  0.00    +0.210 HD
ENDBRANCH  27  37
BRANCH  25  39
ATOM     39  O   UNL     1     -12.767  11.886  32.460  0.00  0.00    -0.343 OA
ATOM     40  C   UNL     1     -12.252  13.179  32.868  0.00  0.00    +0.198 C 
ENDBRANCH  25  39
ENDBRANCH  22  23
BRANCH  22  41
ATOM     41  O   UNL     1     -14.784  14.172  35.791  0.00  0.00    -0.387 OA
ATOM     42  H   UNL     1     -14.105  13.494  35.760  0.00  0.00    +0.210 HD
ENDBRANCH  22  41
ENDBRANCH   1  22
TORSDOF 14
