REMARK  Name = lig_assembled_27.pdb
REMARK  16 active torsions:
REMARK  status: ('A' for Active; 'I' for Inactive)
REMARK    1  A    between atoms: _2  and  _9
REMARK    2  A    between atoms: _4  and  _18
REMARK    3  A    between atoms: _6  and  _7
REMARK    4  A    between atoms: _6  and  _18
REMARK    5  A    between atoms: _14  and  _34
REMARK    6  A    between atoms: _16  and  _22
REMARK    7  A    between atoms: _17  and  _21
REMARK    8  A    between atoms: _21  and  _22
REMARK    9  A    between atoms: _24  and  _25
REMARK   10  A    between atoms: _26  and  _27
REMARK   11  A    between atoms: _28  and  _30
REMARK   12  A    between atoms: _30  and  _31
REMARK   13  A    between atoms: _30  and  _32
REMARK   14  A    between atoms: _32  and  _33
REMARK   15  A    between atoms: _32  and  _34
REMARK   16  A    between atoms: _35  and  _37
REMARK                            x       y       z     vdW  Elec       q    Type
REMARK                         _______ _______ _______ _____ _____    ______ ____
ROOT
ATOM      1  C   UNL     1     -15.376  -3.825  25.484  0.00  0.00    +0.163 C 
ENDROOT
BRANCH   1   2
ATOM      2  O   UNL     1     -14.088  -4.418  25.718  0.00  0.00    -0.388 OA
ATOM      3  H   UNL     1     -13.482  -4.150  25.023  0.00  0.00    +0.210 HD
ENDBRANCH   1   2
BRANCH   1   4
ATOM      4  C   UNL     1     -15.280  -2.307  25.595  0.00  0.00    +0.141 C 
BRANCH   4   7
ATOM      5  C   UNL     1     -13.434  -0.666  25.553  0.00  0.00    +0.401 C 
ATOM      6  O   UNL     1     -14.085   0.193  24.954  0.00  0.00    -0.226 OA
ATOM      7  N   UNL     1     -13.911  -1.865  25.887  0.00  0.00    -0.279 N 
ATOM      8  H   UNL     1     -13.297  -2.506  26.370  0.00  0.00    +0.152 HD
BRANCH   5   9
ATOM      9  O   UNL     1     -12.080  -0.382  25.917  0.00  0.00    -0.444 OA
BRANCH   9  10
ATOM     10  C   UNL     1     -11.264  -0.361  24.744  0.00  0.00    +0.292 C 
BRANCH  10  12
ATOM     11  N   UNL     1      -9.195   0.395  25.872  0.00  0.00    -0.131 NA
ATOM     12  C   UNL     1     -10.147   0.586  24.912  0.00  0.00    +0.121 A 
ATOM     13  C   UNL     1      -9.854   1.734  24.213  0.00  0.00    +0.143 A 
ATOM     14  N   UNL     1      -8.697   2.214  24.781  0.00  0.00    -0.220 N 
ATOM     15  N   UNL     1      -8.320   1.388  25.788  0.00  0.00    -0.060 NA
BRANCH  14  16
ATOM     16  C   UNL     1      -7.951   3.370  24.438  0.00  0.00    +0.068 A 
ATOM     17  C   UNL     1      -8.616   4.588  24.220  0.00  0.00    +0.028 A 
ATOM     18  C   UNL     1      -7.892   5.733  23.879  0.00  0.00    +0.003 A 
ATOM     19  C   UNL     1      -6.506   5.672  23.752  0.00  0.00    +0.020 A 
ATOM     20  C   UNL     1      -5.845   4.466  23.970  0.00  0.00    +0.043 A 
ATOM     21 CL   UNL     1      -4.132   4.391  23.815  0.00  0.00    -0.083 Cl
ATOM     22  C   UNL     1      -6.556   3.314  24.313  0.00  0.00    +0.047 A 
ENDBRANCH  14  16
ENDBRANCH  10  12
ENDBRANCH   9  10
ENDBRANCH   5   9
ENDBRANCH   4   7
ENDBRANCH   1   4
BRANCH   1  23
ATOM     23  C   UNL     1     -16.414  -4.349  26.492  0.00  0.00    +0.175 C 
BRANCH  23  24
ATOM     24  C   UNL     1     -16.085  -3.928  27.932  0.00  0.00    +0.176 C 
ATOM     25  O   UNL     1     -14.928  -4.694  28.369  0.00  0.00    -0.332 OA
ATOM     26  C   UNL     1     -14.401  -4.348  29.692  0.00  0.00    +0.277 C 
ATOM     27  C   UNL     1     -15.520  -4.434  30.759  0.00  0.00    +0.110 C 
ATOM     28  C   UNL     1     -16.783  -3.661  30.325  0.00  0.00    +0.143 C 
ATOM     29  C   UNL     1     -17.242  -4.098  28.934  0.00  0.00    +0.133 C 
BRANCH  29  30
ATOM     30  N   UNL     1     -18.393  -3.293  28.495  0.00  0.00    -0.308 N 
ATOM     31  H   UNL     1     -18.265  -2.295  28.406  0.00  0.00    +0.149 HD
ATOM     32  C   UNL     1     -19.597  -3.796  28.207  0.00  0.00    +0.210 C 
ATOM     33  C   UNL     1     -19.768  -5.317  28.378  0.00  0.00    +0.109 C 
ATOM     34  O   UNL     1     -20.539  -3.099  27.828  0.00  0.00    -0.276 OA
ENDBRANCH  29  30
BRANCH  26  35
ATOM     35  C   UNL     1     -13.802  -2.926  29.687  0.00  0.00    +0.414 C 
ATOM     36  O   UNL     1     -13.234  -2.496  28.684  0.00  0.00    -0.240 OA
ATOM     37  O   UNL     1     -13.887  -2.209  30.685  0.00  0.00    -0.240 OA
ENDBRANCH  26  35
BRANCH  28  38
ATOM     38  O   UNL     1     -17.835  -3.892  31.262  0.00  0.00    -0.390 OA
ATOM     39  H   UNL     1     -18.680  -3.699  30.849  0.00  0.00    +0.210 HD
ENDBRANCH  28  38
BRANCH  26  40
ATOM     40  O   UNL     1     -13.370  -5.311  30.031  0.00  0.00    -0.343 OA
ATOM     41  C   UNL     1     -13.754  -6.700  29.873  0.00  0.00    +0.198 C 
ENDBRANCH  26  40
ENDBRANCH  23  24
BRANCH  23  42
ATOM     42  O   UNL     1     -16.510  -5.785  26.404  0.00  0.00    -0.387 OA
ATOM     43  H   UNL     1     -15.828  -6.186  26.948  0.00  0.00    +0.210 HD
ENDBRANCH  23  42
ENDBRANCH   1  23
TORSDOF 14
