REMARK  Name = lig_assembled_16.pdb
REMARK  19 active torsions:
REMARK  status: ('A' for Active; 'I' for Inactive)
REMARK    1  A    between atoms: _2  and  _9
REMARK    2  A    between atoms: _4  and  _22
REMARK    3  A    between atoms: _6  and  _7
REMARK    4  A    between atoms: _6  and  _22
REMARK    5  A    between atoms: _9  and  _10
REMARK    6  A    between atoms: _13  and  _14
REMARK    7  A    between atoms: _14  and  _16
REMARK    8  A    between atoms: _18  and  _38
REMARK    9  A    between atoms: _20  and  _26
REMARK   10  A    between atoms: _21  and  _25
REMARK   11  A    between atoms: _25  and  _26
REMARK   12  A    between atoms: _28  and  _29
REMARK   13  A    between atoms: _30  and  _31
REMARK   14  A    between atoms: _32  and  _34
REMARK   15  A    between atoms: _34  and  _35
REMARK   16  A    between atoms: _34  and  _36
REMARK   17  A    between atoms: _36  and  _37
REMARK   18  A    between atoms: _36  and  _38
REMARK   19  A    between atoms: _39  and  _41
REMARK                            x       y       z     vdW  Elec       q    Type
REMARK                         _______ _______ _______ _____ _____    ______ ____
ROOT
ATOM      1  C   UNL     1     -17.138   5.041  29.153  0.00  0.00    +0.163 C 
ENDROOT
BRANCH   1   2
ATOM      2  O   UNL     1     -16.270   4.006  28.664  0.00  0.00    -0.388 OA
ATOM      3  H   UNL     1     -16.292   3.997  27.704  0.00  0.00    +0.210 HD
ENDBRANCH   1   2
BRANCH   1   4
ATOM      4  C   UNL     1     -17.245   4.990  30.687  0.00  0.00    +0.175 C 
BRANCH   4   5
ATOM      5  C   UNL     1     -18.139   6.107  31.243  0.00  0.00    +0.176 C 
ATOM      6  O   UNL     1     -17.373   6.841  32.237  0.00  0.00    -0.332 OA
ATOM      7  C   UNL     1     -18.035   8.020  32.805  0.00  0.00    +0.277 C 
ATOM      8  C   UNL     1     -19.418   7.636  33.387  0.00  0.00    +0.110 C 
ATOM      9  C   UNL     1     -20.257   6.827  32.376  0.00  0.00    +0.143 C 
ATOM     10  C   UNL     1     -19.471   5.626  31.848  0.00  0.00    +0.133 C 
BRANCH  10  11
ATOM     11  N   UNL     1     -20.248   4.913  30.821  0.00  0.00    -0.308 N 
ATOM     12  H   UNL     1     -20.471   3.942  30.989  0.00  0.00    +0.149 HD
ATOM     13  C   UNL     1     -20.678   5.466  29.684  0.00  0.00    +0.210 C 
ATOM     14  C   UNL     1     -20.299   6.940  29.447  0.00  0.00    +0.109 C 
ATOM     15  O   UNL     1     -21.339   4.848  28.849  0.00  0.00    -0.276 OA
ENDBRANCH  10  11
BRANCH   7  16
ATOM     16  C   UNL     1     -18.213   9.116  31.733  0.00  0.00    +0.414 C 
ATOM     17  O   UNL     1     -17.398   9.226  30.818  0.00  0.00    -0.240 OA
ATOM     18  O   UNL     1     -19.170   9.889  31.784  0.00  0.00    -0.240 OA
ENDBRANCH   7  16
BRANCH   7  19
ATOM     19  O   UNL     1     -17.207   8.523  33.885  0.00  0.00    -0.343 OA
ATOM     20  C   UNL     1     -16.475   7.508  34.619  0.00  0.00    +0.198 C 
ENDBRANCH   7  19
BRANCH   9  21
ATOM     21  O   UNL     1     -21.454   6.367  33.003  0.00  0.00    -0.390 OA
ATOM     22  H   UNL     1     -21.807   5.620  32.513  0.00  0.00    +0.210 HD
ENDBRANCH   9  21
ENDBRANCH   4   5
BRANCH   4  23
ATOM     23  O   UNL     1     -15.932   5.064  31.279  0.00  0.00    -0.387 OA
ATOM     24  H   UNL     1     -15.669   5.984  31.361  0.00  0.00    +0.210 HD
ENDBRANCH   4  23
ENDBRANCH   1   4
BRANCH   1  25
ATOM     25  C   UNL     1     -16.615   6.408  28.725  0.00  0.00    +0.141 C 
BRANCH  25  28
ATOM     26  C   UNL     1     -14.386   7.171  29.468  0.00  0.00    +0.401 C 
ATOM     27  O   UNL     1     -14.829   7.912  30.349  0.00  0.00    -0.226 OA
ATOM     28  N   UNL     1     -15.149   6.437  28.658  0.00  0.00    -0.279 N 
ATOM     29  H   UNL     1     -14.693   5.867  27.959  0.00  0.00    +0.152 HD
BRANCH  26  30
ATOM     30  O   UNL     1     -12.971   7.083  29.282  0.00  0.00    -0.444 OA
BRANCH  30  31
ATOM     31  C   UNL     1     -12.593   5.712  29.130  0.00  0.00    +0.292 C 
BRANCH  31  33
ATOM     32  N   UNL     1     -11.008   4.455  27.701  0.00  0.00    -0.131 NA
ATOM     33  C   UNL     1     -11.339   5.609  28.364  0.00  0.00    +0.120 A 
ATOM     34  C   UNL     1     -10.357   6.550  28.150  0.00  0.00    +0.137 A 
ATOM     35  N   UNL     1      -9.509   5.939  27.274  0.00  0.00    -0.247 N 
ATOM     36  N   UNL     1      -9.872   4.664  27.047  0.00  0.00    -0.065 NA
BRANCH  35  37
ATOM     37  C   UNL     1      -8.360   6.511  26.601  0.00  0.00    +0.180 C 
BRANCH  37  38
ATOM     38  C   UNL     1      -8.782   7.444  25.488  0.00  0.00    -0.026 A 
ATOM     39  C   UNL     1      -8.758   8.834  25.672  0.00  0.00    +0.006 A 
ATOM     40  C   UNL     1      -9.113   9.692  24.627  0.00  0.00    +0.015 A 
ATOM     41  C   UNL     1      -9.508   9.175  23.392  0.00  0.00    +0.059 A 
ATOM     42  C   UNL     1      -9.558   7.786  23.203  0.00  0.00    +0.015 A 
ATOM     43  C   UNL     1      -9.209   6.930  24.252  0.00  0.00    +0.006 A 
BRANCH  41  44
ATOM     44  C   UNL     1      -9.804  10.133  22.294  0.00  0.00    +0.337 C 
ATOM     45  O   UNL     1      -9.310  11.248  22.244  0.00  0.00    -0.245 OA
BRANCH  44  46
ATOM     46  O   UNL     1     -10.687   9.676  21.385  0.00  0.00    -0.477 OA
ATOM     47  H   UNL     1     -11.143   8.851  21.628  0.00  0.00    +0.295 HD
ENDBRANCH  44  46
ENDBRANCH  41  44
ENDBRANCH  37  38
ENDBRANCH  35  37
ENDBRANCH  31  33
ENDBRANCH  30  31
ENDBRANCH  26  30
ENDBRANCH  25  28
ENDBRANCH   1  25
TORSDOF 17
