REMARK  Name = lig_assembled_48.pdb
REMARK  16 active torsions:
REMARK  status: ('A' for Active; 'I' for Inactive)
REMARK    1  A    between atoms: _2  and  _9
REMARK    2  A    between atoms: _4  and  _18
REMARK    3  A    between atoms: _6  and  _7
REMARK    4  A    between atoms: _6  and  _18
REMARK    5  A    between atoms: _14  and  _34
REMARK    6  A    between atoms: _16  and  _22
REMARK    7  A    between atoms: _17  and  _21
REMARK    8  A    between atoms: _21  and  _22
REMARK    9  A    between atoms: _24  and  _25
REMARK   10  A    between atoms: _26  and  _27
REMARK   11  A    between atoms: _28  and  _30
REMARK   12  A    between atoms: _30  and  _31
REMARK   13  A    between atoms: _30  and  _32
REMARK   14  A    between atoms: _32  and  _33
REMARK   15  A    between atoms: _32  and  _34
REMARK   16  A    between atoms: _35  and  _37
REMARK                            x       y       z     vdW  Elec       q    Type
REMARK                         _______ _______ _______ _____ _____    ______ ____
ROOT
ATOM      1  C   UNL     1     -11.667  11.519  34.158  0.00  0.00    +0.163 C 
ENDROOT
BRANCH   1   2
ATOM      2  O   UNL     1     -10.660  12.456  34.574  0.00  0.00    -0.388 OA
ATOM      3  H   UNL     1     -10.136  12.722  33.814  0.00  0.00    +0.210 HD
ENDBRANCH   1   2
BRANCH   1   4
ATOM      4  C   UNL     1     -12.648  12.196  33.206  0.00  0.00    +0.141 C 
BRANCH   4   7
ATOM      5  C   UNL     1     -12.135  12.853  30.880  0.00  0.00    +0.401 C 
ATOM      6  O   UNL     1     -12.206  14.063  31.107  0.00  0.00    -0.226 OA
ATOM      7  N   UNL     1     -12.334  11.909  31.801  0.00  0.00    -0.279 N 
ATOM      8  H   UNL     1     -12.263  10.943  31.516  0.00  0.00    +0.152 HD
BRANCH   5   9
ATOM      9  O   UNL     1     -11.827  12.412  29.555  0.00  0.00    -0.444 OA
BRANCH   9  10
ATOM     10  C   UNL     1     -10.857  11.363  29.614  0.00  0.00    +0.292 C 
BRANCH  10  12
ATOM     11  N   UNL     1      -8.665  10.895  28.575  0.00  0.00    -0.131 NA
ATOM     12  C   UNL     1      -9.882  11.513  28.519  0.00  0.00    +0.120 A 
ATOM     13  C   UNL     1      -9.982  12.203  27.331  0.00  0.00    +0.137 A 
ATOM     14  N   UNL     1      -8.835  11.890  26.664  0.00  0.00    -0.248 N 
ATOM     15  N   UNL     1      -8.015  11.163  27.453  0.00  0.00    -0.065 NA
BRANCH  14  16
ATOM     16  C   UNL     1      -8.427  12.165  25.291  0.00  0.00    +0.109 C 
ATOM     17  C   UNL     1      -7.789  10.921  24.644  0.00  0.00    +0.027 C 
ATOM     18  C   UNL     1      -8.835   9.852  24.336  0.00  0.00    +0.002 C 
ATOM     19  C   UNL     1      -9.896  10.389  23.383  0.00  0.00    +0.000 C 
ATOM     20  C   UNL     1     -10.543  11.674  23.893  0.00  0.00    +0.002 C 
ATOM     21  C   UNL     1      -9.526  12.720  24.363  0.00  0.00    +0.027 C 
ENDBRANCH  14  16
ENDBRANCH  10  12
ENDBRANCH   9  10
ENDBRANCH   5   9
ENDBRANCH   4   7
ENDBRANCH   1   4
BRANCH   1  22
ATOM     22  C   UNL     1     -12.431  10.958  35.370  0.00  0.00    +0.175 C 
BRANCH  22  23
ATOM     23  C   UNL     1     -11.565  10.007  36.208  0.00  0.00    +0.176 C 
ATOM     24  O   UNL     1     -10.722   9.248  35.297  0.00  0.00    -0.332 OA
ATOM     25  C   UNL     1      -9.746   8.357  35.930  0.00  0.00    +0.277 C 
ATOM     26  C   UNL     1     -10.451   7.393  36.915  0.00  0.00    +0.110 C 
ATOM     27  C   UNL     1     -11.383   8.151  37.884  0.00  0.00    +0.143 C 
ATOM     28  C   UNL     1     -12.356   9.050  37.120  0.00  0.00    +0.133 C 
BRANCH  28  29
ATOM     29  N   UNL     1     -13.179   9.831  38.056  0.00  0.00    -0.308 N 
ATOM     30  H   UNL     1     -12.727  10.564  38.583  0.00  0.00    +0.149 HD
ATOM     31  C   UNL     1     -14.486   9.635  38.254  0.00  0.00    +0.210 C 
ATOM     32  C   UNL     1     -15.140   8.493  37.454  0.00  0.00    +0.109 C 
ATOM     33  O   UNL     1     -15.153  10.315  39.033  0.00  0.00    -0.276 OA
ENDBRANCH  28  29
BRANCH  25  34
ATOM     34  C   UNL     1      -8.672   9.169  36.684  0.00  0.00    +0.414 C 
ATOM     35  O   UNL     1      -8.521   9.023  37.897  0.00  0.00    -0.240 OA
ATOM     36  O   UNL     1      -7.957   9.971  36.081  0.00  0.00    -0.240 OA
ENDBRANCH  25  34
BRANCH  27  37
ATOM     37  O   UNL     1     -12.125   7.216  38.669  0.00  0.00    -0.390 OA
ATOM     38  H   UNL     1     -12.910   7.643  39.020  0.00  0.00    +0.210 HD
ENDBRANCH  27  37
BRANCH  25  39
ATOM     39  O   UNL     1      -9.117   7.567  34.888  0.00  0.00    -0.343 OA
ATOM     40  C   UNL     1      -9.531   7.895  33.538  0.00  0.00    +0.198 C 
ENDBRANCH  25  39
ENDBRANCH  22  23
BRANCH  22  41
ATOM     41  O   UNL     1     -13.629  10.285  34.933  0.00  0.00    -0.387 OA
ATOM     42  H   UNL     1     -13.417   9.381  34.689  0.00  0.00    +0.210 HD
ENDBRANCH  22  41
ENDBRANCH   1  22
TORSDOF 14
