REMARK  Name = lig_assembled_85.pdb
REMARK  19 active torsions:
REMARK  status: ('A' for Active; 'I' for Inactive)
REMARK    1  A    between atoms: _2  and  _10
REMARK    2  A    between atoms: _3  and  _6
REMARK    3  A    between atoms: _3  and  _17
REMARK    4  A    between atoms: _5  and  _23
REMARK    5  A    between atoms: _7  and  _8
REMARK    6  A    between atoms: _7  and  _23
REMARK    7  A    between atoms: _15  and  _16
REMARK    8  A    between atoms: _19  and  _39
REMARK    9  A    between atoms: _21  and  _27
REMARK   10  A    between atoms: _22  and  _26
REMARK   11  A    between atoms: _26  and  _27
REMARK   12  A    between atoms: _29  and  _30
REMARK   13  A    between atoms: _31  and  _32
REMARK   14  A    between atoms: _33  and  _35
REMARK   15  A    between atoms: _35  and  _36
REMARK   16  A    between atoms: _35  and  _37
REMARK   17  A    between atoms: _37  and  _38
REMARK   18  A    between atoms: _37  and  _39
REMARK   19  A    between atoms: _40  and  _42
REMARK                            x       y       z     vdW  Elec       q    Type
REMARK                         _______ _______ _______ _____ _____    ______ ____
ROOT
ATOM      1  C   UNL     1      -5.570  22.250  27.152  0.00  0.00    +0.141 C 
ENDROOT
BRANCH   1   4
ATOM      2  C   UNL     1      -5.452  20.193  28.516  0.00  0.00    +0.401 C 
ATOM      3  O   UNL     1      -4.436  20.541  29.122  0.00  0.00    -0.226 OA
ATOM      4  N   UNL     1      -6.046  20.927  27.574  0.00  0.00    -0.279 N 
ATOM      5  H   UNL     1      -6.870  20.552  27.126  0.00  0.00    +0.152 HD
BRANCH   2   6
ATOM      6  O   UNL     1      -6.044  18.928  28.820  0.00  0.00    -0.444 OA
BRANCH   6   7
ATOM      7  C   UNL     1      -6.464  18.293  27.610  0.00  0.00    +0.292 C 
BRANCH   7   9
ATOM      8  N   UNL     1      -6.827  15.893  27.156  0.00  0.00    -0.131 NA
ATOM      9  C   UNL     1      -7.103  16.999  27.908  0.00  0.00    +0.121 A 
ATOM     10  C   UNL     1      -7.966  16.656  28.924  0.00  0.00    +0.143 A 
ATOM     11  N   UNL     1      -8.187  15.311  28.752  0.00  0.00    -0.219 N 
ATOM     12  N   UNL     1      -7.469  14.866  27.694  0.00  0.00    -0.060 NA
BRANCH  11  13
ATOM     13  C   UNL     1      -8.932  14.413  29.547  0.00  0.00    +0.080 A 
ATOM     14  C   UNL     1     -10.018  13.659  29.077  0.00  0.00    +0.062 A 
ATOM     15  C   UNL     1     -10.822  12.998  30.035  0.00  0.00    +0.016 A 
ATOM     16  C   UNL     1     -10.544  13.061  31.405  0.00  0.00    +0.021 A 
ATOM     17  C   UNL     1      -9.424  13.751  31.841  0.00  0.00    +0.043 A 
ATOM     18 CL   UNL     1      -9.086  13.869  33.524  0.00  0.00    -0.083 Cl
ATOM     19  C   UNL     1      -8.605  14.401  30.923  0.00  0.00    +0.048 A 
BRANCH  14  20
ATOM     20  C   UNL     1     -10.512  13.510  27.676  0.00  0.00    +0.248 C 
ATOM     21  O   UNL     1     -11.310  14.377  27.309  0.00  0.00    -0.270 OA
ATOM     22  N   UNL     1     -10.169  12.444  26.837  0.00  0.00    -0.304 N 
ATOM     23  C   UNL     1      -9.157  11.420  27.061  0.00  0.00    +0.132 C 
ATOM     24  C   UNL     1     -10.756  12.456  25.501  0.00  0.00    +0.132 C 
ENDBRANCH  14  20
ENDBRANCH  11  13
ENDBRANCH   7   9
ENDBRANCH   6   7
ENDBRANCH   2   6
ENDBRANCH   1   4
BRANCH   1  25
ATOM     25  C   UNL     1      -6.581  23.347  27.470  0.00  0.00    +0.163 C 
BRANCH  25  26
ATOM     26  O   UNL     1      -5.905  24.602  27.651  0.00  0.00    -0.388 OA
ATOM     27  H   UNL     1      -5.335  24.550  28.422  0.00  0.00    +0.210 HD
ENDBRANCH  25  26
BRANCH  25  28
ATOM     28  C   UNL     1      -7.615  23.438  26.335  0.00  0.00    +0.175 C 
BRANCH  28  29
ATOM     29  C   UNL     1      -6.951  23.610  24.961  0.00  0.00    +0.176 C 
ATOM     30  O   UNL     1      -6.653  25.022  24.782  0.00  0.00    -0.332 OA
ATOM     31  C   UNL     1      -5.916  25.365  23.562  0.00  0.00    +0.277 C 
ATOM     32  C   UNL     1      -6.654  24.823  22.313  0.00  0.00    +0.110 C 
ATOM     33  C   UNL     1      -7.020  23.332  22.470  0.00  0.00    +0.143 C 
ATOM     34  C   UNL     1      -7.781  23.088  23.773  0.00  0.00    +0.133 C 
BRANCH  34  35
ATOM     35  N   UNL     1      -8.047  21.652  23.954  0.00  0.00    -0.308 N 
ATOM     36  H   UNL     1      -7.254  21.028  24.003  0.00  0.00    +0.149 HD
ATOM     37  C   UNL     1      -9.268  21.120  24.056  0.00  0.00    +0.210 C 
ATOM     38  C   UNL     1     -10.456  22.094  23.950  0.00  0.00    +0.109 C 
ATOM     39  O   UNL     1      -9.461  19.915  24.221  0.00  0.00    -0.276 OA
ENDBRANCH  34  35
BRANCH  31  40
ATOM     40  C   UNL     1      -4.486  24.787  23.607  0.00  0.00    +0.414 C 
ATOM     41  O   UNL     1      -3.911  24.474  22.565  0.00  0.00    -0.240 OA
ATOM     42  O   UNL     1      -3.908  24.636  24.683  0.00  0.00    -0.240 OA
ENDBRANCH  31  40
BRANCH  33  43
ATOM     43  O   UNL     1      -7.827  22.915  21.368  0.00  0.00    -0.390 OA
ATOM     44  H   UNL     1      -8.315  22.124  21.609  0.00  0.00    +0.210 HD
ENDBRANCH  33  43
BRANCH  31  45
ATOM     45  O   UNL     1      -5.856  26.811  23.465  0.00  0.00    -0.343 OA
ATOM     46  C   UNL     1      -5.925  27.513  24.733  0.00  0.00    +0.198 C 
ENDBRANCH  31  45
ENDBRANCH  28  29
BRANCH  28  47
ATOM     47  O   UNL     1      -8.531  24.523  26.583  0.00  0.00    -0.387 OA
ATOM     48  H   UNL     1      -8.152  25.343  26.259  0.00  0.00    +0.210 HD
ENDBRANCH  28  47
ENDBRANCH  25  28
ENDBRANCH   1  25
TORSDOF 15
