REMARK  Name = lig_assembled_46.pdb
REMARK  17 active torsions:
REMARK  status: ('A' for Active; 'I' for Inactive)
REMARK    1  A    between atoms: _2  and  _9
REMARK    2  A    between atoms: _4  and  _19
REMARK    3  A    between atoms: _6  and  _7
REMARK    4  A    between atoms: _6  and  _19
REMARK    5  A    between atoms: _9  and  _10
REMARK    6  A    between atoms: _15  and  _35
REMARK    7  A    between atoms: _17  and  _23
REMARK    8  A    between atoms: _18  and  _22
REMARK    9  A    between atoms: _22  and  _23
REMARK   10  A    between atoms: _25  and  _26
REMARK   11  A    between atoms: _27  and  _28
REMARK   12  A    between atoms: _29  and  _31
REMARK   13  A    between atoms: _31  and  _32
REMARK   14  A    between atoms: _31  and  _33
REMARK   15  A    between atoms: _33  and  _34
REMARK   16  A    between atoms: _33  and  _35
REMARK   17  A    between atoms: _36  and  _38
REMARK                            x       y       z     vdW  Elec       q    Type
REMARK                         _______ _______ _______ _____ _____    ______ ____
ROOT
ATOM      1  C   UNL     1     -11.614  19.993  35.922  0.00  0.00    +0.163 C 
ENDROOT
BRANCH   1   2
ATOM      2  O   UNL     1     -12.499  21.071  36.270  0.00  0.00    -0.388 OA
ATOM      3  H   UNL     1     -13.368  20.718  36.477  0.00  0.00    +0.210 HD
ENDBRANCH   1   2
BRANCH   1   4
ATOM      4  C   UNL     1     -11.404  19.081  37.126  0.00  0.00    +0.141 C 
BRANCH   4   7
ATOM      5  C   UNL     1     -10.155  16.961  36.901  0.00  0.00    +0.401 C 
ATOM      6  O   UNL     1      -9.119  17.409  37.398  0.00  0.00    -0.226 OA
ATOM      7  N   UNL     1     -11.269  17.674  36.730  0.00  0.00    -0.279 N 
ATOM      8  H   UNL     1     -12.065  17.221  36.304  0.00  0.00    +0.152 HD
BRANCH   5   9
ATOM      9  O   UNL     1     -10.185  15.598  36.470  0.00  0.00    -0.444 OA
BRANCH   9  10
ATOM     10  C   UNL     1      -8.907  15.235  35.942  0.00  0.00    +0.292 C 
BRANCH  10  12
ATOM     11  N   UNL     1      -8.714  12.778  35.706  0.00  0.00    -0.131 NA
ATOM     12  C   UNL     1      -8.500  13.910  36.446  0.00  0.00    +0.120 A 
ATOM     13  C   UNL     1      -7.853  13.568  37.615  0.00  0.00    +0.137 A 
ATOM     14  N   UNL     1      -7.650  12.222  37.499  0.00  0.00    -0.247 N 
ATOM     15  N   UNL     1      -8.182  11.749  36.355  0.00  0.00    -0.065 NA
BRANCH  14  16
ATOM     16  C   UNL     1      -6.761  11.390  38.290  0.00  0.00    +0.180 C 
BRANCH  16  17
ATOM     17  C   UNL     1      -5.639  10.770  37.494  0.00  0.00    -0.026 A 
ATOM     18  C   UNL     1      -5.320   9.411  37.634  0.00  0.00    +0.005 A 
ATOM     19  C   UNL     1      -4.345   8.825  36.823  0.00  0.00    +0.000 A 
ATOM     20  C   UNL     1      -3.681   9.587  35.865  0.00  0.00    +0.000 A 
ATOM     21  C   UNL     1      -3.982  10.940  35.722  0.00  0.00    +0.000 A 
ATOM     22  C   UNL     1      -4.956  11.529  36.531  0.00  0.00    +0.005 A 
ENDBRANCH  16  17
ENDBRANCH  14  16
ENDBRANCH  10  12
ENDBRANCH   9  10
ENDBRANCH   5   9
ENDBRANCH   4   7
ENDBRANCH   1   4
BRANCH   1  23
ATOM     23  C   UNL     1     -10.255  20.531  35.442  0.00  0.00    +0.175 C 
BRANCH  23  24
ATOM     24  C   UNL     1      -9.859  19.960  34.073  0.00  0.00    +0.176 C 
ATOM     25  O   UNL     1      -8.834  18.950  34.289  0.00  0.00    -0.332 OA
ATOM     26  C   UNL     1      -8.406  18.215  33.095  0.00  0.00    +0.277 C 
ATOM     27  C   UNL     1      -7.946  19.199  31.991  0.00  0.00    +0.110 C 
ATOM     28  C   UNL     1      -8.989  20.309  31.747  0.00  0.00    +0.143 C 
ATOM     29  C   UNL     1      -9.365  21.006  33.056  0.00  0.00    +0.133 C 
BRANCH  29  30
ATOM     30  N   UNL     1     -10.423  22.002  32.824  0.00  0.00    -0.308 N 
ATOM     31  H   UNL     1     -10.228  22.962  33.070  0.00  0.00    +0.149 HD
ATOM     32  C   UNL     1     -11.623  21.720  32.309  0.00  0.00    +0.210 C 
ATOM     33  C   UNL     1     -11.898  20.243  31.968  0.00  0.00    +0.109 C 
ATOM     34  O   UNL     1     -12.484  22.578  32.112  0.00  0.00    -0.276 OA
ENDBRANCH  29  30
BRANCH  26  35
ATOM     35  C   UNL     1      -9.551  17.333  32.556  0.00  0.00    +0.414 C 
ATOM     36  O   UNL     1     -10.474  16.994  33.296  0.00  0.00    -0.240 OA
ATOM     37  O   UNL     1      -9.551  16.960  31.382  0.00  0.00    -0.240 OA
ENDBRANCH  26  35
BRANCH  26  38
ATOM     38  O   UNL     1      -7.277  17.381  33.463  0.00  0.00    -0.343 OA
ATOM     39  C   UNL     1      -6.386  17.957  34.451  0.00  0.00    +0.198 C 
ENDBRANCH  26  38
BRANCH  28  40
ATOM     40  O   UNL     1      -8.462  21.274  30.836  0.00  0.00    -0.390 OA
ATOM     41  H   UNL     1      -8.942  22.100  30.930  0.00  0.00    +0.210 HD
ENDBRANCH  28  40
ENDBRANCH  23  24
BRANCH  23  42
ATOM     42  O   UNL     1      -9.233  20.241  36.416  0.00  0.00    -0.387 OA
ATOM     43  H   UNL     1      -8.896  19.354  36.272  0.00  0.00    +0.210 HD
ENDBRANCH  23  42
ENDBRANCH   1  23
TORSDOF 15
