REMARK  Name = lig_assembled_30.pdb
REMARK  27 active torsions:
REMARK  status: ('A' for Active; 'I' for Inactive)
REMARK    1  A    between atoms: _2  and  _9
REMARK    2  A    between atoms: _4  and  _25
REMARK    3  A    between atoms: _5  and  _18
REMARK    4  A    between atoms: _5  and  _19
REMARK    5  A    between atoms: _6  and  _7
REMARK    6  A    between atoms: _6  and  _25
REMARK    7  A    between atoms: _9  and  _10
REMARK    8  A    between atoms: _10  and  _11
REMARK    9  A    between atoms: _11  and  _12
REMARK   10  A    between atoms: _12  and  _13
REMARK   11  A    between atoms: _13  and  _14
REMARK   12  A    between atoms: _14  and  _15
REMARK   13  A    between atoms: _15  and  _16
REMARK   14  A    between atoms: _16  and  _17
REMARK   15  A    between atoms: _17  and  _18
REMARK   16  A    between atoms: _21  and  _41
REMARK   17  A    between atoms: _23  and  _29
REMARK   18  A    between atoms: _24  and  _28
REMARK   19  A    between atoms: _28  and  _29
REMARK   20  A    between atoms: _31  and  _32
REMARK   21  A    between atoms: _33  and  _34
REMARK   22  A    between atoms: _35  and  _37
REMARK   23  A    between atoms: _37  and  _38
REMARK   24  A    between atoms: _37  and  _39
REMARK   25  A    between atoms: _39  and  _40
REMARK   26  A    between atoms: _39  and  _41
REMARK   27  A    between atoms: _42  and  _44
REMARK                            x       y       z     vdW  Elec       q    Type
REMARK                         _______ _______ _______ _____ _____    ______ ____
ROOT
ATOM      1  C   UNL     1      -4.368   9.636  22.674  0.00  0.00    +0.401 C 
ATOM      2  O   UNL     1      -4.961   9.374  23.722  0.00  0.00    -0.226 OA
ATOM      3  N   UNL     1      -3.825   8.717  21.874  0.00  0.00    -0.279 N 
ATOM      4  H   UNL     1      -3.367   9.030  21.030  0.00  0.00    +0.152 HD
ENDROOT
BRANCH   1   5
ATOM      5  O   UNL     1      -4.245  11.002  22.267  0.00  0.00    -0.444 OA
BRANCH   5   6
ATOM      6  C   UNL     1      -5.175  11.804  23.001  0.00  0.00    +0.292 C 
BRANCH   6   8
ATOM      7  N   UNL     1      -7.405  11.539  24.043  0.00  0.00    -0.131 NA
ATOM      8  C   UNL     1      -6.448  11.080  23.176  0.00  0.00    +0.120 A 
ATOM      9  C   UNL     1      -6.897   9.923  22.580  0.00  0.00    +0.137 A 
ATOM     10  N   UNL     1      -8.129   9.732  23.128  0.00  0.00    -0.251 N 
ATOM     11  N   UNL     1      -8.433  10.701  24.006  0.00  0.00    -0.065 NA
BRANCH  10  12
ATOM     12  C   UNL     1      -9.045   8.637  22.895  0.00  0.00    +0.145 C 
BRANCH  12  13
ATOM     13  C   UNL     1     -10.246   8.714  23.831  0.00  0.00    +0.023 C 
BRANCH  13  14
ATOM     14  C   UNL     1     -10.965   7.372  23.951  0.00  0.00    +0.002 C 
BRANCH  14  15
ATOM     15  C   UNL     1     -12.094   7.468  24.975  0.00  0.00    +0.000 C 
BRANCH  15  16
ATOM     16  C   UNL     1     -12.406   6.113  25.605  0.00  0.00    +0.000 C 
BRANCH  16  17
ATOM     17  C   UNL     1     -13.287   6.281  26.844  0.00  0.00    +0.000 C 
BRANCH  17  18
ATOM     18  C   UNL     1     -13.100   5.112  27.808  0.00  0.00    +0.000 C 
BRANCH  18  19
ATOM     19  C   UNL     1     -13.666   5.427  29.192  0.00  0.00    +0.001 C 
BRANCH  19  20
ATOM     20  C   UNL     1     -13.057   4.498  30.242  0.00  0.00    +0.011 C 
BRANCH  20  21
ATOM     21  C   UNL     1     -13.396   4.943  31.662  0.00  0.00    +0.120 C 
BRANCH  21  22
ATOM     22  C   UNL     1     -12.595   4.175  32.688  0.00  0.00    +0.305 C 
ATOM     23  O   UNL     1     -11.803   3.278  32.443  0.00  0.00    -0.251 OA
BRANCH  22  24
ATOM     24  O   UNL     1     -12.844   4.589  33.951  0.00  0.00    -0.481 OA
ATOM     25  H   UNL     1     -13.498   5.312  34.005  0.00  0.00    +0.295 HD
ENDBRANCH  22  24
ENDBRANCH  21  22
ENDBRANCH  20  21
ENDBRANCH  19  20
ENDBRANCH  18  19
ENDBRANCH  17  18
ENDBRANCH  16  17
ENDBRANCH  15  16
ENDBRANCH  14  15
ENDBRANCH  13  14
ENDBRANCH  12  13
ENDBRANCH  10  12
ENDBRANCH   6   8
ENDBRANCH   5   6
ENDBRANCH   1   5
BRANCH   3  26
ATOM     26  C   UNL     1      -3.855   7.276  22.153  0.00  0.00    +0.141 C 
BRANCH  26  27
ATOM     27  C   UNL     1      -3.828   6.449  20.872  0.00  0.00    +0.163 C 
BRANCH  27  28
ATOM     28  O   UNL     1      -4.383   7.207  19.785  0.00  0.00    -0.388 OA
ATOM     29  H   UNL     1      -5.312   7.379  19.956  0.00  0.00    +0.210 HD
ENDBRANCH  27  28
BRANCH  27  30
ATOM     30  C   UNL     1      -2.381   6.026  20.564  0.00  0.00    +0.175 C 
BRANCH  30  31
ATOM     31  C   UNL     1      -1.748   6.889  19.463  0.00  0.00    +0.176 C 
ATOM     32  O   UNL     1      -1.565   6.051  18.288  0.00  0.00    -0.332 OA
ATOM     33  C   UNL     1      -1.066   6.736  17.092  0.00  0.00    +0.277 C 
ATOM     34  C   UNL     1       0.250   7.488  17.409  0.00  0.00    +0.110 C 
ATOM     35  C   UNL     1       0.114   8.368  18.669  0.00  0.00    +0.143 C 
ATOM     36  C   UNL     1      -0.416   7.555  19.851  0.00  0.00    +0.133 C 
BRANCH  36  37
ATOM     37  N   UNL     1      -0.623   8.423  21.022  0.00  0.00    -0.308 N 
ATOM     38  H   UNL     1      -1.413   8.226  21.621  0.00  0.00    +0.149 HD
ATOM     39  C   UNL     1       0.163   9.454  21.343  0.00  0.00    +0.210 C 
ATOM     40  C   UNL     1       1.342   9.744  20.396  0.00  0.00    +0.109 C 
ATOM     41  O   UNL     1      -0.027  10.154  22.338  0.00  0.00    -0.276 OA
ENDBRANCH  36  37
BRANCH  33  42
ATOM     42  C   UNL     1      -2.113   7.734  16.556  0.00  0.00    +0.414 C 
ATOM     43  O   UNL     1      -1.879   8.942  16.563  0.00  0.00    -0.240 OA
ATOM     44  O   UNL     1      -3.191   7.332  16.117  0.00  0.00    -0.240 OA
ENDBRANCH  33  42
BRANCH  35  45
ATOM     45  O   UNL     1       1.386   8.921  19.011  0.00  0.00    -0.390 OA
ATOM     46  H   UNL     1       1.384   9.184  19.934  0.00  0.00    +0.210 HD
ENDBRANCH  35  45
BRANCH  33  47
ATOM     47  O   UNL     1      -0.787   5.732  16.083  0.00  0.00    -0.343 OA
ATOM     48  C   UNL     1      -1.497   4.479  16.254  0.00  0.00    +0.198 C 
ENDBRANCH  33  47
ENDBRANCH  30  31
BRANCH  30  49
ATOM     49  O   UNL     1      -2.339   4.634  20.191  0.00  0.00    -0.387 OA
ATOM     50  H   UNL     1      -2.529   4.548  19.253  0.00  0.00    +0.210 HD
ENDBRANCH  30  49
ENDBRANCH  27  30
ENDBRANCH  26  27
ENDBRANCH   3  26
TORSDOF 25
