REMARK  Name = lig_assembled_6.pdb
REMARK  17 active torsions:
REMARK  status: ('A' for Active; 'I' for Inactive)
REMARK    1  A    between atoms: _2  and  _10
REMARK    2  A    between atoms: _3  and  _13
REMARK    3  A    between atoms: _5  and  _21
REMARK    4  A    between atoms: _7  and  _8
REMARK    5  A    between atoms: _7  and  _21
REMARK    6  A    between atoms: _17  and  _37
REMARK    7  A    between atoms: _19  and  _25
REMARK    8  A    between atoms: _20  and  _24
REMARK    9  A    between atoms: _24  and  _25
REMARK   10  A    between atoms: _27  and  _28
REMARK   11  A    between atoms: _29  and  _30
REMARK   12  A    between atoms: _31  and  _33
REMARK   13  A    between atoms: _33  and  _34
REMARK   14  A    between atoms: _33  and  _35
REMARK   15  A    between atoms: _35  and  _36
REMARK   16  A    between atoms: _35  and  _37
REMARK   17  A    between atoms: _38  and  _40
REMARK                            x       y       z     vdW  Elec       q    Type
REMARK                         _______ _______ _______ _____ _____    ______ ____
ROOT
ATOM      1  C   UNL     1     -11.748  12.026  33.921  0.00  0.00    +0.163 C 
ENDROOT
BRANCH   1   2
ATOM      2  O   UNL     1     -11.475  11.395  35.183  0.00  0.00    -0.388 OA
ATOM      3  H   UNL     1     -10.632  10.936  35.136  0.00  0.00    +0.210 HD
ENDBRANCH   1   2
BRANCH   1   4
ATOM      4  C   UNL     1     -10.712  13.111  33.645  0.00  0.00    +0.141 C 
BRANCH   4   7
ATOM      5  C   UNL     1     -10.230  13.151  31.222  0.00  0.00    +0.401 C 
ATOM      6  O   UNL     1     -11.262  13.759  30.931  0.00  0.00    -0.226 OA
ATOM      7  N   UNL     1      -9.896  12.801  32.465  0.00  0.00    -0.279 N 
ATOM      8  H   UNL     1      -9.032  12.295  32.602  0.00  0.00    +0.152 HD
BRANCH   5   9
ATOM      9  O   UNL     1      -9.323  12.784  30.179  0.00  0.00    -0.444 OA
BRANCH   9  10
ATOM     10  C   UNL     1      -9.325  13.793  29.167  0.00  0.00    +0.292 C 
BRANCH  10  12
ATOM     11  N   UNL     1      -8.286  13.965  26.926  0.00  0.00    -0.131 NA
ATOM     12  C   UNL     1      -8.933  13.217  27.867  0.00  0.00    +0.121 A 
ATOM     13  C   UNL     1      -9.105  11.940  27.384  0.00  0.00    +0.143 A 
ATOM     14  N   UNL     1      -8.513  11.947  26.142  0.00  0.00    -0.220 N 
ATOM     15  N   UNL     1      -8.042  13.189  25.879  0.00  0.00    -0.060 NA
BRANCH  14  16
ATOM     16  C   UNL     1      -8.339  10.867  25.235  0.00  0.00    +0.067 A 
ATOM     17  C   UNL     1      -8.584   9.546  25.641  0.00  0.00    +0.034 A 
ATOM     18  C   UNL     1      -8.350   8.486  24.758  0.00  0.00    +0.086 A 
ATOM     19  C   UNL     1      -7.873   8.747  23.467  0.00  0.00    +0.273 A 
ATOM     20  C   UNL     1      -7.651  10.063  23.045  0.00  0.00    +0.086 A 
ATOM     21  C   UNL     1      -7.886  11.121  23.930  0.00  0.00    +0.034 A 
BRANCH  19  22
ATOM     22  N   UNL     1      -7.588   7.628  22.560  0.00  0.00    +0.080 N 
ATOM     23  O   UNL     1      -8.044   6.515  22.860  0.00  0.00    +0.041 OA
ATOM     24  O   UNL     1      -6.903   7.860  21.555  0.00  0.00    -0.576 OA
ENDBRANCH  19  22
ENDBRANCH  14  16
ENDBRANCH  10  12
ENDBRANCH   9  10
ENDBRANCH   5   9
ENDBRANCH   4   7
ENDBRANCH   1   4
BRANCH   1  25
ATOM     25  C   UNL     1     -13.156  12.645  33.909  0.00  0.00    +0.175 C 
BRANCH  25  26
ATOM     26  C   UNL     1     -14.119  11.908  34.852  0.00  0.00    +0.176 C 
ATOM     27  O   UNL     1     -14.121  10.503  34.480  0.00  0.00    -0.332 OA
ATOM     28  C   UNL     1     -14.909   9.620  35.345  0.00  0.00    +0.277 C 
ATOM     29  C   UNL     1     -16.366  10.133  35.459  0.00  0.00    +0.110 C 
ATOM     30  C   UNL     1     -16.414  11.632  35.822  0.00  0.00    +0.143 C 
ATOM     31  C   UNL     1     -15.558  12.457  34.860  0.00  0.00    +0.133 C 
BRANCH  31  32
ATOM     32  N   UNL     1     -15.542  13.871  35.268  0.00  0.00    -0.308 N 
ATOM     33  H   UNL     1     -15.155  14.097  36.173  0.00  0.00    +0.149 HD
ATOM     34  C   UNL     1     -16.006  14.875  34.519  0.00  0.00    +0.210 C 
ATOM     35  C   UNL     1     -16.613  14.495  33.155  0.00  0.00    +0.109 C 
ATOM     36  O   UNL     1     -15.967  16.052  34.880  0.00  0.00    -0.276 OA
ENDBRANCH  31  32
BRANCH  28  37
ATOM     37  C   UNL     1     -14.283   9.530  36.752  0.00  0.00    +0.414 C 
ATOM     38  O   UNL     1     -13.060   9.532  36.887  0.00  0.00    -0.240 OA
ATOM     39  O   UNL     1     -14.999   9.455  37.751  0.00  0.00    -0.240 OA
ENDBRANCH  28  37
BRANCH  30  40
ATOM     40  O   UNL     1     -17.763  12.097  35.768  0.00  0.00    -0.390 OA
ATOM     41  H   UNL     1     -17.769  13.052  35.667  0.00  0.00    +0.210 HD
ENDBRANCH  30  40
BRANCH  28  42
ATOM     42  O   UNL     1     -14.935   8.302  34.737  0.00  0.00    -0.343 OA
ATOM     43  C   UNL     1     -13.959   8.094  33.686  0.00  0.00    +0.198 C 
ENDBRANCH  28  42
ENDBRANCH  25  26
BRANCH  25  44
ATOM     44  O   UNL     1     -13.683  12.652  32.567  0.00  0.00    -0.387 OA
ATOM     45  H   UNL     1     -14.090  11.803  32.378  0.00  0.00    +0.210 HD
ENDBRANCH  25  44
ENDBRANCH   1  25
TORSDOF 15
