REMARK  Name = lig_assembled_60.pdb
REMARK  18 active torsions:
REMARK  status: ('A' for Active; 'I' for Inactive)
REMARK    1  A    between atoms: _2  and  _10
REMARK    2  A    between atoms: _3  and  _41
REMARK    3  A    between atoms: _5  and  _21
REMARK    4  A    between atoms: _7  and  _8
REMARK    5  A    between atoms: _7  and  _21
REMARK    6  A    between atoms: _13  and  _41
REMARK    7  A    between atoms: _17  and  _37
REMARK    8  A    between atoms: _19  and  _25
REMARK    9  A    between atoms: _20  and  _24
REMARK   10  A    between atoms: _24  and  _25
REMARK   11  A    between atoms: _27  and  _28
REMARK   12  A    between atoms: _29  and  _30
REMARK   13  A    between atoms: _31  and  _33
REMARK   14  A    between atoms: _33  and  _34
REMARK   15  A    between atoms: _33  and  _35
REMARK   16  A    between atoms: _35  and  _36
REMARK   17  A    between atoms: _35  and  _37
REMARK   18  A    between atoms: _38  and  _40
REMARK                            x       y       z     vdW  Elec       q    Type
REMARK                         _______ _______ _______ _____ _____    ______ ____
ROOT
ATOM      1  C   UNL     1     -15.906  22.879  42.236  0.00  0.00    +0.141 C 
ENDROOT
BRANCH   1   4
ATOM      2  C   UNL     1     -15.957  20.631  41.212  0.00  0.00    +0.401 C 
ATOM      3  O   UNL     1     -16.982  20.847  40.562  0.00  0.00    -0.226 OA
ATOM      4  N   UNL     1     -15.387  21.522  42.025  0.00  0.00    -0.279 N 
ATOM      5  H   UNL     1     -14.552  21.248  42.523  0.00  0.00    +0.152 HD
BRANCH   2   6
ATOM      6  O   UNL     1     -15.325  19.352  41.107  0.00  0.00    -0.444 OA
BRANCH   6   7
ATOM      7  C   UNL     1     -14.596  19.279  39.879  0.00  0.00    +0.292 C 
BRANCH   7   9
ATOM      8  N   UNL     1     -12.662  19.840  41.319  0.00  0.00    -0.131 NA
ATOM      9  C   UNL     1     -13.213  19.753  40.074  0.00  0.00    +0.121 A 
ATOM     10  C   UNL     1     -12.282  20.151  39.142  0.00  0.00    +0.143 A 
ATOM     11  N   UNL     1     -11.151  20.442  39.871  0.00  0.00    -0.220 N 
ATOM     12  N   UNL     1     -11.413  20.267  41.189  0.00  0.00    -0.060 NA
BRANCH  11  13
ATOM     13  C   UNL     1      -9.867  20.820  39.399  0.00  0.00    +0.067 A 
ATOM     14  C   UNL     1      -9.599  20.872  38.022  0.00  0.00    +0.030 A 
ATOM     15  C   UNL     1      -8.313  21.178  37.571  0.00  0.00    +0.030 A 
ATOM     16  C   UNL     1      -7.299  21.447  38.493  0.00  0.00    +0.105 A 
ATOM     17  C   UNL     1      -7.559  21.414  39.866  0.00  0.00    +0.030 A 
ATOM     18  C   UNL     1      -8.845  21.108  40.318  0.00  0.00    +0.030 A 
BRANCH  16  19
ATOM     19  S   UNL     1      -5.658  21.755  37.910  0.00  0.00    +0.056 S 
ATOM     20  O   UNL     1      -5.695  22.798  36.912  0.00  0.00    -0.153 OA
ATOM     21  O   UNL     1      -4.755  21.789  39.037  0.00  0.00    -0.153 OA
BRANCH  19  22
ATOM     22  N   UNL     1      -5.317  20.335  37.085  0.00  0.00    -0.204 NA
ATOM     23  H   UNL     1      -4.532  19.858  37.528  0.00  0.00    +0.144 HD
ATOM     24  H   UNL     1      -5.172  20.537  36.095  0.00  0.00    +0.144 HD
ENDBRANCH  19  22
ENDBRANCH  16  19
ENDBRANCH  11  13
ENDBRANCH   7   9
ENDBRANCH   6   7
ENDBRANCH   2   6
ENDBRANCH   1   4
BRANCH   1  25
ATOM     25  C   UNL     1     -15.153  23.609  43.343  0.00  0.00    +0.163 C 
BRANCH  25  26
ATOM     26  O   UNL     1     -13.948  24.190  42.818  0.00  0.00    -0.388 OA
ATOM     27  H   UNL     1     -13.357  23.492  42.525  0.00  0.00    +0.210 HD
ENDBRANCH  25  26
BRANCH  25  28
ATOM     28  C   UNL     1     -16.061  24.689  43.957  0.00  0.00    +0.175 C 
BRANCH  28  29
ATOM     29  C   UNL     1     -17.441  24.133  44.340  0.00  0.00    +0.176 C 
ATOM     30  O   UNL     1     -18.445  24.882  43.602  0.00  0.00    -0.332 OA
ATOM     31  C   UNL     1     -19.827  24.418  43.762  0.00  0.00    +0.277 C 
ATOM     32  C   UNL     1     -20.210  24.366  45.261  0.00  0.00    +0.110 C 
ATOM     33  C   UNL     1     -19.154  23.606  46.093  0.00  0.00    +0.143 C 
ATOM     34  C   UNL     1     -17.754  24.169  45.847  0.00  0.00    +0.133 C 
BRANCH  34  35
ATOM     35  N   UNL     1     -16.747  23.382  46.577  0.00  0.00    -0.308 N 
ATOM     36  H   UNL     1     -16.666  22.399  46.356  0.00  0.00    +0.149 HD
ATOM     37  C   UNL     1     -15.935  23.881  47.512  0.00  0.00    +0.210 C 
ATOM     38  C   UNL     1     -16.101  25.376  47.845  0.00  0.00    +0.109 C 
ATOM     39  O   UNL     1     -15.091  23.201  48.097  0.00  0.00    -0.276 OA
ENDBRANCH  34  35
BRANCH  31  40
ATOM     40  C   UNL     1     -20.010  23.021  43.134  0.00  0.00    +0.414 C 
ATOM     41  O   UNL     1     -20.804  22.219  43.626  0.00  0.00    -0.240 OA
ATOM     42  O   UNL     1     -19.366  22.695  42.136  0.00  0.00    -0.240 OA
ENDBRANCH  31  40
BRANCH  33  43
ATOM     43  O   UNL     1     -19.468  23.713  47.482  0.00  0.00    -0.390 OA
ATOM     44  H   UNL     1     -18.680  23.540  48.002  0.00  0.00    +0.210 HD
ENDBRANCH  33  43
BRANCH  31  45
ATOM     45  O   UNL     1     -20.699  25.369  43.100  0.00  0.00    -0.343 OA
ATOM     46  C   UNL     1     -20.200  26.730  43.055  0.00  0.00    +0.198 C 
ENDBRANCH  31  45
ENDBRANCH  28  29
BRANCH  28  47
ATOM     47  O   UNL     1     -16.207  25.794  43.043  0.00  0.00    -0.387 OA
ATOM     48  H   UNL     1     -16.911  25.602  42.419  0.00  0.00    +0.210 HD
ENDBRANCH  28  47
ENDBRANCH  25  28
ENDBRANCH   1  25
TORSDOF 16
