REMARK  Name = lig_assembled_28.pdb
REMARK  17 active torsions:
REMARK  status: ('A' for Active; 'I' for Inactive)
REMARK    1  A    between atoms: _2  and  _9
REMARK    2  A    between atoms: _4  and  _22
REMARK    3  A    between atoms: _6  and  _7
REMARK    4  A    between atoms: _6  and  _22
REMARK    5  A    between atoms: _9  and  _10
REMARK    6  A    between atoms: _18  and  _38
REMARK    7  A    between atoms: _20  and  _26
REMARK    8  A    between atoms: _21  and  _25
REMARK    9  A    between atoms: _25  and  _26
REMARK   10  A    between atoms: _28  and  _29
REMARK   11  A    between atoms: _30  and  _31
REMARK   12  A    between atoms: _32  and  _34
REMARK   13  A    between atoms: _34  and  _35
REMARK   14  A    between atoms: _34  and  _36
REMARK   15  A    between atoms: _36  and  _37
REMARK   16  A    between atoms: _36  and  _38
REMARK   17  A    between atoms: _39  and  _41
REMARK                            x       y       z     vdW  Elec       q    Type
REMARK                         _______ _______ _______ _____ _____    ______ ____
ROOT
ATOM      1  C   UNL     1     -14.937  16.857  32.657  0.00  0.00    +0.163 C 
ENDROOT
BRANCH   1   2
ATOM      2  O   UNL     1     -16.260  17.189  33.109  0.00  0.00    -0.388 OA
ATOM      3  H   UNL     1     -16.206  17.643  33.953  0.00  0.00    +0.210 HD
ENDBRANCH   1   2
BRANCH   1   4
ATOM      4  C   UNL     1     -14.145  18.130  32.381  0.00  0.00    +0.141 C 
BRANCH   4   7
ATOM      5  C   UNL     1     -12.048  19.155  33.192  0.00  0.00    +0.401 C 
ATOM      6  O   UNL     1     -11.848  19.793  32.156  0.00  0.00    -0.226 OA
ATOM      7  N   UNL     1     -13.093  18.348  33.381  0.00  0.00    -0.279 N 
ATOM      8  H   UNL     1     -13.165  17.860  34.263  0.00  0.00    +0.152 HD
BRANCH   5   9
ATOM      9  O   UNL     1     -11.114  19.268  34.269  0.00  0.00    -0.444 OA
BRANCH   9  10
ATOM     10  C   UNL     1     -11.060  18.033  34.987  0.00  0.00    +0.292 C 
BRANCH  10  12
ATOM     11  N   UNL     1      -8.835  18.071  36.080  0.00  0.00    -0.131 NA
ATOM     12  C   UNL     1      -9.664  17.572  35.112  0.00  0.00    +0.120 A 
ATOM     13  C   UNL     1      -8.986  16.620  34.385  0.00  0.00    +0.137 A 
ATOM     14  N   UNL     1      -7.780  16.514  35.020  0.00  0.00    -0.247 N 
ATOM     15  N   UNL     1      -7.679  17.424  36.007  0.00  0.00    -0.065 NA
BRANCH  14  16
ATOM     16  C   UNL     1      -6.704  15.547  34.844  0.00  0.00    +0.180 C 
BRANCH  16  17
ATOM     17  C   UNL     1      -5.358  16.179  34.580  0.00  0.00    -0.022 A 
ATOM     18  C   UNL     1      -4.303  16.003  35.494  0.00  0.00    +0.055 A 
ATOM     19  C   UNL     1      -3.063  16.500  35.154  0.00  0.00    +0.167 A 
ATOM     20  O   UNL     1      -1.928  16.370  35.894  0.00  0.00    -0.453 OA
ATOM     21  C   UNL     1      -0.958  16.955  35.000  0.00  0.00    +0.466 C 
ATOM     22  O   UNL     1      -1.549  17.552  33.826  0.00  0.00    -0.453 OA
ATOM     23  C   UNL     1      -2.847  17.175  33.979  0.00  0.00    +0.166 A 
ATOM     24  C   UNL     1      -3.863  17.398  33.074  0.00  0.00    +0.050 A 
ATOM     25  C   UNL     1      -5.129  16.887  33.378  0.00  0.00    +0.009 A 
ENDBRANCH  16  17
ENDBRANCH  14  16
ENDBRANCH  10  12
ENDBRANCH   9  10
ENDBRANCH   5   9
ENDBRANCH   4   7
ENDBRANCH   1   4
BRANCH   1  26
ATOM     26  C   UNL     1     -14.991  15.998  31.382  0.00  0.00    +0.175 C 
BRANCH  26  27
ATOM     27  C   UNL     1     -14.563  14.547  31.644  0.00  0.00    +0.176 C 
ATOM     28  O   UNL     1     -13.596  14.555  32.730  0.00  0.00    -0.332 OA
ATOM     29  C   UNL     1     -13.151  13.237  33.192  0.00  0.00    +0.277 C 
ATOM     30  C   UNL     1     -12.599  12.406  32.008  0.00  0.00    +0.110 C 
ATOM     31  C   UNL     1     -13.579  12.395  30.815  0.00  0.00    +0.143 C 
ATOM     32  C   UNL     1     -13.979  13.817  30.420  0.00  0.00    +0.133 C 
BRANCH  32  33
ATOM     33  N   UNL     1     -14.978  13.789  29.340  0.00  0.00    -0.308 N 
ATOM     34  H   UNL     1     -14.744  14.245  28.470  0.00  0.00    +0.149 HD
ATOM     35  C   UNL     1     -16.174  13.202  29.437  0.00  0.00    +0.210 C 
ATOM     36  C   UNL     1     -16.510  12.539  30.786  0.00  0.00    +0.109 C 
ATOM     37  O   UNL     1     -16.986  13.182  28.511  0.00  0.00    -0.276 OA
ENDBRANCH  32  33
BRANCH  29  38
ATOM     38  C   UNL     1     -14.311  12.472  33.863  0.00  0.00    +0.414 C 
ATOM     39  O   UNL     1     -15.173  13.081  34.495  0.00  0.00    -0.240 OA
ATOM     40  O   UNL     1     -14.385  11.246  33.772  0.00  0.00    -0.240 OA
ENDBRANCH  29  38
BRANCH  29  41
ATOM     41  O   UNL     1     -12.079  13.436  34.150  0.00  0.00    -0.343 OA
ATOM     42  C   UNL     1     -10.741  13.275  33.614  0.00  0.00    +0.198 C 
ENDBRANCH  29  41
BRANCH  31  43
ATOM     43  O   UNL     1     -12.969  11.749  29.697  0.00  0.00    -0.390 OA
ATOM     44  H   UNL     1     -13.414  12.017  28.890  0.00  0.00    +0.210 HD
ENDBRANCH  31  43
ENDBRANCH  26  27
BRANCH  26  45
ATOM     45  O   UNL     1     -14.165  16.582  30.354  0.00  0.00    -0.387 OA
ATOM     46  H   UNL     1     -13.257  16.294  30.471  0.00  0.00    +0.210 HD
ENDBRANCH  26  45
ENDBRANCH   1  26
TORSDOF 15
