REMARK  Name = lig_assembled_31.pdb
REMARK  20 active torsions:
REMARK  status: ('A' for Active; 'I' for Inactive)
REMARK    1  A    between atoms: _2  and  _11
REMARK    2  A    between atoms: _3  and  _12
REMARK    3  A    between atoms: _4  and  _14
REMARK    4  A    between atoms: _6  and  _24
REMARK    5  A    between atoms: _8  and  _9
REMARK    6  A    between atoms: _8  and  _24
REMARK    7  A    between atoms: _11  and  _12
REMARK    8  A    between atoms: _14  and  _15
REMARK    9  A    between atoms: _20  and  _40
REMARK   10  A    between atoms: _22  and  _28
REMARK   11  A    between atoms: _23  and  _27
REMARK   12  A    between atoms: _27  and  _28
REMARK   13  A    between atoms: _30  and  _31
REMARK   14  A    between atoms: _32  and  _33
REMARK   15  A    between atoms: _34  and  _36
REMARK   16  A    between atoms: _36  and  _37
REMARK   17  A    between atoms: _36  and  _38
REMARK   18  A    between atoms: _38  and  _39
REMARK   19  A    between atoms: _38  and  _40
REMARK   20  A    between atoms: _41  and  _43
REMARK                            x       y       z     vdW  Elec       q    Type
REMARK                         _______ _______ _______ _____ _____    ______ ____
ROOT
ATOM      1  C   UNL     1     -12.854  -0.677  20.389  0.00  0.00    +0.401 C 
ATOM      2  O   UNL     1     -14.058  -0.934  20.464  0.00  0.00    -0.226 OA
ATOM      3  N   UNL     1     -12.172  -0.022  21.330  0.00  0.00    -0.279 N 
ATOM      4  H   UNL     1     -11.185   0.133  21.183  0.00  0.00    +0.152 HD
ENDROOT
BRANCH   1   5
ATOM      5  O   UNL     1     -12.123  -1.100  19.236  0.00  0.00    -0.444 OA
BRANCH   5   6
ATOM      6  C   UNL     1     -12.329  -0.167  18.171  0.00  0.00    +0.292 C 
BRANCH   6   8
ATOM      7  N   UNL     1     -11.877   2.173  18.841  0.00  0.00    -0.131 NA
ATOM      8  C   UNL     1     -11.425   0.991  18.319  0.00  0.00    +0.120 A 
ATOM      9  C   UNL     1     -10.091   1.121  18.003  0.00  0.00    +0.137 A 
ATOM     10  N   UNL     1      -9.797   2.406  18.348  0.00  0.00    -0.250 N 
ATOM     11  N   UNL     1     -10.869   3.035  18.856  0.00  0.00    -0.065 NA
BRANCH  10  12
ATOM     12  C   UNL     1      -8.532   3.100  18.219  0.00  0.00    +0.164 C 
BRANCH  12  13
ATOM     13  C   UNL     1      -7.543   2.300  17.386  0.00  0.00    +0.129 C 
BRANCH  13  14
ATOM     14  N   UNL     1      -6.440   3.079  16.836  0.00  0.00    -0.298 N 
ATOM     15  H   UNL     1      -5.871   3.661  17.434  0.00  0.00    +0.150 HD
ATOM     16  C   UNL     1      -6.445   3.354  15.494  0.00  0.00    +0.300 C 
ATOM     17  O   UNL     1      -7.282   2.891  14.724  0.00  0.00    -0.253 OA
ATOM     18  N   UNL     1      -5.430   4.161  15.082  0.00  0.00    -0.292 N 
ATOM     19  H   UNL     1      -4.767   4.576  15.722  0.00  0.00    +0.151 HD
BRANCH  18  20
ATOM     20  C   UNL     1      -5.344   4.505  13.682  0.00  0.00    +0.180 C 
BRANCH  20  21
ATOM     21  C   UNL     1      -4.217   5.418  13.368  0.00  0.00    +0.122 A 
ATOM     22  O   UNL     1      -3.754   6.261  14.340  0.00  0.00    -0.466 OA
ATOM     23  C   UNL     1      -2.733   6.973  13.788  0.00  0.00    +0.195 A 
ATOM     24  C   UNL     1      -2.534   6.605  12.478  0.00  0.00    +0.041 A 
ATOM     25  C   UNL     1      -3.492   5.601  12.204  0.00  0.00    +0.046 A 
ENDBRANCH  20  21
ENDBRANCH  18  20
ENDBRANCH  13  14
ENDBRANCH  12  13
ENDBRANCH  10  12
ENDBRANCH   6   8
ENDBRANCH   5   6
ENDBRANCH   1   5
BRANCH   3  26
ATOM     26  C   UNL     1     -12.776   0.486  22.568  0.00  0.00    +0.141 C 
BRANCH  26  27
ATOM     27  C   UNL     1     -12.951   2.001  22.535  0.00  0.00    +0.163 C 
BRANCH  27  28
ATOM     28  O   UNL     1     -11.838   2.610  21.860  0.00  0.00    -0.388 OA
ATOM     29  H   UNL     1     -11.035   2.457  22.364  0.00  0.00    +0.210 HD
ENDBRANCH  27  28
BRANCH  27  30
ATOM     30  C   UNL     1     -14.276   2.350  21.837  0.00  0.00    +0.175 C 
BRANCH  30  31
ATOM     31  C   UNL     1     -14.377   3.846  21.503  0.00  0.00    +0.176 C 
ATOM     32  O   UNL     1     -13.733   4.587  22.575  0.00  0.00    -0.332 OA
ATOM     33  C   UNL     1     -13.639   6.037  22.376  0.00  0.00    +0.277 C 
ATOM     34  C   UNL     1     -15.039   6.636  22.093  0.00  0.00    +0.110 C 
ATOM     35  C   UNL     1     -15.776   5.860  20.981  0.00  0.00    +0.143 C 
ATOM     36  C   UNL     1     -15.812   4.362  21.288  0.00  0.00    +0.133 C 
BRANCH  36  37
ATOM     37  N   UNL     1     -16.439   3.624  20.181  0.00  0.00    -0.308 N 
ATOM     38  H   UNL     1     -17.260   3.071  20.387  0.00  0.00    +0.149 HD
ATOM     39  C   UNL     1     -15.996   3.637  18.921  0.00  0.00    +0.210 C 
ATOM     40  C   UNL     1     -14.729   4.468  18.644  0.00  0.00    +0.109 C 
ATOM     41  O   UNL     1     -16.551   3.020  18.011  0.00  0.00    -0.276 OA
ENDBRANCH  36  37
BRANCH  33  42
ATOM     42  C   UNL     1     -12.690   6.367  21.206  0.00  0.00    +0.414 C 
ATOM     43  O   UNL     1     -11.739   5.629  20.951  0.00  0.00    -0.240 OA
ATOM     44  O   UNL     1     -12.875   7.372  20.517  0.00  0.00    -0.240 OA
ENDBRANCH  33  42
BRANCH  35  45
ATOM     45  O   UNL     1     -17.112   6.347  20.858  0.00  0.00    -0.390 OA
ATOM     46  H   UNL     1     -17.657   5.685  20.426  0.00  0.00    +0.210 HD
ENDBRANCH  35  45
BRANCH  33  47
ATOM     47  O   UNL     1     -13.129   6.626  23.600  0.00  0.00    -0.343 OA
ATOM     48  C   UNL     1     -13.876   7.769  24.087  0.00  0.00    +0.198 C 
ENDBRANCH  33  47
ENDBRANCH  30  31
BRANCH  30  49
ATOM     49  O   UNL     1     -15.391   1.947  22.657  0.00  0.00    -0.387 OA
ATOM     50  H   UNL     1     -15.584   2.637  23.296  0.00  0.00    +0.210 HD
ENDBRANCH  30  49
ENDBRANCH  27  30
ENDBRANCH  26  27
ENDBRANCH   3  26
TORSDOF 18
