REMARK  Name = lig_assembled_44.pdb
REMARK  17 active torsions:
REMARK  status: ('A' for Active; 'I' for Inactive)
REMARK    1  A    between atoms: _2  and  _9
REMARK    2  A    between atoms: _4  and  _19
REMARK    3  A    between atoms: _6  and  _7
REMARK    4  A    between atoms: _6  and  _19
REMARK    5  A    between atoms: _9  and  _10
REMARK    6  A    between atoms: _15  and  _35
REMARK    7  A    between atoms: _17  and  _23
REMARK    8  A    between atoms: _18  and  _22
REMARK    9  A    between atoms: _22  and  _23
REMARK   10  A    between atoms: _25  and  _26
REMARK   11  A    between atoms: _27  and  _28
REMARK   12  A    between atoms: _29  and  _31
REMARK   13  A    between atoms: _31  and  _32
REMARK   14  A    between atoms: _31  and  _33
REMARK   15  A    between atoms: _33  and  _34
REMARK   16  A    between atoms: _33  and  _35
REMARK   17  A    between atoms: _36  and  _38
REMARK                            x       y       z     vdW  Elec       q    Type
REMARK                         _______ _______ _______ _____ _____    ______ ____
ROOT
ATOM      1  C   UNL     1     -10.343  12.397  33.394  0.00  0.00    +0.163 C 
ENDROOT
BRANCH   1   2
ATOM      2  O   UNL     1      -9.142  12.684  32.657  0.00  0.00    -0.388 OA
ATOM      3  H   UNL     1      -9.335  13.322  31.966  0.00  0.00    +0.210 HD
ENDBRANCH   1   2
BRANCH   1   4
ATOM      4  C   UNL     1     -10.819  13.650  34.122  0.00  0.00    +0.141 C 
BRANCH   4   7
ATOM      5  C   UNL     1     -12.940  13.999  35.342  0.00  0.00    +0.401 C 
ATOM      6  O   UNL     1     -13.292  14.953  34.646  0.00  0.00    -0.226 OA
ATOM      7  N   UNL     1     -11.796  13.334  35.172  0.00  0.00    -0.279 N 
ATOM      8  H   UNL     1     -11.590  12.570  35.800  0.00  0.00    +0.152 HD
BRANCH   5   9
ATOM      9  O   UNL     1     -13.791  13.563  36.405  0.00  0.00    -0.444 OA
BRANCH   9  10
ATOM     10  C   UNL     1     -14.204  14.692  37.180  0.00  0.00    +0.292 C 
BRANCH  10  12
ATOM     11  N   UNL     1     -13.600  15.786  39.321  0.00  0.00    -0.131 NA
ATOM     12  C   UNL     1     -13.500  14.712  38.476  0.00  0.00    +0.120 A 
ATOM     13  C   UNL     1     -12.698  13.756  39.056  0.00  0.00    +0.137 A 
ATOM     14  N   UNL     1     -12.407  14.275  40.284  0.00  0.00    -0.247 N 
ATOM     15  N   UNL     1     -12.917  15.512  40.424  0.00  0.00    -0.065 NA
BRANCH  14  16
ATOM     16  C   UNL     1     -11.660  13.659  41.364  0.00  0.00    +0.180 C 
BRANCH  16  17
ATOM     17  C   UNL     1     -12.339  12.406  41.863  0.00  0.00    -0.026 A 
ATOM     18  C   UNL     1     -11.752  11.146  41.666  0.00  0.00    +0.006 A 
ATOM     19  C   UNL     1     -12.390   9.988  42.114  0.00  0.00    +0.015 A 
ATOM     20  C   UNL     1     -13.620  10.083  42.762  0.00  0.00    +0.018 A 
ATOM     21 BR   UNL     1     -14.474   8.515  43.383  0.00  0.00    -0.050 Br
ATOM     22  C   UNL     1     -14.224  11.323  42.956  0.00  0.00    +0.015 A 
ATOM     23  C   UNL     1     -13.587  12.482  42.502  0.00  0.00    +0.006 A 
ENDBRANCH  16  17
ENDBRANCH  14  16
ENDBRANCH  10  12
ENDBRANCH   9  10
ENDBRANCH   5   9
ENDBRANCH   4   7
ENDBRANCH   1   4
BRANCH   1  24
ATOM     24  C   UNL     1     -10.107  11.269  34.412  0.00  0.00    +0.175 C 
BRANCH  24  25
ATOM     25  C   UNL     1      -9.061  10.257  33.922  0.00  0.00    +0.176 C 
ATOM     26  O   UNL     1      -7.755  10.890  34.001  0.00  0.00    -0.332 OA
ATOM     27  C   UNL     1      -6.613  10.032  33.669  0.00  0.00    +0.277 C 
ATOM     28  C   UNL     1      -6.802   9.396  32.270  0.00  0.00    +0.110 C 
ATOM     29  C   UNL     1      -8.191   8.737  32.127  0.00  0.00    +0.143 C 
ATOM     30  C   UNL     1      -9.304   9.717  32.500  0.00  0.00    +0.133 C 
BRANCH  30  31
ATOM     31  N   UNL     1     -10.615   9.052  32.444  0.00  0.00    -0.308 N 
ATOM     32  H   UNL     1     -10.821   8.355  33.146  0.00  0.00    +0.149 HD
ATOM     33  C   UNL     1     -11.551   9.310  31.526  0.00  0.00    +0.210 C 
ATOM     34  C   UNL     1     -11.197  10.358  30.455  0.00  0.00    +0.109 C 
ATOM     35  O   UNL     1     -12.647   8.748  31.512  0.00  0.00    -0.276 OA
ENDBRANCH  30  31
BRANCH  27  36
ATOM     36  C   UNL     1      -6.442   8.919  34.723  0.00  0.00    +0.414 C 
ATOM     37  O   UNL     1      -6.023   7.810  34.391  0.00  0.00    -0.240 OA
ATOM     38  O   UNL     1      -6.722   9.128  35.904  0.00  0.00    -0.240 OA
ENDBRANCH  27  36
BRANCH  27  39
ATOM     39  O   UNL     1      -5.423  10.861  33.637  0.00  0.00    -0.343 OA
ATOM     40  C   UNL     1      -5.619  12.231  34.070  0.00  0.00    +0.198 C 
ENDBRANCH  27  39
BRANCH  29  41
ATOM     41  O   UNL     1      -8.380   8.299  30.781  0.00  0.00    -0.390 OA
ATOM     42  H   UNL     1      -9.318   8.196  30.607  0.00  0.00    +0.210 HD
ENDBRANCH  29  41
ENDBRANCH  24  25
BRANCH  24  43
ATOM     43  O   UNL     1     -11.349  10.597  34.705  0.00  0.00    -0.387 OA
ATOM     44  H   UNL     1     -11.511   9.921  34.043  0.00  0.00    +0.210 HD
ENDBRANCH  24  43
ENDBRANCH   1  24
TORSDOF 15
