REMARK  Name = lig_assembled_86.pdb
REMARK  17 active torsions:
REMARK  status: ('A' for Active; 'I' for Inactive)
REMARK    1  A    between atoms: _2  and  _10
REMARK    2  A    between atoms: _3  and  _13
REMARK    3  A    between atoms: _5  and  _21
REMARK    4  A    between atoms: _7  and  _8
REMARK    5  A    between atoms: _7  and  _21
REMARK    6  A    between atoms: _17  and  _37
REMARK    7  A    between atoms: _19  and  _25
REMARK    8  A    between atoms: _20  and  _24
REMARK    9  A    between atoms: _24  and  _25
REMARK   10  A    between atoms: _27  and  _28
REMARK   11  A    between atoms: _29  and  _30
REMARK   12  A    between atoms: _31  and  _33
REMARK   13  A    between atoms: _33  and  _34
REMARK   14  A    between atoms: _33  and  _35
REMARK   15  A    between atoms: _35  and  _36
REMARK   16  A    between atoms: _35  and  _37
REMARK   17  A    between atoms: _38  and  _40
REMARK                            x       y       z     vdW  Elec       q    Type
REMARK                         _______ _______ _______ _____ _____    ______ ____
ROOT
ATOM      1  C   UNL     1     -12.556  -0.648  26.141  0.00  0.00    +0.163 C 
ENDROOT
BRANCH   1   2
ATOM      2  O   UNL     1     -11.420  -1.464  25.812  0.00  0.00    -0.388 OA
ATOM      3  H   UNL     1     -11.319  -1.504  24.858  0.00  0.00    +0.210 HD
ENDBRANCH   1   2
BRANCH   1   4
ATOM      4  C   UNL     1     -12.309   0.791  25.700  0.00  0.00    +0.141 C 
BRANCH   4   7
ATOM      5  C   UNL     1     -10.160   1.982  25.437  0.00  0.00    +0.401 C 
ATOM      6  O   UNL     1     -10.343   2.244  24.246  0.00  0.00    -0.226 OA
ATOM      7  N   UNL     1     -11.023   1.301  26.192  0.00  0.00    -0.279 N 
ATOM      8  H   UNL     1     -10.779   1.127  27.157  0.00  0.00    +0.152 HD
BRANCH   5   9
ATOM      9  O   UNL     1      -8.953   2.419  26.067  0.00  0.00    -0.444 OA
BRANCH   9  10
ATOM     10  C   UNL     1      -9.188   3.658  26.741  0.00  0.00    +0.292 C 
BRANCH  10  12
ATOM     11  N   UNL     1      -7.457   4.653  25.270  0.00  0.00    -0.131 NA
ATOM     12  C   UNL     1      -8.637   4.779  25.956  0.00  0.00    +0.120 A 
ATOM     13  C   UNL     1      -9.138   6.043  25.753  0.00  0.00    +0.137 A 
ATOM     14  N   UNL     1      -8.242   6.624  24.909  0.00  0.00    -0.248 N 
ATOM     15  N   UNL     1      -7.215   5.798  24.644  0.00  0.00    -0.065 NA
BRANCH  14  16
ATOM     16  C   UNL     1      -8.317   7.952  24.320  0.00  0.00    +0.112 C 
ATOM     17  C   UNL     1      -7.239   8.896  24.892  0.00  0.00    +0.045 C 
ATOM     18  C   UNL     1      -6.484   9.714  23.840  0.00  0.00    +0.059 C 
ATOM     19  C   UNL     1      -5.448   8.853  23.109  0.00  0.00    +0.020 C 
ATOM     20  C   UNL     1      -6.174   8.355  21.862  0.00  0.00    +0.020 C 
ATOM     21  C   UNL     1      -7.598   8.895  22.005  0.00  0.00    +0.059 C 
ATOM     22  N   UNL     1      -7.339  10.138  22.732  0.00  0.00    -0.299 NA
ATOM     23  C   UNL     1      -8.498  10.942  23.070  0.00  0.00    +0.105 C 
ATOM     24  C   UNL     1      -8.490   7.918  22.784  0.00  0.00    +0.045 C 
ENDBRANCH  14  16
ENDBRANCH  10  12
ENDBRANCH   9  10
ENDBRANCH   5   9
ENDBRANCH   4   7
ENDBRANCH   1   4
BRANCH   1  25
ATOM     25  C   UNL     1     -12.838  -0.682  27.653  0.00  0.00    +0.175 C 
BRANCH  25  26
ATOM     26  C   UNL     1     -12.095  -1.828  28.354  0.00  0.00    +0.176 C 
ATOM     27  O   UNL     1     -12.613  -3.082  27.831  0.00  0.00    -0.332 OA
ATOM     28  C   UNL     1     -11.943  -4.295  28.312  0.00  0.00    +0.277 C 
ATOM     29  C   UNL     1     -11.942  -4.334  29.860  0.00  0.00    +0.110 C 
ATOM     30  C   UNL     1     -11.429  -3.009  30.463  0.00  0.00    +0.143 C 
ATOM     31  C   UNL     1     -12.192  -1.814  29.891  0.00  0.00    +0.133 C 
BRANCH  31  32
ATOM     32  N   UNL     1     -11.637  -0.553  30.407  0.00  0.00    -0.308 N 
ATOM     33  H   UNL     1     -10.674  -0.338  30.189  0.00  0.00    +0.149 HD
ATOM     34  C   UNL     1     -12.322   0.325  31.145  0.00  0.00    +0.210 C 
ATOM     35  C   UNL     1     -13.778  -0.045  31.482  0.00  0.00    +0.109 C 
ATOM     36  O   UNL     1     -11.835   1.380  31.551  0.00  0.00    -0.276 OA
ENDBRANCH  31  32
BRANCH  28  37
ATOM     37  C   UNL     1     -10.492  -4.360  27.793  0.00  0.00    +0.414 C 
ATOM     38  O   UNL     1     -10.218  -3.954  26.664  0.00  0.00    -0.240 OA
ATOM     39  O   UNL     1      -9.595  -4.818  28.503  0.00  0.00    -0.240 OA
ENDBRANCH  28  37
BRANCH  30  40
ATOM     40  O   UNL     1     -11.587  -3.033  31.882  0.00  0.00    -0.390 OA
ATOM     41  H   UNL     1     -11.584  -2.135  32.220  0.00  0.00    +0.210 HD
ENDBRANCH  30  40
BRANCH  28  42
ATOM     42  O   UNL     1     -12.688  -5.441  27.826  0.00  0.00    -0.343 OA
ATOM     43  C   UNL     1     -14.091  -5.460  28.191  0.00  0.00    +0.198 C 
ENDBRANCH  28  42
ENDBRANCH  25  26
BRANCH  25  44
ATOM     44  O   UNL     1     -14.256  -0.789  27.891  0.00  0.00    -0.387 OA
ATOM     45  H   UNL     1     -14.518  -1.712  27.855  0.00  0.00    +0.210 HD
ENDBRANCH  25  44
ENDBRANCH   1  25
TORSDOF 14
