REMARK  Name = lig_assembled_54.pdb
REMARK  24 active torsions:
REMARK  status: ('A' for Active; 'I' for Inactive)
REMARK    1  A    between atoms: _2  and  _9
REMARK    2  A    between atoms: _4  and  _21
REMARK    3  A    between atoms: _5  and  _14
REMARK    4  A    between atoms: _6  and  _7
REMARK    5  A    between atoms: _6  and  _21
REMARK    6  A    between atoms: _9  and  _10
REMARK    7  A    between atoms: _10  and  _11
REMARK    8  A    between atoms: _11  and  _15
REMARK    9  A    between atoms: _11  and  _16
REMARK   10  A    between atoms: _12  and  _13
REMARK   11  A    between atoms: _12  and  _16
REMARK   12  A    between atoms: _14  and  _15
REMARK   13  A    between atoms: _17  and  _37
REMARK   14  A    between atoms: _19  and  _25
REMARK   15  A    between atoms: _20  and  _24
REMARK   16  A    between atoms: _24  and  _25
REMARK   17  A    between atoms: _27  and  _28
REMARK   18  A    between atoms: _29  and  _30
REMARK   19  A    between atoms: _31  and  _33
REMARK   20  A    between atoms: _33  and  _34
REMARK   21  A    between atoms: _33  and  _35
REMARK   22  A    between atoms: _35  and  _36
REMARK   23  A    between atoms: _35  and  _37
REMARK   24  A    between atoms: _38  and  _40
REMARK                            x       y       z     vdW  Elec       q    Type
REMARK                         _______ _______ _______ _____ _____    ______ ____
ROOT
ATOM      1  C   UNL     1     -13.694  20.061  41.278  0.00  0.00    +0.163 C 
ENDROOT
BRANCH   1   2
ATOM      2  O   UNL     1     -12.478  19.739  41.973  0.00  0.00    -0.388 OA
ATOM      3  H   UNL     1     -12.668  19.117  42.680  0.00  0.00    +0.210 HD
ENDBRANCH   1   2
BRANCH   1   4
ATOM      4  C   UNL     1     -13.455  21.167  40.235  0.00  0.00    +0.175 C 
BRANCH   4   5
ATOM      5  C   UNL     1     -14.766  21.667  39.612  0.00  0.00    +0.176 C 
ATOM      6  O   UNL     1     -14.724  21.378  38.188  0.00  0.00    -0.332 OA
ATOM      7  C   UNL     1     -15.945  21.693  37.440  0.00  0.00    +0.277 C 
ATOM      8  C   UNL     1     -16.350  23.171  37.663  0.00  0.00    +0.110 C 
ATOM      9  C   UNL     1     -16.378  23.535  39.162  0.00  0.00    +0.143 C 
ATOM     10  C   UNL     1     -15.060  23.161  39.842  0.00  0.00    +0.133 C 
BRANCH  10  11
ATOM     11  N   UNL     1     -15.130  23.432  41.287  0.00  0.00    -0.308 N 
ATOM     12  H   UNL     1     -14.448  24.063  41.682  0.00  0.00    +0.149 HD
ATOM     13  C   UNL     1     -16.037  22.897  42.109  0.00  0.00    +0.210 C 
ATOM     14  C   UNL     1     -17.047  21.919  41.480  0.00  0.00    +0.109 C 
ATOM     15  O   UNL     1     -16.081  23.154  43.313  0.00  0.00    -0.276 OA
ENDBRANCH  10  11
BRANCH   7  16
ATOM     16  C   UNL     1     -17.104  20.771  37.872  0.00  0.00    +0.414 C 
ATOM     17  O   UNL     1     -16.878  19.614  38.224  0.00  0.00    -0.240 OA
ATOM     18  O   UNL     1     -18.265  21.183  37.869  0.00  0.00    -0.240 OA
ENDBRANCH   7  16
BRANCH   9  19
ATOM     19  O   UNL     1     -16.605  24.936  39.315  0.00  0.00    -0.390 OA
ATOM     20  H   UNL     1     -16.306  25.217  40.182  0.00  0.00    +0.210 HD
ENDBRANCH   9  19
BRANCH   7  21
ATOM     21  O   UNL     1     -15.669  21.502  36.029  0.00  0.00    -0.343 OA
ATOM     22  C   UNL     1     -14.428  20.814  35.735  0.00  0.00    +0.198 C 
ENDBRANCH   7  21
ENDBRANCH   4   5
BRANCH   4  23
ATOM     23  O   UNL     1     -12.565  20.693  39.204  0.00  0.00    -0.387 OA
ATOM     24  H   UNL     1     -13.069  20.219  38.539  0.00  0.00    +0.210 HD
ENDBRANCH   4  23
ENDBRANCH   1   4
BRANCH   1  25
ATOM     25  C   UNL     1     -14.245  18.819  40.586  0.00  0.00    +0.141 C 
BRANCH  25  28
ATOM     26  C   UNL     1     -15.961  17.615  41.895  0.00  0.00    +0.401 C 
ATOM     27  O   UNL     1     -16.901  18.277  41.448  0.00  0.00    -0.226 OA
ATOM     28  N   UNL     1     -14.686  17.805  41.552  0.00  0.00    -0.279 N 
ATOM     29  H   UNL     1     -13.984  17.218  41.981  0.00  0.00    +0.152 HD
BRANCH  26  30
ATOM     30  O   UNL     1     -16.230  16.580  42.844  0.00  0.00    -0.444 OA
BRANCH  30  31
ATOM     31  C   UNL     1     -15.380  15.460  42.582  0.00  0.00    +0.292 C 
BRANCH  31  33
ATOM     32  N   UNL     1     -16.522  13.272  42.784  0.00  0.00    -0.131 NA
ATOM     33  C   UNL     1     -16.169  14.349  42.015  0.00  0.00    +0.120 A 
ATOM     34  C   UNL     1     -16.679  14.184  40.746  0.00  0.00    +0.137 A 
ATOM     35  N   UNL     1     -17.364  13.009  40.817  0.00  0.00    -0.251 N 
ATOM     36  N   UNL     1     -17.263  12.459  42.041  0.00  0.00    -0.065 NA
BRANCH  35  37
ATOM     37  C   UNL     1     -18.179  12.379  39.798  0.00  0.00    +0.150 C 
BRANCH  37  38
ATOM     38  C   UNL     1     -17.492  12.389  38.441  0.00  0.00    +0.084 C 
BRANCH  38  39
ATOM     39  C   UNL     1     -17.267  10.987  37.861  0.00  0.00    +0.252 C 
BRANCH  39  40
ATOM     40  O   UNL     1     -18.381  10.602  37.053  0.00  0.00    -0.352 OA
BRANCH  40  41
ATOM     41  C   UNL     1     -18.734  11.557  36.054  0.00  0.00    +0.159 C 
ATOM     42  C   UNL     1     -18.410  10.980  34.690  0.00  0.00    +0.034 C 
ENDBRANCH  40  41
ENDBRANCH  39  40
BRANCH  39  43
ATOM     43  O   UNL     1     -17.127  10.080  38.962  0.00  0.00    -0.352 OA
BRANCH  43  44
ATOM     44  C   UNL     1     -17.469   8.738  38.610  0.00  0.00    +0.159 C 
ATOM     45  C   UNL     1     -16.211   7.994  38.211  0.00  0.00    +0.034 C 
ENDBRANCH  43  44
ENDBRANCH  39  43
ENDBRANCH  38  39
ENDBRANCH  37  38
ENDBRANCH  35  37
ENDBRANCH  31  33
ENDBRANCH  30  31
ENDBRANCH  26  30
ENDBRANCH  25  28
ENDBRANCH   1  25
TORSDOF 20
