REMARK  Name = lig_assembled_29.pdb
REMARK  21 active torsions:
REMARK  status: ('A' for Active; 'I' for Inactive)
REMARK    1  A    between atoms: _2  and  _9
REMARK    2  A    between atoms: _4  and  _23
REMARK    3  A    between atoms: _6  and  _7
REMARK    4  A    between atoms: _6  and  _23
REMARK    5  A    between atoms: _9  and  _10
REMARK    6  A    between atoms: _12  and  _18
REMARK    7  A    between atoms: _13  and  _18
REMARK    8  A    between atoms: _14  and  _17
REMARK    9  A    between atoms: _15  and  _17
REMARK   10  A    between atoms: _19  and  _39
REMARK   11  A    between atoms: _21  and  _27
REMARK   12  A    between atoms: _22  and  _26
REMARK   13  A    between atoms: _26  and  _27
REMARK   14  A    between atoms: _29  and  _30
REMARK   15  A    between atoms: _31  and  _32
REMARK   16  A    between atoms: _33  and  _35
REMARK   17  A    between atoms: _35  and  _36
REMARK   18  A    between atoms: _35  and  _37
REMARK   19  A    between atoms: _37  and  _38
REMARK   20  A    between atoms: _37  and  _39
REMARK   21  A    between atoms: _40  and  _42
REMARK                            x       y       z     vdW  Elec       q    Type
REMARK                         _______ _______ _______ _____ _____    ______ ____
ROOT
ATOM      1  C   UNL     1      -8.371  22.839  25.405  0.00  0.00    +0.163 C 
ENDROOT
BRANCH   1   2
ATOM      2  O   UNL     1      -8.334  22.749  23.971  0.00  0.00    -0.388 OA
ATOM      3  H   UNL     1      -9.227  22.657  23.632  0.00  0.00    +0.210 HD
ENDBRANCH   1   2
BRANCH   1   4
ATOM      4  C   UNL     1      -6.950  22.839  25.993  0.00  0.00    +0.175 C 
BRANCH   4   5
ATOM      5  C   UNL     1      -5.873  22.722  24.904  0.00  0.00    +0.176 C 
ATOM      6  O   UNL     1      -4.899  21.735  25.342  0.00  0.00    -0.332 OA
ATOM      7  C   UNL     1      -3.846  21.412  24.375  0.00  0.00    +0.277 C 
ATOM      8  C   UNL     1      -3.117  22.700  23.918  0.00  0.00    +0.110 C 
ATOM      9  C   UNL     1      -4.114  23.791  23.473  0.00  0.00    +0.143 C 
ATOM     10  C   UNL     1      -5.167  24.045  24.552  0.00  0.00    +0.133 C 
BRANCH  10  11
ATOM     11  N   UNL     1      -6.161  25.023  24.082  0.00  0.00    -0.308 N 
ATOM     12  H   UNL     1      -6.807  24.730  23.363  0.00  0.00    +0.149 HD
ATOM     13  C   UNL     1      -6.264  26.272  24.544  0.00  0.00    +0.210 C 
ATOM     14  C   UNL     1      -5.248  26.695  25.622  0.00  0.00    +0.109 C 
ATOM     15  O   UNL     1      -7.116  27.065  24.142  0.00  0.00    -0.276 OA
ENDBRANCH  10  11
BRANCH   7  16
ATOM     16  C   UNL     1      -4.435  20.690  23.145  0.00  0.00    +0.414 C 
ATOM     17  O   UNL     1      -3.699  20.067  22.381  0.00  0.00    -0.240 OA
ATOM     18  O   UNL     1      -5.645  20.729  22.918  0.00  0.00    -0.240 OA
ENDBRANCH   7  16
BRANCH   7  19
ATOM     19  O   UNL     1      -2.882  20.550  25.033  0.00  0.00    -0.343 OA
ATOM     20  C   UNL     1      -3.325  19.986  26.293  0.00  0.00    +0.198 C 
ENDBRANCH   7  19
BRANCH   9  21
ATOM     21  O   UNL     1      -3.411  25.005  23.207  0.00  0.00    -0.390 OA
ATOM     22  H   UNL     1      -4.021  25.745  23.252  0.00  0.00    +0.210 HD
ENDBRANCH   9  21
ENDBRANCH   4   5
BRANCH   4  23
ATOM     23  O   UNL     1      -6.808  21.768  26.948  0.00  0.00    -0.387 OA
ATOM     24  H   UNL     1      -6.583  20.956  26.488  0.00  0.00    +0.210 HD
ENDBRANCH   4  23
ENDBRANCH   1   4
BRANCH   1  25
ATOM     25  C   UNL     1      -9.098  24.111  25.829  0.00  0.00    +0.141 C 
BRANCH  25  28
ATOM     26  C   UNL     1      -9.004  24.837  28.189  0.00  0.00    +0.401 C 
ATOM     27  O   UNL     1     -10.120  24.395  28.468  0.00  0.00    -0.226 OA
ATOM     28  N   UNL     1      -8.450  24.754  26.979  0.00  0.00    -0.279 N 
ATOM     29  H   UNL     1      -7.533  25.156  26.845  0.00  0.00    +0.152 HD
BRANCH  26  30
ATOM     30  O   UNL     1      -8.240  25.487  29.208  0.00  0.00    -0.444 OA
BRANCH  30  31
ATOM     31  C   UNL     1      -7.544  24.507  29.982  0.00  0.00    +0.292 C 
BRANCH  31  33
ATOM     32  N   UNL     1      -7.754  25.795  32.091  0.00  0.00    -0.131 NA
ATOM     33  C   UNL     1      -7.911  24.619  31.406  0.00  0.00    +0.120 A 
ATOM     34  C   UNL     1      -8.457  23.677  32.249  0.00  0.00    +0.137 A 
ATOM     35  N   UNL     1      -8.694  24.369  33.402  0.00  0.00    -0.247 N 
ATOM     36  N   UNL     1      -8.228  25.627  33.319  0.00  0.00    -0.065 NA
BRANCH  35  37
ATOM     37  C   UNL     1      -9.396  23.916  34.588  0.00  0.00    +0.180 C 
BRANCH  37  38
ATOM     38  C   UNL     1     -10.818  23.523  34.254  0.00  0.00    -0.022 A 
ATOM     39  C   UNL     1     -11.754  24.505  33.885  0.00  0.00    +0.054 A 
ATOM     40  C   UNL     1     -13.053  24.147  33.497  0.00  0.00    +0.162 A 
ATOM     41  C   UNL     1     -13.426  22.788  33.485  0.00  0.00    +0.162 A 
ATOM     42  C   UNL     1     -12.494  21.814  33.853  0.00  0.00    +0.050 A 
ATOM     43  C   UNL     1     -11.201  22.179  34.237  0.00  0.00    +0.009 A 
BRANCH  40  44
ATOM     44  O   UNL     1     -14.017  25.042  33.103  0.00  0.00    -0.491 OA
ATOM     45  C   UNL     1     -14.419  26.036  34.034  0.00  0.00    +0.277 C 
ENDBRANCH  40  44
BRANCH  41  46
ATOM     46  O   UNL     1     -14.717  22.518  33.100  0.00  0.00    -0.491 OA
ATOM     47  C   UNL     1     -14.942  21.358  32.312  0.00  0.00    +0.277 C 
ENDBRANCH  41  46
ENDBRANCH  37  38
ENDBRANCH  35  37
ENDBRANCH  31  33
ENDBRANCH  30  31
ENDBRANCH  26  30
ENDBRANCH  25  28
ENDBRANCH   1  25
TORSDOF 17
