REMARK  Name = lig_assembled_91.pdb
REMARK  16 active torsions:
REMARK  status: ('A' for Active; 'I' for Inactive)
REMARK    1  A    between atoms: _2  and  _10
REMARK    2  A    between atoms: _5  and  _26
REMARK    3  A    between atoms: _7  and  _8
REMARK    4  A    between atoms: _7  and  _26
REMARK    5  A    between atoms: _22  and  _42
REMARK    6  A    between atoms: _24  and  _30
REMARK    7  A    between atoms: _25  and  _29
REMARK    8  A    between atoms: _29  and  _30
REMARK    9  A    between atoms: _32  and  _33
REMARK   10  A    between atoms: _34  and  _35
REMARK   11  A    between atoms: _36  and  _38
REMARK   12  A    between atoms: _38  and  _39
REMARK   13  A    between atoms: _38  and  _40
REMARK   14  A    between atoms: _40  and  _41
REMARK   15  A    between atoms: _40  and  _42
REMARK   16  A    between atoms: _43  and  _45
REMARK                            x       y       z     vdW  Elec       q    Type
REMARK                         _______ _______ _______ _____ _____    ______ ____
ROOT
ATOM      1  C   UNL     1     -17.701   4.499  38.790  0.00  0.00    +0.401 C 
ATOM      2  O   UNL     1     -18.069   5.049  37.749  0.00  0.00    -0.226 OA
ATOM      3  N   UNL     1     -17.152   5.144  39.820  0.00  0.00    -0.279 N 
ATOM      4  H   UNL     1     -16.891   4.607  40.635  0.00  0.00    +0.152 HD
ENDROOT
BRANCH   3   5
ATOM      5  C   UNL     1     -16.905   6.591  39.836  0.00  0.00    +0.141 C 
BRANCH   5   6
ATOM      6  C   UNL     1     -15.749   6.961  40.759  0.00  0.00    +0.163 C 
BRANCH   6   7
ATOM      7  O   UNL     1     -14.787   7.757  40.048  0.00  0.00    -0.388 OA
ATOM      8  H   UNL     1     -14.395   7.234  39.345  0.00  0.00    +0.210 HD
ENDBRANCH   6   7
BRANCH   6   9
ATOM      9  C   UNL     1     -16.291   7.717  41.985  0.00  0.00    +0.175 C 
BRANCH   9  10
ATOM     10  C   UNL     1     -17.256   8.844  41.588  0.00  0.00    +0.176 C 
ATOM     11  O   UNL     1     -16.464   9.945  41.061  0.00  0.00    -0.332 OA
ATOM     12  C   UNL     1     -17.229  11.078  40.530  0.00  0.00    +0.277 C 
ATOM     13  C   UNL     1     -18.220  11.608  41.595  0.00  0.00    +0.110 C 
ATOM     14  C   UNL     1     -19.062  10.469  42.207  0.00  0.00    +0.143 C 
ATOM     15  C   UNL     1     -18.167   9.343  42.725  0.00  0.00    +0.133 C 
BRANCH  15  16
ATOM     16  N   UNL     1     -18.983   8.225  43.227  0.00  0.00    -0.308 N 
ATOM     17  H   UNL     1     -18.834   7.923  44.179  0.00  0.00    +0.149 HD
ATOM     18  C   UNL     1     -19.907   7.585  42.505  0.00  0.00    +0.210 C 
ATOM     19  C   UNL     1     -20.091   8.052  41.049  0.00  0.00    +0.109 C 
ATOM     20  O   UNL     1     -20.585   6.662  42.956  0.00  0.00    -0.276 OA
ENDBRANCH  15  16
BRANCH  12  21
ATOM     21  C   UNL     1     -18.005  10.667  39.262  0.00  0.00    +0.414 C 
ATOM     22  O   UNL     1     -17.526   9.848  38.480  0.00  0.00    -0.240 OA
ATOM     23  O   UNL     1     -19.110  11.155  39.022  0.00  0.00    -0.240 OA
ENDBRANCH  12  21
BRANCH  14  24
ATOM     24  O   UNL     1     -19.850  10.977  43.284  0.00  0.00    -0.390 OA
ATOM     25  H   UNL     1     -20.110  10.254  43.860  0.00  0.00    +0.210 HD
ENDBRANCH  14  24
BRANCH  12  26
ATOM     26  O   UNL     1     -16.293  12.139  40.208  0.00  0.00    -0.343 OA
ATOM     27  C   UNL     1     -16.767  13.480  40.489  0.00  0.00    +0.198 C 
ENDBRANCH  12  26
ENDBRANCH   9  10
BRANCH   9  28
ATOM     28  O   UNL     1     -15.200   8.248  42.763  0.00  0.00    -0.387 OA
ATOM     29  H   UNL     1     -14.930   9.095  42.401  0.00  0.00    +0.210 HD
ENDBRANCH   9  28
ENDBRANCH   6   9
ENDBRANCH   5   6
ENDBRANCH   3   5
BRANCH   1  30
ATOM     30  O   UNL     1     -17.866   3.085  38.925  0.00  0.00    -0.444 OA
BRANCH  30  31
ATOM     31  C   UNL     1     -19.259   2.774  39.021  0.00  0.00    +0.292 C 
BRANCH  31  33
ATOM     32  N   UNL     1     -20.873   2.099  40.763  0.00  0.00    -0.131 NA
ATOM     33  C   UNL     1     -19.581   2.253  40.364  0.00  0.00    +0.121 A 
ATOM     34  C   UNL     1     -18.750   1.839  41.380  0.00  0.00    +0.143 A 
ATOM     35  N   UNL     1     -19.585   1.475  42.417  0.00  0.00    -0.218 N 
ATOM     36  N   UNL     1     -20.868   1.626  42.001  0.00  0.00    -0.060 NA
BRANCH  35  37
ATOM     37  C   UNL     1     -19.260   1.019  43.731  0.00  0.00    +0.085 A 
ATOM     38  C   UNL     1     -19.011   1.967  44.787  0.00  0.00    +0.026 A 
ATOM     39  C   UNL     1     -18.674   1.412  46.038  0.00  0.00    +0.074 A 
ATOM     40  C   UNL     1     -18.410   2.226  47.129  0.00  0.00    +0.028 A 
ATOM     41  C   UNL     1     -18.470   3.613  47.053  0.00  0.00    +0.002 A 
ATOM     42  C   UNL     1     -18.830   4.201  45.856  0.00  0.00    +0.001 A 
ATOM     43  N   UNL     1     -18.606   0.104  46.274  0.00  0.00    -0.247 NA
ATOM     44  C   UNL     1     -18.866  -0.770  45.303  0.00  0.00    +0.074 A 
ATOM     45  C   UNL     1     -18.763  -2.111  45.659  0.00  0.00    +0.028 A 
ATOM     46  C   UNL     1     -18.968  -3.140  44.746  0.00  0.00    +0.002 A 
ATOM     47  C   UNL     1     -19.272  -2.823  43.438  0.00  0.00    +0.001 A 
ATOM     48  C   UNL     1     -19.373  -1.479  43.062  0.00  0.00    +0.012 A 
ATOM     49  C   UNL     1     -19.117   3.394  44.750  0.00  0.00    +0.012 A 
ATOM     50  C   UNL     1     -19.193  -0.401  43.988  0.00  0.00    +0.026 A 
ENDBRANCH  35  37
ENDBRANCH  31  33
ENDBRANCH  30  31
ENDBRANCH   1  30
TORSDOF 14
