REMARK VINA RESULT:    -7.464      0.000      0.000
REMARK INTER + INTRA:         -15.432
REMARK INTER:                 -13.199
REMARK INTRA:                  -2.233
REMARK UNBOUND:                -2.732
REMARK  Name = lig_assembled_85.pdb
REMARK  14 active torsions:
REMARK  status: ('A' for Active; 'I' for Inactive)
REMARK    1  A    between atoms: _2  and  _9
REMARK    2  A    between atoms: _3  and  _5
REMARK    3  A    between atoms: _3  and  _16
REMARK    4  A    between atoms: _6  and  _7
REMARK    5  A    between atoms: _6  and  _18
REMARK    6  A    between atoms: _14  and  _15
REMARK    7  A    between atoms: _18  and  _20
REMARK    8  A    between atoms: _19  and  _24
REMARK    9  A    between atoms: _20  and  _23
REMARK   10  A    between atoms: _28  and  _38
REMARK   11  A    between atoms: _30  and  _31
REMARK   12  A    between atoms: _32  and  _34
REMARK   13  A    between atoms: _34  and  _36
REMARK   14  A    between atoms: _36  and  _38
REMARK                            x       y       z     vdW  Elec       q    Type
REMARK                         _______ _______ _______ _____ _____    ______ ____
ROOT
ATOM      1  C   UNL     1      27.989  17.304  -0.830  0.00  0.00    +0.400 C 
ATOM      2  N   UNL     1      28.360  16.225  -0.063  0.00  0.00    -0.278 N 
ATOM      3  H   UNL     1      28.550  16.657   0.896  0.00  0.00    +0.152 HD
ATOM      4  O   UNL     1      27.790  18.376  -0.265  0.00  0.00    -0.226 OA
ENDROOT
BRANCH   2   5
ATOM      5  C   UNL     1      28.591  14.786   0.031  0.00  0.00    +0.152 C 
BRANCH   5   6
ATOM      6  C   UNL     1      29.656  14.334   1.052  0.00  0.00    +0.193 C 
ATOM      7  O   UNL     1      29.834  12.913   0.864  0.00  0.00    -0.219 OA
BRANCH   6   8
ATOM      8  C   UNL     1      31.077  14.923   0.912  0.00  0.00    +0.212 C 
ATOM      9  O   UNL     1      31.115  16.267   1.419  0.00  0.00    -0.218 OA
BRANCH   8  10
ATOM     10  C   UNL     1      32.180  14.074   1.651  0.00  0.00    +0.171 C 
ATOM     11  O   UNL     1      32.595  14.665   2.878  0.00  0.00    -0.343 OA
ATOM     12  C   UNL     1      33.716  14.261   3.608  0.00  0.00    +0.220 C 
ATOM     13  C   UNL     1      34.973  14.181   2.724  0.00  0.00    +0.076 C 
ATOM     14  C   UNL     1      34.633  13.293   1.516  0.00  0.00    +0.177 C 
ATOM     15  O   UNL     1      35.776  13.153   0.685  0.00  0.00    -0.221 OA
ATOM     16  C   UNL     1      33.429  13.896   0.727  0.00  0.00    +0.155 C 
BRANCH  16  17
ATOM     17  N   UNL     1      33.108  13.059  -0.426  0.00  0.00    -0.202 NA
ATOM     18  C   UNL     1      33.057  13.379  -1.744  0.00  0.00    +0.242 C 
ATOM     19  C   UNL     1      32.989  12.260  -2.750  0.00  0.00    +0.096 C 
ATOM     20  O   UNL     1      33.069  14.561  -2.083  0.00  0.00    -0.273 OA
ENDBRANCH  16  17
BRANCH  12  21
ATOM     21  C   UNL     1      33.484  12.887   4.443  0.00  0.00    +0.391 C 
ATOM     22  O   UNL     1      34.710  12.535   4.878  0.00  0.00    -0.243 OA
ATOM     23  O   UNL     1      32.163  12.791   4.638  0.00  0.00    -0.243 OA
ENDBRANCH  12  21
ENDBRANCH   8  10
ENDBRANCH   6   8
ENDBRANCH   5   6
ENDBRANCH   2   5
BRANCH   1  24
ATOM     24  O   UNL     1      27.914  17.087  -2.103  0.00  0.00    -0.450 OA
BRANCH  24  25
ATOM     25  C   UNL     1      27.107  17.441  -3.201  0.00  0.00    +0.240 C 
BRANCH  25  26
ATOM     26  C   UNL     1      26.813  16.350  -4.248  0.00  0.00    +0.100 C 
BRANCH  26  28
ATOM     27  N   UNL     1      24.908  14.872  -4.781  0.00  0.00    -0.134 NA
ATOM     28  C   UNL     1      25.626  15.571  -3.853  0.00  0.00    +0.086 A 
ATOM     29  C   UNL     1      25.087  15.358  -2.604  0.00  0.00    +0.139 A 
ATOM     30  N   UNL     1      24.032  14.506  -2.822  0.00  0.00    -0.219 N 
ATOM     31  N   UNL     1      23.958  14.206  -4.141  0.00  0.00    -0.061 NA
BRANCH  30  32
ATOM     32  C   UNL     1      23.165  13.894  -1.893  0.00  0.00    +0.080 A 
ATOM     33  C   UNL     1      23.540  12.851  -1.030  0.00  0.00    +0.062 A 
ATOM     34  C   UNL     1      22.512  12.171  -0.337  0.00  0.00    +0.016 A 
ATOM     35  C   UNL     1      21.166  12.525  -0.473  0.00  0.00    +0.021 A 
ATOM     36  C   UNL     1      20.824  13.605  -1.274  0.00  0.00    +0.043 A 
ATOM     37 CL   UNL     1      19.171  14.033  -1.481  0.00  0.00    -0.083 Cl
ATOM     38  C   UNL     1      21.813  14.305  -1.959  0.00  0.00    +0.048 A 
BRANCH  33  39
ATOM     39  C   UNL     1      24.901  12.289  -0.788  0.00  0.00    +0.248 C 
ATOM     40  O   UNL     1      25.431  12.643   0.269  0.00  0.00    -0.270 OA
ATOM     41  N   UNL     1      25.582  11.474  -1.698  0.00  0.00    -0.304 N 
ATOM     42  C   UNL     1      25.063  10.864  -2.915  0.00  0.00    +0.132 C 
ATOM     43  C   UNL     1      26.911  11.022  -1.297  0.00  0.00    +0.132 C 
ENDBRANCH  33  39
ENDBRANCH  30  32
ENDBRANCH  26  28
ENDBRANCH  25  26
ENDBRANCH  24  25
ENDBRANCH   1  24
TORSDOF 12
