REMARK VINA RESULT:    -7.550      0.000      0.000
REMARK INTER + INTRA:         -14.595
REMARK INTER:                 -13.069
REMARK INTRA:                  -1.527
REMARK UNBOUND:                -2.191
REMARK  Name = lig_assembled_93.pdb
REMARK  11 active torsions:
REMARK  status: ('A' for Active; 'I' for Inactive)
REMARK    1  A    between atoms: _2  and  _8
REMARK    2  A    between atoms: _5  and  _6
REMARK    3  A    between atoms: _5  and  _13
REMARK    4  A    between atoms: _13  and  _15
REMARK    5  A    between atoms: _14  and  _19
REMARK    6  A    between atoms: _15  and  _18
REMARK    7  A    between atoms: _23  and  _33
REMARK    8  A    between atoms: _25  and  _26
REMARK    9  A    between atoms: _27  and  _29
REMARK   10  A    between atoms: _29  and  _31
REMARK   11  A    between atoms: _31  and  _33
REMARK                            x       y       z     vdW  Elec       q    Type
REMARK                         _______ _______ _______ _____ _____    ______ ____
ROOT
ATOM      1  C   UNL     1      28.005  17.174  -0.745  0.00  0.00    +0.400 C 
ATOM      2  N   UNL     1      28.396  16.077  -0.014  0.00  0.00    -0.278 N 
ATOM      3  H   UNL     1      28.691  16.498   0.923  0.00  0.00    +0.152 HD
ATOM      4  O   UNL     1      27.906  18.252  -0.165  0.00  0.00    -0.226 OA
ENDROOT
BRANCH   1   5
ATOM      5  O   UNL     1      27.805  16.964  -2.005  0.00  0.00    -0.450 OA
BRANCH   5   6
ATOM      6  C   UNL     1      26.958  17.406  -3.040  0.00  0.00    +0.240 C 
BRANCH   6   7
ATOM      7  C   UNL     1      26.704  16.439  -4.212  0.00  0.00    +0.100 C 
BRANCH   7   9
ATOM      8  N   UNL     1      24.920  14.907  -4.960  0.00  0.00    -0.134 NA
ATOM      9  C   UNL     1      25.473  15.663  -3.976  0.00  0.00    +0.086 A 
ATOM     10  C   UNL     1      24.707  15.541  -2.839  0.00  0.00    +0.139 A 
ATOM     11  N   UNL     1      23.683  14.669  -3.172  0.00  0.00    -0.219 N 
ATOM     12  N   UNL     1      23.841  14.319  -4.467  0.00  0.00    -0.061 NA
BRANCH  11  13
ATOM     13  C   UNL     1      22.630  14.183  -2.335  0.00  0.00    +0.080 A 
ATOM     14  C   UNL     1      22.973  13.253  -1.325  0.00  0.00    +0.029 A 
ATOM     15  C   UNL     1      22.012  12.705  -0.470  0.00  0.00    +0.002 A 
ATOM     16  C   UNL     1      20.683  13.071  -0.599  0.00  0.00    +0.001 A 
ATOM     17  C   UNL     1      20.317  13.989  -1.580  0.00  0.00    +0.016 A 
ATOM     18  C   UNL     1      21.273  14.553  -2.451  0.00  0.00    +0.039 A 
ATOM     19  I   UNL     1      20.410  15.914  -3.823  0.00  0.00    -0.042 I 
ENDBRANCH  11  13
ENDBRANCH   7   9
ENDBRANCH   6   7
ENDBRANCH   5   6
ENDBRANCH   1   5
BRANCH   2  20
ATOM     20  C   UNL     1      28.572  14.629   0.061  0.00  0.00    +0.152 C 
BRANCH  20  21
ATOM     21  C   UNL     1      29.662  14.126   1.028  0.00  0.00    +0.193 C 
ATOM     22  O   UNL     1      29.876  12.730   0.723  0.00  0.00    -0.219 OA
BRANCH  21  23
ATOM     23  C   UNL     1      31.065  14.763   0.918  0.00  0.00    +0.212 C 
ATOM     24  O   UNL     1      31.047  16.107   1.425  0.00  0.00    -0.218 OA
BRANCH  23  25
ATOM     25  C   UNL     1      32.181  13.951   1.680  0.00  0.00    +0.171 C 
ATOM     26  O   UNL     1      32.556  14.560   2.912  0.00  0.00    -0.343 OA
ATOM     27  C   UNL     1      33.676  14.195   3.663  0.00  0.00    +0.220 C 
ATOM     28  C   UNL     1      34.950  14.149   2.801  0.00  0.00    +0.076 C 
ATOM     29  C   UNL     1      34.659  13.245   1.592  0.00  0.00    +0.177 C 
ATOM     30  O   UNL     1      35.820  13.136   0.781  0.00  0.00    -0.221 OA
ATOM     31  C   UNL     1      33.451  13.808   0.779  0.00  0.00    +0.155 C 
BRANCH  31  32
ATOM     32  N   UNL     1      33.175  12.956  -0.375  0.00  0.00    -0.202 NA
ATOM     33  C   UNL     1      33.108  13.274  -1.692  0.00  0.00    +0.242 C 
ATOM     34  C   UNL     1      33.101  12.154  -2.700  0.00  0.00    +0.096 C 
ATOM     35  O   UNL     1      33.057  14.455  -2.030  0.00  0.00    -0.273 OA
ENDBRANCH  31  32
BRANCH  27  36
ATOM     36  C   UNL     1      33.472  12.818   4.501  0.00  0.00    +0.391 C 
ATOM     37  O   UNL     1      34.706  12.485   4.928  0.00  0.00    -0.243 OA
ATOM     38  O   UNL     1      32.154  12.701   4.705  0.00  0.00    -0.243 OA
ENDBRANCH  27  36
ENDBRANCH  23  25
ENDBRANCH  21  23
ENDBRANCH  20  21
ENDBRANCH   2  20
TORSDOF 11
