REMARK VINA RESULT:    -7.553      0.000      0.000
REMARK INTER + INTRA:         -13.795
REMARK INTER:                 -12.233
REMARK INTRA:                  -1.562
REMARK UNBOUND:                -1.385
REMARK  Name = lig_assembled_56.pdb
REMARK  11 active torsions:
REMARK  status: ('A' for Active; 'I' for Inactive)
REMARK    1  A    between atoms: _2  and  _9
REMARK    2  A    between atoms: _6  and  _7
REMARK    3  A    between atoms: _6  and  _13
REMARK    4  A    between atoms: _13  and  _15
REMARK    5  A    between atoms: _14  and  _19
REMARK    6  A    between atoms: _15  and  _18
REMARK    7  A    between atoms: _23  and  _33
REMARK    8  A    between atoms: _25  and  _26
REMARK    9  A    between atoms: _27  and  _29
REMARK   10  A    between atoms: _29  and  _31
REMARK   11  A    between atoms: _31  and  _33
REMARK                            x       y       z     vdW  Elec       q    Type
REMARK                         _______ _______ _______ _____ _____    ______ ____
ROOT
ATOM      1  C   UNL     1      28.715  14.638   0.145  0.00  0.00    +0.152 C 
ENDROOT
BRANCH   1   3
ATOM      2  C   UNL     1      27.964  17.120  -0.705  0.00  0.00    +0.400 C 
ATOM      3  N   UNL     1      28.464  16.072   0.033  0.00  0.00    -0.278 N 
ATOM      4  H   UNL     1      28.809  16.543   0.928  0.00  0.00    +0.152 HD
ATOM      5  O   UNL     1      27.857  18.214  -0.158  0.00  0.00    -0.226 OA
BRANCH   2   6
ATOM      6  O   UNL     1      27.678  16.851  -1.937  0.00  0.00    -0.450 OA
BRANCH   6   7
ATOM      7  C   UNL     1      27.024  17.441  -3.035  0.00  0.00    +0.240 C 
BRANCH   7   8
ATOM      8  C   UNL     1      26.394  16.499  -4.079  0.00  0.00    +0.100 C 
BRANCH   8  10
ATOM      9  N   UNL     1      26.101  14.195  -3.226  0.00  0.00    -0.134 NA
ATOM     10  C   UNL     1      25.600  15.451  -3.410  0.00  0.00    +0.086 A 
ATOM     11  C   UNL     1      24.330  15.510  -2.883  0.00  0.00    +0.139 A 
ATOM     12  N   UNL     1      24.101  14.256  -2.368  0.00  0.00    -0.220 N 
ATOM     13  N   UNL     1      25.184  13.473  -2.596  0.00  0.00    -0.061 NA
BRANCH  12  14
ATOM     14  C   UNL     1      22.959  13.772  -1.682  0.00  0.00    +0.070 A 
ATOM     15  C   UNL     1      21.709  14.371  -1.854  0.00  0.00    +0.047 A 
ATOM     16  C   UNL     1      20.638  13.857  -1.140  0.00  0.00    +0.113 A 
ATOM     17  N   UNL     1      20.731  12.813  -0.292  0.00  0.00    -0.263 NA
ATOM     18  C   UNL     1      21.950  12.250  -0.147  0.00  0.00    +0.113 A 
ATOM     19  C   UNL     1      23.083  12.686  -0.811  0.00  0.00    +0.047 A 
ENDBRANCH  12  14
ENDBRANCH   8  10
ENDBRANCH   7   8
ENDBRANCH   6   7
ENDBRANCH   2   6
ENDBRANCH   1   3
BRANCH   1  20
ATOM     20  C   UNL     1      29.767  14.213   1.190  0.00  0.00    +0.193 C 
ATOM     21  O   UNL     1      30.019  12.806   0.977  0.00  0.00    -0.219 OA
BRANCH  20  22
ATOM     22  C   UNL     1      31.163  14.870   1.109  0.00  0.00    +0.212 C 
ATOM     23  O   UNL     1      31.140  16.172   1.718  0.00  0.00    -0.218 OA
BRANCH  22  24
ATOM     24  C   UNL     1      32.297  14.014   1.790  0.00  0.00    +0.171 C 
ATOM     25  O   UNL     1      32.750  14.582   3.015  0.00  0.00    -0.343 OA
ATOM     26  C   UNL     1      33.899  14.172   3.696  0.00  0.00    +0.220 C 
ATOM     27  C   UNL     1      35.125  14.120   2.768  0.00  0.00    +0.076 C 
ATOM     28  C   UNL     1      34.749  13.256   1.553  0.00  0.00    +0.177 C 
ATOM     29  O   UNL     1      35.864  13.142   0.680  0.00  0.00    -0.221 OA
ATOM     30  C   UNL     1      33.515  13.866   0.820  0.00  0.00    +0.155 C 
BRANCH  30  31
ATOM     31  N   UNL     1      33.159  13.051  -0.339  0.00  0.00    -0.202 NA
ATOM     32  C   UNL     1      33.026  13.407  -1.642  0.00  0.00    +0.242 C 
ATOM     33  C   UNL     1      32.940  12.315  -2.676  0.00  0.00    +0.096 C 
ATOM     34  O   UNL     1      32.979  14.598  -1.945  0.00  0.00    -0.273 OA
ENDBRANCH  30  31
BRANCH  26  35
ATOM     35  C   UNL     1      33.706  12.778   4.509  0.00  0.00    +0.391 C 
ATOM     36  O   UNL     1      34.958  12.355   4.775  0.00  0.00    -0.243 OA
ATOM     37  O   UNL     1      32.417  12.733   4.865  0.00  0.00    -0.243 OA
ENDBRANCH  26  35
ENDBRANCH  22  24
ENDBRANCH  20  22
ENDBRANCH   1  20
TORSDOF 11
