REMARK VINA RESULT:    -7.609      0.000      0.000
REMARK INTER + INTRA:         -14.490
REMARK INTER:                 -11.245
REMARK INTRA:                  -3.245
REMARK UNBOUND:                -1.544
REMARK  Name = lig_assembled_69.pdb
REMARK  13 active torsions:
REMARK  status: ('A' for Active; 'I' for Inactive)
REMARK    1  A    between atoms: _2  and  _8
REMARK    2  A    between atoms: _5  and  _6
REMARK    3  A    between atoms: _5  and  _16
REMARK    4  A    between atoms: _10  and  _15
REMARK    5  A    between atoms: _13  and  _14
REMARK    6  A    between atoms: _16  and  _18
REMARK    7  A    between atoms: _17  and  _22
REMARK    8  A    between atoms: _18  and  _21
REMARK    9  A    between atoms: _26  and  _36
REMARK   10  A    between atoms: _28  and  _29
REMARK   11  A    between atoms: _30  and  _32
REMARK   12  A    between atoms: _32  and  _34
REMARK   13  A    between atoms: _34  and  _36
REMARK                            x       y       z     vdW  Elec       q    Type
REMARK                         _______ _______ _______ _____ _____    ______ ____
ROOT
ATOM      1  C   UNL     1      25.090  15.557  -3.122  0.00  0.00    +0.400 C 
ATOM      2  N   UNL     1      25.542  14.298  -2.808  0.00  0.00    -0.278 N 
ATOM      3  H   UNL     1      24.790  13.922  -2.148  0.00  0.00    +0.152 HD
ATOM      4  O   UNL     1      23.954  15.869  -2.772  0.00  0.00    -0.226 OA
ENDROOT
BRANCH   1   5
ATOM      5  O   UNL     1      25.933  16.317  -3.740  0.00  0.00    -0.450 OA
BRANCH   5   6
ATOM      6  C   UNL     1      26.997  17.193  -3.446  0.00  0.00    +0.240 C 
BRANCH   6   7
ATOM      7  C   UNL     1      27.102  17.725  -2.004  0.00  0.00    +0.100 C 
BRANCH   7   9
ATOM      8  N   UNL     1      29.319  17.726  -0.913  0.00  0.00    -0.134 NA
ATOM      9  C   UNL     1      28.193  17.043  -1.284  0.00  0.00    +0.086 A 
ATOM     10  C   UNL     1      28.310  15.729  -0.886  0.00  0.00    +0.134 A 
ATOM     11  N   UNL     1      29.535  15.675  -0.289  0.00  0.00    -0.248 N 
ATOM     12  N   UNL     1      30.138  16.877  -0.310  0.00  0.00    -0.065 NA
BRANCH  11  13
ATOM     13  C   UNL     1      30.213  14.507   0.270  0.00  0.00    +0.114 C 
ATOM     14  C   UNL     1      29.226  13.371   0.564  0.00  0.00    +0.062 C 
ATOM     15  C   UNL     1      28.500  13.437   1.910  0.00  0.00    +0.139 C 
ATOM     16  C   UNL     1      29.332  13.174   3.133  0.00  0.00    +0.002 C 
ATOM     17  C   UNL     1      30.663  13.270   3.278  0.00  0.00    +0.002 C 
ATOM     18  C   UNL     1      31.658  13.808   2.295  0.00  0.00    +0.139 C 
ATOM     19  C   UNL     1      31.133  14.940   1.420  0.00  0.00    +0.062 C 
BRANCH  18  20
ATOM     20  O   UNL     1      32.146  12.745   1.492  0.00  0.00    -0.388 OA
ATOM     21  H   UNL     1      32.662  13.141   0.768  0.00  0.00    +0.210 HD
ENDBRANCH  18  20
BRANCH  15  22
ATOM     22  O   UNL     1      27.503  12.407   1.898  0.00  0.00    -0.388 OA
ATOM     23  H   UNL     1      27.006  12.475   2.731  0.00  0.00    +0.210 HD
ENDBRANCH  15  22
ENDBRANCH  11  13
ENDBRANCH   7   9
ENDBRANCH   6   7
ENDBRANCH   5   6
ENDBRANCH   1   5
BRANCH   2  24
ATOM     24  C   UNL     1      26.558  13.262  -2.979  0.00  0.00    +0.152 C 
BRANCH  24  25
ATOM     25  C   UNL     1      26.176  11.849  -2.493  0.00  0.00    +0.193 C 
ATOM     26  O   UNL     1      27.411  11.112  -2.346  0.00  0.00    -0.219 OA
BRANCH  25  27
ATOM     27  C   UNL     1      25.489  11.728  -1.115  0.00  0.00    +0.212 C 
ATOM     28  O   UNL     1      25.805  12.865  -0.295  0.00  0.00    -0.218 OA
BRANCH  27  29
ATOM     29  C   UNL     1      23.921  11.594  -1.208  0.00  0.00    +0.171 C 
ATOM     30  O   UNL     1      23.342  12.552  -2.087  0.00  0.00    -0.343 OA
ATOM     31  C   UNL     1      21.973  12.818  -2.171  0.00  0.00    +0.220 C 
ATOM     32  C   UNL     1      21.356  13.079  -0.786  0.00  0.00    +0.076 C 
ATOM     33  C   UNL     1      21.731  11.894   0.118  0.00  0.00    +0.177 C 
ATOM     34  O   UNL     1      21.151  12.066   1.404  0.00  0.00    -0.221 OA
ATOM     35  C   UNL     1      23.283  11.757   0.210  0.00  0.00    +0.155 C 
BRANCH  35  36
ATOM     36  N   UNL     1      23.643  10.636   1.074  0.00  0.00    -0.202 NA
ATOM     37  C   UNL     1      24.287  10.633   2.269  0.00  0.00    +0.242 C 
ATOM     38  C   UNL     1      24.269   9.368   3.088  0.00  0.00    +0.096 C 
ATOM     39  O   UNL     1      24.861  11.650   2.653  0.00  0.00    -0.273 OA
ENDBRANCH  35  36
BRANCH  31  40
ATOM     40  C   UNL     1      21.143  11.687  -2.990  0.00  0.00    +0.391 C 
ATOM     41  O   UNL     1      19.856  12.077  -2.915  0.00  0.00    -0.243 OA
ATOM     42  O   UNL     1      22.054  10.980  -3.670  0.00  0.00    -0.243 OA
ENDBRANCH  31  40
ENDBRANCH  27  29
ENDBRANCH  25  27
ENDBRANCH  24  25
ENDBRANCH   2  24
TORSDOF 13
