REMARK VINA RESULT:    -8.041      0.000      0.000
REMARK INTER + INTRA:         -15.088
REMARK INTER:                 -13.436
REMARK INTRA:                  -1.653
REMARK UNBOUND:                -1.407
REMARK  Name = lig_assembled_82.pdb
REMARK  14 active torsions:
REMARK  status: ('A' for Active; 'I' for Inactive)
REMARK    1  A    between atoms: _2  and  _8
REMARK    2  A    between atoms: _4  and  _15
REMARK    3  A    between atoms: _5  and  _6
REMARK    4  A    between atoms: _5  and  _17
REMARK    5  A    between atoms: _8  and  _9
REMARK    6  A    between atoms: _15  and  _16
REMARK    7  A    between atoms: _17  and  _19
REMARK    8  A    between atoms: _18  and  _23
REMARK    9  A    between atoms: _19  and  _22
REMARK   10  A    between atoms: _27  and  _37
REMARK   11  A    between atoms: _29  and  _30
REMARK   12  A    between atoms: _31  and  _33
REMARK   13  A    between atoms: _33  and  _35
REMARK   14  A    between atoms: _35  and  _37
REMARK                            x       y       z     vdW  Elec       q    Type
REMARK                         _______ _______ _______ _____ _____    ______ ____
ROOT
ATOM      1  C   UNL     1      27.834  17.309  -0.832  0.00  0.00    +0.400 C 
ATOM      2  N   UNL     1      28.318  16.212  -0.160  0.00  0.00    -0.278 N 
ATOM      3  H   UNL     1      28.517  16.590   0.820  0.00  0.00    +0.152 HD
ATOM      4  O   UNL     1      27.581  18.321  -0.183  0.00  0.00    -0.226 OA
ENDROOT
BRANCH   2   5
ATOM      5  C   UNL     1      28.660  14.792  -0.179  0.00  0.00    +0.152 C 
BRANCH   5   6
ATOM      6  C   UNL     1      29.673  14.323   0.885  0.00  0.00    +0.193 C 
ATOM      7  O   UNL     1      29.856  12.903   0.688  0.00  0.00    -0.219 OA
BRANCH   6   8
ATOM      8  C   UNL     1      31.102  14.907   0.819  0.00  0.00    +0.212 C 
ATOM      9  O   UNL     1      31.122  16.244   1.346  0.00  0.00    -0.218 OA
BRANCH   8  10
ATOM     10  C   UNL     1      32.166  14.043   1.597  0.00  0.00    +0.171 C 
ATOM     11  O   UNL     1      32.555  14.635   2.832  0.00  0.00    -0.343 OA
ATOM     12  C   UNL     1      33.646  14.216   3.598  0.00  0.00    +0.220 C 
ATOM     13  C   UNL     1      34.927  14.107   2.753  0.00  0.00    +0.076 C 
ATOM     14  C   UNL     1      34.608  13.216   1.541  0.00  0.00    +0.177 C 
ATOM     15  O   UNL     1      35.773  13.049   0.745  0.00  0.00    -0.221 OA
ATOM     16  C   UNL     1      33.439  13.836   0.712  0.00  0.00    +0.155 C 
BRANCH  16  17
ATOM     17  N   UNL     1      33.137  12.997  -0.444  0.00  0.00    -0.202 NA
ATOM     18  C   UNL     1      33.079  13.322  -1.761  0.00  0.00    +0.242 C 
ATOM     19  C   UNL     1      33.037  12.206  -2.772  0.00  0.00    +0.096 C 
ATOM     20  O   UNL     1      33.063  14.505  -2.094  0.00  0.00    -0.273 OA
ENDBRANCH  16  17
BRANCH  12  21
ATOM     21  C   UNL     1      33.364  12.852   4.434  0.00  0.00    +0.391 C 
ATOM     22  O   UNL     1      34.565  12.492   4.927  0.00  0.00    -0.243 OA
ATOM     23  O   UNL     1      32.035  12.770   4.570  0.00  0.00    -0.243 OA
ENDBRANCH  12  21
ENDBRANCH   8  10
ENDBRANCH   6   8
ENDBRANCH   5   6
ENDBRANCH   2   5
BRANCH   1  24
ATOM     24  O   UNL     1      27.719  17.175  -2.113  0.00  0.00    -0.450 OA
BRANCH  24  25
ATOM     25  C   UNL     1      26.754  17.354  -3.123  0.00  0.00    +0.240 C 
BRANCH  25  26
ATOM     26  C   UNL     1      26.689  16.295  -4.240  0.00  0.00    +0.100 C 
BRANCH  26  28
ATOM     27  N   UNL     1      24.958  14.925  -5.356  0.00  0.00    -0.134 NA
ATOM     28  C   UNL     1      25.383  15.630  -4.255  0.00  0.00    +0.086 A 
ATOM     29  C   UNL     1      24.393  15.575  -3.291  0.00  0.00    +0.134 A 
ATOM     30  N   UNL     1      23.355  14.940  -3.915  0.00  0.00    -0.247 N 
ATOM     31  N   UNL     1      23.734  14.476  -5.120  0.00  0.00    -0.065 NA
BRANCH  30  32
ATOM     32  C   UNL     1      21.963  14.817  -3.473  0.00  0.00    +0.176 C 
BRANCH  32  33
ATOM     33  C   UNL     1      21.800  13.838  -2.337  0.00  0.00    -0.049 C 
ATOM     34  C   UNL     1      22.279  12.437  -2.550  0.00  0.00    +0.023 C 
ATOM     35  C   UNL     1      22.934  11.664  -1.317  0.00  0.00    -0.025 C 
ATOM     36  C   UNL     1      23.778  12.170  -0.142  0.00  0.00    +0.012 C 
ATOM     37  C   UNL     1      21.405  11.550  -0.861  0.00  0.00    -0.000 C 
ATOM     38  C   UNL     1      20.800  12.865  -0.277  0.00  0.00    +0.031 C 
ATOM     39  C   UNL     1      23.764  10.538  -1.985  0.00  0.00    +0.012 C 
ATOM     40  C   UNL     1      21.066  11.439  -2.372  0.00  0.00    +0.012 C 
ATOM     41  C   UNL     1      21.103  14.034  -1.200  0.00  0.00    -0.025 C 
ENDBRANCH  32  33
ENDBRANCH  30  32
ENDBRANCH  26  28
ENDBRANCH  25  26
ENDBRANCH  24  25
ENDBRANCH   1  24
TORSDOF 12
