REMARK VINA RESULT:    -7.336      0.000      0.000
REMARK INTER + INTRA:         -15.788
REMARK INTER:                 -13.051
REMARK INTRA:                  -2.737
REMARK UNBOUND:                -2.234
REMARK  Name = lig_assembled_83.pdb
REMARK  15 active torsions:
REMARK  status: ('A' for Active; 'I' for Inactive)
REMARK    1  A    between atoms: _2  and  _11
REMARK    2  A    between atoms: _3  and  _13
REMARK    3  A    between atoms: _8  and  _9
REMARK    4  A    between atoms: _8  and  _19
REMARK    5  A    between atoms: _11  and  _12
REMARK    6  A    between atoms: _12  and  _13
REMARK    7  A    between atoms: _12  and  _17
REMARK    8  A    between atoms: _19  and  _21
REMARK    9  A    between atoms: _20  and  _25
REMARK   10  A    between atoms: _21  and  _24
REMARK   11  A    between atoms: _29  and  _39
REMARK   12  A    between atoms: _31  and  _32
REMARK   13  A    between atoms: _33  and  _35
REMARK   14  A    between atoms: _35  and  _37
REMARK   15  A    between atoms: _37  and  _39
REMARK                            x       y       z     vdW  Elec       q    Type
REMARK                         _______ _______ _______ _____ _____    ______ ____
ROOT
ATOM      1  C   UNL     1      27.654  17.432  -1.155  0.00  0.00    +0.400 C 
ATOM      2  N   UNL     1      27.856  16.127  -0.774  0.00  0.00    -0.278 N 
ATOM      3  H   UNL     1      28.067  16.204   0.271  0.00  0.00    +0.152 HD
ATOM      4  O   UNL     1      27.575  18.287  -0.276  0.00  0.00    -0.226 OA
ENDROOT
BRANCH   2   5
ATOM      5  C   UNL     1      27.898  14.714  -1.145  0.00  0.00    +0.152 C 
BRANCH   5   6
ATOM      6  C   UNL     1      28.891  13.834  -0.359  0.00  0.00    +0.193 C 
ATOM      7  O   UNL     1      28.718  12.483  -0.839  0.00  0.00    -0.219 OA
BRANCH   6   8
ATOM      8  C   UNL     1      30.398  14.118  -0.543  0.00  0.00    +0.212 C 
ATOM      9  O   UNL     1      30.640  15.533  -0.593  0.00  0.00    -0.218 OA
BRANCH   8  10
ATOM     10  C   UNL     1      31.294  13.493   0.593  0.00  0.00    +0.171 C 
ATOM     11  O   UNL     1      30.975  14.001   1.884  0.00  0.00    -0.343 OA
ATOM     12  C   UNL     1      31.760  13.809   3.023  0.00  0.00    +0.220 C 
ATOM     13  C   UNL     1      33.233  14.176   2.770  0.00  0.00    +0.076 C 
ATOM     14  C   UNL     1      33.696  13.401   1.526  0.00  0.00    +0.177 C 
ATOM     15  O   UNL     1      35.066  13.674   1.270  0.00  0.00    -0.221 OA
ATOM     16  C   UNL     1      32.805  13.771   0.299  0.00  0.00    +0.155 C 
BRANCH  16  17
ATOM     17  N   UNL     1      33.246  13.041  -0.886  0.00  0.00    -0.202 NA
ATOM     18  C   UNL     1      33.597  13.507  -2.112  0.00  0.00    +0.242 C 
ATOM     19  C   UNL     1      34.295  12.569  -3.061  0.00  0.00    +0.096 C 
ATOM     20  O   UNL     1      33.341  14.671  -2.415  0.00  0.00    -0.273 OA
ENDBRANCH  16  17
BRANCH  12  21
ATOM     21  C   UNL     1      31.617  12.322   3.664  0.00  0.00    +0.391 C 
ATOM     22  O   UNL     1      32.667  12.202   4.500  0.00  0.00    -0.243 OA
ATOM     23  O   UNL     1      30.381  11.907   3.362  0.00  0.00    -0.243 OA
ENDBRANCH  12  21
ENDBRANCH   8  10
ENDBRANCH   6   8
ENDBRANCH   5   6
ENDBRANCH   2   5
BRANCH   1  24
ATOM     24  O   UNL     1      27.596  17.641  -2.430  0.00  0.00    -0.450 OA
BRANCH  24  25
ATOM     25  C   UNL     1      26.675  17.528  -3.490  0.00  0.00    +0.240 C 
BRANCH  25  26
ATOM     26  C   UNL     1      26.647  16.199  -4.268  0.00  0.00    +0.100 C 
BRANCH  26  28
ATOM     27  N   UNL     1      24.806  14.862  -5.263  0.00  0.00    -0.134 NA
ATOM     28  C   UNL     1      25.302  15.598  -4.216  0.00  0.00    +0.086 A 
ATOM     29  C   UNL     1      24.359  15.642  -3.215  0.00  0.00    +0.133 A 
ATOM     30  N   UNL     1      23.326  14.906  -3.705  0.00  0.00    -0.249 N 
ATOM     31  N   UNL     1      23.588  14.446  -4.939  0.00  0.00    -0.065 NA
BRANCH  30  32
ATOM     32  C   UNL     1      22.053  14.634  -3.071  0.00  0.00    +0.178 C 
BRANCH  32  33
ATOM     33  C   UNL     1      22.227  14.059  -1.663  0.00  0.00    +0.156 C 
BRANCH  33  34
ATOM     34  O   UNL     1      20.997  14.170  -0.937  0.00  0.00    -0.388 OA
ATOM     35  H   UNL     1      21.050  14.918  -0.309  0.00  0.00    +0.210 HD
ENDBRANCH  33  34
BRANCH  33  36
ATOM     36  C   UNL     1      22.676  12.592  -1.731  0.00  0.00    +0.162 C 
BRANCH  36  37
ATOM     37  N   UNL     1      23.550  12.223  -0.628  0.00  0.00    -0.269 N 
ATOM     38  C   UNL     1      24.916  12.388  -0.655  0.00  0.00    +0.113 A 
ATOM     39  C   UNL     1      25.365  11.955   0.569  0.00  0.00    +0.137 A 
ATOM     40  N   UNL     1      24.326  11.503   1.336  0.00  0.00    -0.172 NA
ATOM     41  C   UNL     1      23.246  11.680   0.597  0.00  0.00    +0.450 A 
ATOM     42  N   UNL     1      21.923  11.333   1.063  0.00  0.00    +0.120 N 
ATOM     43  O   UNL     1      20.968  11.539   0.294  0.00  0.00    +0.045 OA
ATOM     44  O   UNL     1      21.825  10.842   2.194  0.00  0.00    -0.573 OA
ENDBRANCH  36  37
ENDBRANCH  33  36
ENDBRANCH  32  33
ENDBRANCH  30  32
ENDBRANCH  26  28
ENDBRANCH  25  26
ENDBRANCH  24  25
ENDBRANCH   1  24
TORSDOF 15
