REMARK VINA RESULT:    -6.768      0.000      0.000
REMARK INTER + INTRA:         -14.106
REMARK INTER:                 -12.520
REMARK INTRA:                  -1.586
REMARK UNBOUND:                -2.194
REMARK  Name = lig_assembled_14.pdb
REMARK  13 active torsions:
REMARK  status: ('A' for Active; 'I' for Inactive)
REMARK    1  A    between atoms: _2  and  _9
REMARK    2  A    between atoms: _3  and  _10
REMARK    3  A    between atoms: _6  and  _7
REMARK    4  A    between atoms: _6  and  _14
REMARK    5  A    between atoms: _9  and  _10
REMARK    6  A    between atoms: _14  and  _16
REMARK    7  A    between atoms: _15  and  _20
REMARK    8  A    between atoms: _16  and  _19
REMARK    9  A    between atoms: _24  and  _34
REMARK   10  A    between atoms: _26  and  _27
REMARK   11  A    between atoms: _28  and  _30
REMARK   12  A    between atoms: _30  and  _32
REMARK   13  A    between atoms: _32  and  _34
REMARK                            x       y       z     vdW  Elec       q    Type
REMARK                         _______ _______ _______ _____ _____    ______ ____
ROOT
ATOM      1  C   UNL     1      28.976  17.089  -0.471  0.00  0.00    +0.400 C 
ATOM      2  N   UNL     1      29.410  15.984   0.221  0.00  0.00    -0.278 N 
ATOM      3  H   UNL     1      30.169  16.376   0.864  0.00  0.00    +0.152 HD
ATOM      4  O   UNL     1      29.372  18.194  -0.106  0.00  0.00    -0.226 OA
ENDROOT
BRANCH   2   5
ATOM      5  C   UNL     1      29.293  14.550   0.477  0.00  0.00    +0.152 C 
BRANCH   5   6
ATOM      6  C   UNL     1      30.119  13.626  -0.441  0.00  0.00    +0.193 C 
ATOM      7  O   UNL     1      29.658  13.861  -1.790  0.00  0.00    -0.219 OA
BRANCH   6   8
ATOM      8  C   UNL     1      31.644  13.862  -0.508  0.00  0.00    +0.212 C 
ATOM      9  O   UNL     1      31.927  15.257  -0.703  0.00  0.00    -0.218 OA
BRANCH   8  10
ATOM     10  C   UNL     1      32.409  13.367   0.778  0.00  0.00    +0.171 C 
ATOM     11  O   UNL     1      32.266  14.258   1.878  0.00  0.00    -0.343 OA
ATOM     12  C   UNL     1      33.025  14.194   3.049  0.00  0.00    +0.220 C 
ATOM     13  C   UNL     1      34.532  14.124   2.748  0.00  0.00    +0.076 C 
ATOM     14  C   UNL     1      34.755  12.960   1.768  0.00  0.00    +0.177 C 
ATOM     15  O   UNL     1      36.140  12.826   1.486  0.00  0.00    -0.221 OA
ATOM     16  C   UNL     1      33.931  13.192   0.463  0.00  0.00    +0.155 C 
BRANCH  16  17
ATOM     17  N   UNL     1      34.145  12.093  -0.474  0.00  0.00    -0.202 NA
ATOM     18  C   UNL     1      34.634  12.114  -1.740  0.00  0.00    +0.242 C 
ATOM     19  C   UNL     1      35.028  10.806  -2.377  0.00  0.00    +0.096 C 
ATOM     20  O   UNL     1      34.745  13.186  -2.331  0.00  0.00    -0.273 OA
ENDBRANCH  16  17
BRANCH  12  21
ATOM     21  C   UNL     1      32.561  13.007   4.057  0.00  0.00    +0.391 C 
ATOM     22  O   UNL     1      33.556  12.909   4.959  0.00  0.00    -0.243 OA
ATOM     23  O   UNL     1      31.266  12.789   3.800  0.00  0.00    -0.243 OA
ENDBRANCH  12  21
ENDBRANCH   8  10
ENDBRANCH   6   8
ENDBRANCH   5   6
ENDBRANCH   2   5
BRANCH   1  24
ATOM     24  O   UNL     1      28.203  16.851  -1.479  0.00  0.00    -0.450 OA
BRANCH  24  25
ATOM     25  C   UNL     1      27.103  17.429  -2.142  0.00  0.00    +0.240 C 
BRANCH  25  26
ATOM     26  C   UNL     1      27.020  17.251  -3.670  0.00  0.00    +0.100 C 
BRANCH  26  28
ATOM     27  N   UNL     1      25.986  15.638  -5.235  0.00  0.00    -0.134 NA
ATOM     28  C   UNL     1      25.980  16.265  -4.018  0.00  0.00    +0.086 A 
ATOM     29  C   UNL     1      24.899  15.822  -3.287  0.00  0.00    +0.133 A 
ATOM     30  N   UNL     1      24.282  14.941  -4.121  0.00  0.00    -0.250 N 
ATOM     31  N   UNL     1      24.941  14.824  -5.286  0.00  0.00    -0.065 NA
BRANCH  30  32
ATOM     32  C   UNL     1      23.046  14.221  -3.905  0.00  0.00    +0.160 C 
BRANCH  32  33
ATOM     33  C   UNL     1      22.117  14.956  -2.932  0.00  0.00    +0.107 C 
BRANCH  33  34
ATOM     34  N   UNL     1      21.984  14.272  -1.634  0.00  0.00    -0.301 NA
ATOM     35  C   UNL     1      20.598  13.921  -1.308  0.00  0.00    +0.084 C 
ATOM     36  C   UNL     1      20.770  12.905  -0.197  0.00  0.00    +0.017 C 
ATOM     37  C   UNL     1      21.992  12.110  -0.619  0.00  0.00    +0.017 C 
ATOM     38  C   UNL     1      22.736  13.010  -1.603  0.00  0.00    +0.084 C 
ENDBRANCH  33  34
ENDBRANCH  32  33
ENDBRANCH  30  32
ENDBRANCH  26  28
ENDBRANCH  25  26
ENDBRANCH  24  25
ENDBRANCH   1  24
TORSDOF 13
