REMARK VINA RESULT:    -7.828      0.000      0.000
REMARK INTER + INTRA:         -14.470
REMARK INTER:                 -12.887
REMARK INTRA:                  -1.584
REMARK UNBOUND:                -1.609
REMARK  Name = lig_assembled_87.pdb
REMARK  12 active torsions:
REMARK  status: ('A' for Active; 'I' for Inactive)
REMARK    1  A    between atoms: _2  and  _9
REMARK    2  A    between atoms: _3  and  _12
REMARK    3  A    between atoms: _6  and  _7
REMARK    4  A    between atoms: _6  and  _16
REMARK    5  A    between atoms: _16  and  _18
REMARK    6  A    between atoms: _17  and  _22
REMARK    7  A    between atoms: _18  and  _21
REMARK    8  A    between atoms: _26  and  _36
REMARK    9  A    between atoms: _28  and  _29
REMARK   10  A    between atoms: _30  and  _32
REMARK   11  A    between atoms: _32  and  _34
REMARK   12  A    between atoms: _34  and  _36
REMARK                            x       y       z     vdW  Elec       q    Type
REMARK                         _______ _______ _______ _____ _____    ______ ____
ROOT
ATOM      1  C   UNL     1      28.889  17.126  -0.508  0.00  0.00    +0.400 C 
ATOM      2  N   UNL     1      29.185  16.006   0.232  0.00  0.00    -0.278 N 
ATOM      3  H   UNL     1      29.909  16.358   0.935  0.00  0.00    +0.152 HD
ATOM      4  O   UNL     1      29.324  18.208  -0.121  0.00  0.00    -0.226 OA
ENDROOT
BRANCH   1   5
ATOM      5  O   UNL     1      28.192  16.923  -1.578  0.00  0.00    -0.450 OA
BRANCH   5   6
ATOM      6  C   UNL     1      27.135  17.518  -2.293  0.00  0.00    +0.240 C 
BRANCH   6   7
ATOM      7  C   UNL     1      26.965  17.121  -3.772  0.00  0.00    +0.100 C 
BRANCH   7   9
ATOM      8  N   UNL     1      25.622  15.542  -5.116  0.00  0.00    -0.134 NA
ATOM      9  C   UNL     1      25.885  16.128  -3.910  0.00  0.00    +0.086 A 
ATOM     10  C   UNL     1      25.022  15.620  -2.965  0.00  0.00    +0.134 A 
ATOM     11  N   UNL     1      24.337  14.637  -3.625  0.00  0.00    -0.248 N 
ATOM     12  N   UNL     1      24.629  14.687  -4.941  0.00  0.00    -0.065 NA
BRANCH  11  13
ATOM     13  C   UNL     1      23.387  13.620  -3.135  0.00  0.00    +0.112 C 
ATOM     14  C   UNL     1      22.275  13.225  -4.146  0.00  0.00    +0.045 C 
ATOM     15  C   UNL     1      20.831  13.472  -3.679  0.00  0.00    +0.059 C 
ATOM     16  C   UNL     1      20.347  12.386  -2.707  0.00  0.00    +0.020 C 
ATOM     17  C   UNL     1      20.591  12.975  -1.318  0.00  0.00    +0.020 C 
ATOM     18  C   UNL     1      21.358  14.268  -1.596  0.00  0.00    +0.059 C 
ATOM     19  N   UNL     1      20.707  14.659  -2.843  0.00  0.00    -0.299 NA
ATOM     20  C   UNL     1      21.079  15.930  -3.425  0.00  0.00    +0.105 C 
ATOM     21  C   UNL     1      22.857  13.988  -1.716  0.00  0.00    +0.045 C 
ENDBRANCH  11  13
ENDBRANCH   7   9
ENDBRANCH   6   7
ENDBRANCH   5   6
ENDBRANCH   1   5
BRANCH   2  22
ATOM     22  C   UNL     1      28.948  14.588   0.491  0.00  0.00    +0.152 C 
BRANCH  22  23
ATOM     23  C   UNL     1      30.047  13.850   1.283  0.00  0.00    +0.193 C 
ATOM     24  O   UNL     1      30.286  12.601   0.597  0.00  0.00    -0.219 OA
BRANCH  23  25
ATOM     25  C   UNL     1      31.437  14.516   1.368  0.00  0.00    +0.212 C 
ATOM     26  O   UNL     1      31.426  15.580   2.333  0.00  0.00    -0.218 OA
BRANCH  25  27
ATOM     27  C   UNL     1      32.591  13.509   1.742  0.00  0.00    +0.171 C 
ATOM     28  O   UNL     1      33.043  13.667   3.083  0.00  0.00    -0.343 OA
ATOM     29  C   UNL     1      34.202  13.083   3.598  0.00  0.00    +0.220 C 
ATOM     30  C   UNL     1      35.423  13.350   2.700  0.00  0.00    +0.076 C 
ATOM     31  C   UNL     1      35.054  12.908   1.274  0.00  0.00    +0.177 C 
ATOM     32  O   UNL     1      36.164  13.097   0.409  0.00  0.00    -0.221 OA
ATOM     33  C   UNL     1      33.804  13.697   0.774  0.00  0.00    +0.155 C 
BRANCH  33  34
ATOM     34  N   UNL     1      33.454  13.285  -0.583  0.00  0.00    -0.202 NA
ATOM     35  C   UNL     1      33.305  14.032  -1.706  0.00  0.00    +0.242 C 
ATOM     36  C   UNL     1      33.231  13.323  -3.033  0.00  0.00    +0.096 C 
ATOM     37  O   UNL     1      33.237  15.256  -1.616  0.00  0.00    -0.273 OA
ENDBRANCH  33  34
BRANCH  29  38
ATOM     38  C   UNL     1      34.039  11.501   3.928  0.00  0.00    +0.391 C 
ATOM     39  O   UNL     1      35.297  11.022   3.966  0.00  0.00    -0.243 OA
ATOM     40  O   UNL     1      32.772  11.336   4.329  0.00  0.00    -0.243 OA
ENDBRANCH  29  38
ENDBRANCH  25  27
ENDBRANCH  23  25
ENDBRANCH  22  23
ENDBRANCH   2  22
TORSDOF 11
