REMARK VINA RESULT:    -7.113      0.000      0.000
REMARK INTER + INTRA:         -13.498
REMARK INTER:                 -11.581
REMARK INTRA:                  -1.917
REMARK UNBOUND:                -1.188
REMARK  Name = lig_assembled_35.pdb
REMARK  14 active torsions:
REMARK  status: ('A' for Active; 'I' for Inactive)
REMARK    1  A    between atoms: _2  and  _8
REMARK    2  A    between atoms: _4  and  _8
REMARK    3  A    between atoms: _4  and  _10
REMARK    4  A    between atoms: _5  and  _6
REMARK    5  A    between atoms: _5  and  _12
REMARK    6  A    between atoms: _8  and  _9
REMARK    7  A    between atoms: _12  and  _14
REMARK    8  A    between atoms: _13  and  _18
REMARK    9  A    between atoms: _14  and  _17
REMARK   10  A    between atoms: _22  and  _32
REMARK   11  A    between atoms: _24  and  _25
REMARK   12  A    between atoms: _26  and  _28
REMARK   13  A    between atoms: _28  and  _30
REMARK   14  A    between atoms: _30  and  _32
REMARK                            x       y       z     vdW  Elec       q    Type
REMARK                         _______ _______ _______ _____ _____    ______ ____
ROOT
ATOM      1  C   UNL     1      28.554  14.859  -0.397  0.00  0.00    +0.152 C 
ENDROOT
BRANCH   1   3
ATOM      2  C   UNL     1      27.867  17.399  -1.116  0.00  0.00    +0.400 C 
ATOM      3  N   UNL     1      28.287  16.294  -0.414  0.00  0.00    -0.278 N 
ATOM      4  H   UNL     1      28.497  16.685   0.559  0.00  0.00    +0.152 HD
ATOM      5  O   UNL     1      27.662  18.438  -0.494  0.00  0.00    -0.226 OA
BRANCH   2   6
ATOM      6  O   UNL     1      27.757  17.241  -2.394  0.00  0.00    -0.450 OA
BRANCH   6   7
ATOM      7  C   UNL     1      26.813  17.451  -3.419  0.00  0.00    +0.240 C 
BRANCH   7   8
ATOM      8  C   UNL     1      26.305  16.213  -4.182  0.00  0.00    +0.100 C 
BRANCH   8  10
ATOM      9  N   UNL     1      25.873  14.327  -2.640  0.00  0.00    -0.134 NA
ATOM     10  C   UNL     1      25.406  15.417  -3.325  0.00  0.00    +0.086 A 
ATOM     11  C   UNL     1      24.064  15.573  -3.060  0.00  0.00    +0.134 A 
ATOM     12  N   UNL     1      23.777  14.557  -2.198  0.00  0.00    -0.238 N 
ATOM     13  N   UNL     1      24.862  13.798  -1.966  0.00  0.00    -0.065 NA
BRANCH  12  14
ATOM     14  C   UNL     1      22.519  14.202  -1.569  0.00  0.00    +0.214 C 
ATOM     15  C   UNL     1      21.336  14.670  -2.413  0.00  0.00    +0.045 C 
BRANCH  14  16
ATOM     16  C   UNL     1      22.451  12.720  -1.262  0.00  0.00    +0.329 C 
ATOM     17  O   UNL     1      22.320  12.252  -0.139  0.00  0.00    -0.249 OA
BRANCH  16  18
ATOM     18  O   UNL     1      22.575  11.917  -2.348  0.00  0.00    -0.479 OA
ATOM     19  H   UNL     1      23.446  11.938  -2.795  0.00  0.00    +0.295 HD
ENDBRANCH  16  18
ENDBRANCH  14  16
ENDBRANCH  12  14
ENDBRANCH   8  10
ENDBRANCH   7   8
ENDBRANCH   6   7
ENDBRANCH   2   6
ENDBRANCH   1   3
BRANCH   1  20
ATOM     20  C   UNL     1      29.566  14.368   0.660  0.00  0.00    +0.193 C 
ATOM     21  O   UNL     1      29.727  12.948   0.452  0.00  0.00    -0.219 OA
BRANCH  20  22
ATOM     22  C   UNL     1      31.001  14.934   0.592  0.00  0.00    +0.212 C 
ATOM     23  O   UNL     1      31.035  16.279   1.095  0.00  0.00    -0.218 OA
BRANCH  22  24
ATOM     24  C   UNL     1      32.051  14.070   1.392  0.00  0.00    +0.171 C 
ATOM     25  O   UNL     1      32.398  14.652   2.644  0.00  0.00    -0.343 OA
ATOM     26  C   UNL     1      33.470  14.235   3.437  0.00  0.00    +0.220 C 
ATOM     27  C   UNL     1      34.776  14.145   2.628  0.00  0.00    +0.076 C 
ATOM     28  C   UNL     1      34.500  13.265   1.398  0.00  0.00    +0.177 C 
ATOM     29  O   UNL     1      35.689  13.116   0.635  0.00  0.00    -0.221 OA
ATOM     30  C   UNL     1      33.351  13.883   0.542  0.00  0.00    +0.155 C 
BRANCH  30  31
ATOM     31  N   UNL     1      33.089  13.054  -0.631  0.00  0.00    -0.202 NA
ATOM     32  C   UNL     1      33.134  13.376  -1.949  0.00  0.00    +0.242 C 
ATOM     33  C   UNL     1      33.110  12.259  -2.959  0.00  0.00    +0.096 C 
ATOM     34  O   UNL     1      33.193  14.557  -2.284  0.00  0.00    -0.273 OA
ENDBRANCH  30  31
BRANCH  26  35
ATOM     35  C   UNL     1      33.176  12.860   4.251  0.00  0.00    +0.391 C 
ATOM     36  O   UNL     1      34.370  12.492   4.753  0.00  0.00    -0.243 OA
ATOM     37  O   UNL     1      31.845  12.778   4.369  0.00  0.00    -0.243 OA
ENDBRANCH  26  35
ENDBRANCH  22  24
ENDBRANCH  20  22
ENDBRANCH   1  20
TORSDOF 13
