REMARK VINA RESULT:    -7.163      0.000      0.000
REMARK INTER + INTRA:         -13.314
REMARK INTER:                 -11.873
REMARK INTRA:                  -1.441
REMARK UNBOUND:                -1.545
REMARK  Name = lig_assembled_48.pdb
REMARK  11 active torsions:
REMARK  status: ('A' for Active; 'I' for Inactive)
REMARK    1  A    between atoms: _2  and  _8
REMARK    2  A    between atoms: _5  and  _6
REMARK    3  A    between atoms: _5  and  _13
REMARK    4  A    between atoms: _13  and  _15
REMARK    5  A    between atoms: _14  and  _19
REMARK    6  A    between atoms: _15  and  _18
REMARK    7  A    between atoms: _23  and  _33
REMARK    8  A    between atoms: _25  and  _26
REMARK    9  A    between atoms: _27  and  _29
REMARK   10  A    between atoms: _29  and  _31
REMARK   11  A    between atoms: _31  and  _33
REMARK                            x       y       z     vdW  Elec       q    Type
REMARK                         _______ _______ _______ _____ _____    ______ ____
ROOT
ATOM      1  C   UNL     1      28.551  14.481   0.231  0.00  0.00    +0.152 C 
ENDROOT
BRANCH   1   3
ATOM      2  C   UNL     1      28.069  17.009  -0.676  0.00  0.00    +0.400 C 
ATOM      3  N   UNL     1      28.435  15.931   0.094  0.00  0.00    -0.278 N 
ATOM      4  H   UNL     1      28.775  16.380   1.003  0.00  0.00    +0.152 HD
ATOM      5  O   UNL     1      28.033  18.116  -0.144  0.00  0.00    -0.226 OA
BRANCH   2   6
ATOM      6  O   UNL     1      27.824  16.751  -1.919  0.00  0.00    -0.450 OA
BRANCH   6   7
ATOM      7  C   UNL     1      26.720  16.541  -2.769  0.00  0.00    +0.240 C 
BRANCH   7   8
ATOM      8  C   UNL     1      26.502  15.115  -3.310  0.00  0.00    +0.100 C 
BRANCH   8  10
ATOM      9  N   UNL     1      24.139  15.516  -2.710  0.00  0.00    -0.134 NA
ATOM     10  C   UNL     1      25.158  14.635  -2.944  0.00  0.00    +0.086 A 
ATOM     11  C   UNL     1      24.683  13.350  -2.801  0.00  0.00    +0.134 A 
ATOM     12  N   UNL     1      23.348  13.509  -2.573  0.00  0.00    -0.248 N 
ATOM     13  N   UNL     1      23.044  14.818  -2.445  0.00  0.00    -0.065 NA
BRANCH  12  14
ATOM     14  C   UNL     1      22.270  12.529  -2.512  0.00  0.00    +0.109 C 
ATOM     15  C   UNL     1      22.599  11.404  -1.513  0.00  0.00    +0.027 C 
ATOM     16  C   UNL     1      22.511  11.895  -0.069  0.00  0.00    +0.002 C 
ATOM     17  C   UNL     1      21.112  12.411   0.244  0.00  0.00    +0.000 C 
ATOM     18  C   UNL     1      20.650  13.483  -0.741  0.00  0.00    +0.002 C 
ATOM     19  C   UNL     1      20.867  13.093  -2.208  0.00  0.00    +0.027 C 
ENDBRANCH  12  14
ENDBRANCH   8  10
ENDBRANCH   7   8
ENDBRANCH   6   7
ENDBRANCH   2   6
ENDBRANCH   1   3
BRANCH   1  20
ATOM     20  C   UNL     1      29.699  13.973   1.127  0.00  0.00    +0.193 C 
ATOM     21  O   UNL     1      29.893  12.579   0.802  0.00  0.00    -0.219 OA
BRANCH  20  22
ATOM     22  C   UNL     1      31.092  14.611   0.936  0.00  0.00    +0.212 C 
ATOM     23  O   UNL     1      31.091  15.968   1.409  0.00  0.00    -0.218 OA
BRANCH  22  24
ATOM     24  C   UNL     1      32.245  13.824   1.667  0.00  0.00    +0.171 C 
ATOM     25  O   UNL     1      32.611  14.416   2.909  0.00  0.00    -0.343 OA
ATOM     26  C   UNL     1      33.752  14.074   3.639  0.00  0.00    +0.220 C 
ATOM     27  C   UNL     1      35.017  14.097   2.765  0.00  0.00    +0.076 C 
ATOM     28  C   UNL     1      34.747  13.213   1.536  0.00  0.00    +0.177 C 
ATOM     29  O   UNL     1      35.902  13.168   0.711  0.00  0.00    -0.221 OA
ATOM     30  C   UNL     1      33.510  13.750   0.750  0.00  0.00    +0.155 C 
BRANCH  30  31
ATOM     31  N   UNL     1      33.253  12.917  -0.422  0.00  0.00    -0.202 NA
ATOM     32  C   UNL     1      33.159  13.265  -1.731  0.00  0.00    +0.242 C 
ATOM     33  C   UNL     1      33.182  12.171  -2.766  0.00  0.00    +0.096 C 
ATOM     34  O   UNL     1      33.058  14.451  -2.038  0.00  0.00    -0.273 OA
ENDBRANCH  30  31
BRANCH  26  35
ATOM     35  C   UNL     1      33.609  12.670   4.445  0.00  0.00    +0.391 C 
ATOM     36  O   UNL     1      34.865  12.349   4.809  0.00  0.00    -0.243 OA
ATOM     37  O   UNL     1      32.303  12.523   4.701  0.00  0.00    -0.243 OA
ENDBRANCH  26  35
ENDBRANCH  22  24
ENDBRANCH  20  22
ENDBRANCH   1  20
TORSDOF 11
