REMARK VINA RESULT:    -6.991      0.000      0.000
REMARK INTER + INTRA:         -15.198
REMARK INTER:                 -13.462
REMARK INTRA:                  -1.736
REMARK UNBOUND:                -2.486
REMARK  Name = lig_assembled_29.pdb
REMARK  16 active torsions:
REMARK  status: ('A' for Active; 'I' for Inactive)
REMARK    1  A    between atoms: _2  and  _8
REMARK    2  A    between atoms: _5  and  _6
REMARK    3  A    between atoms: _5  and  _18
REMARK    4  A    between atoms: _8  and  _9
REMARK    5  A    between atoms: _11  and  _17
REMARK    6  A    between atoms: _12  and  _17
REMARK    7  A    between atoms: _13  and  _16
REMARK    8  A    between atoms: _14  and  _16
REMARK    9  A    between atoms: _18  and  _20
REMARK   10  A    between atoms: _19  and  _24
REMARK   11  A    between atoms: _20  and  _23
REMARK   12  A    between atoms: _28  and  _38
REMARK   13  A    between atoms: _30  and  _31
REMARK   14  A    between atoms: _32  and  _34
REMARK   15  A    between atoms: _34  and  _36
REMARK   16  A    between atoms: _36  and  _38
REMARK                            x       y       z     vdW  Elec       q    Type
REMARK                         _______ _______ _______ _____ _____    ______ ____
ROOT
ATOM      1  C   UNL     1      28.017  17.266  -1.137  0.00  0.00    +0.400 C 
ATOM      2  N   UNL     1      28.443  16.381  -0.175  0.00  0.00    -0.278 N 
ATOM      3  H   UNL     1      28.922  17.010   0.545  0.00  0.00    +0.152 HD
ATOM      4  O   UNL     1      28.097  18.468  -0.895  0.00  0.00    -0.226 OA
ENDROOT
BRANCH   2   5
ATOM      5  C   UNL     1      28.520  15.002   0.300  0.00  0.00    +0.152 C 
BRANCH   5   6
ATOM      6  C   UNL     1      29.848  14.264   0.031  0.00  0.00    +0.193 C 
ATOM      7  O   UNL     1      29.943  14.089  -1.400  0.00  0.00    -0.219 OA
BRANCH   6   8
ATOM      8  C   UNL     1      31.158  14.984   0.419  0.00  0.00    +0.212 C 
ATOM      9  O   UNL     1      30.873  16.165   1.186  0.00  0.00    -0.218 OA
BRANCH   8  10
ATOM     10  C   UNL     1      32.150  14.076   1.242  0.00  0.00    +0.171 C 
ATOM     11  O   UNL     1      32.461  14.622   2.519  0.00  0.00    -0.343 OA
ATOM     12  C   UNL     1      33.487  14.159   3.346  0.00  0.00    +0.220 C 
ATOM     13  C   UNL     1      34.823  14.049   2.590  0.00  0.00    +0.076 C 
ATOM     14  C   UNL     1      34.573  13.203   1.331  0.00  0.00    +0.177 C 
ATOM     15  O   UNL     1      35.788  13.036   0.614  0.00  0.00    -0.221 OA
ATOM     16  C   UNL     1      33.478  13.870   0.442  0.00  0.00    +0.155 C 
BRANCH  16  17
ATOM     17  N   UNL     1      33.243  13.072  -0.758  0.00  0.00    -0.202 NA
ATOM     18  C   UNL     1      33.292  13.435  -2.065  0.00  0.00    +0.242 C 
ATOM     19  C   UNL     1      33.298  12.350  -3.110  0.00  0.00    +0.096 C 
ATOM     20  O   UNL     1      33.331  14.627  -2.363  0.00  0.00    -0.273 OA
ENDBRANCH  16  17
BRANCH  12  21
ATOM     21  C   UNL     1      33.123  12.777   4.118  0.00  0.00    +0.391 C 
ATOM     22  O   UNL     1      34.296  12.334   4.610  0.00  0.00    -0.243 OA
ATOM     23  O   UNL     1      31.789  12.758   4.232  0.00  0.00    -0.243 OA
ENDBRANCH  12  21
ENDBRANCH   8  10
ENDBRANCH   6   8
ENDBRANCH   5   6
ENDBRANCH   2   5
BRANCH   1  24
ATOM     24  O   UNL     1      27.594  16.736  -2.237  0.00  0.00    -0.450 OA
BRANCH  24  25
ATOM     25  C   UNL     1      26.780  17.067  -3.338  0.00  0.00    +0.240 C 
BRANCH  25  26
ATOM     26  C   UNL     1      26.418  15.936  -4.320  0.00  0.00    +0.100 C 
BRANCH  26  28
ATOM     27  N   UNL     1      24.409  14.649  -4.999  0.00  0.00    -0.134 NA
ATOM     28  C   UNL     1      25.016  15.517  -4.130  0.00  0.00    +0.086 A 
ATOM     29  C   UNL     1      24.129  15.851  -3.133  0.00  0.00    +0.134 A 
ATOM     30  N   UNL     1      23.033  15.082  -3.399  0.00  0.00    -0.247 N 
ATOM     31  N   UNL     1      23.187  14.396  -4.546  0.00  0.00    -0.065 NA
BRANCH  30  32
ATOM     32  C   UNL     1      21.840  14.912  -2.591  0.00  0.00    +0.180 C 
BRANCH  32  33
ATOM     33  C   UNL     1      22.004  13.760  -1.627  0.00  0.00    -0.022 A 
ATOM     34  C   UNL     1      23.286  13.262  -1.332  0.00  0.00    +0.054 A 
ATOM     35  C   UNL     1      23.459  12.246  -0.380  0.00  0.00    +0.162 A 
ATOM     36  C   UNL     1      22.335  11.713   0.282  0.00  0.00    +0.162 A 
ATOM     37  C   UNL     1      21.062  12.210  -0.014  0.00  0.00    +0.050 A 
ATOM     38  C   UNL     1      20.897  13.224  -0.962  0.00  0.00    +0.009 A 
BRANCH  36  39
ATOM     39  O   UNL     1      22.585  10.718   1.195  0.00  0.00    -0.491 OA
ATOM     40  C   UNL     1      22.032  10.860   2.495  0.00  0.00    +0.277 C 
ENDBRANCH  36  39
BRANCH  35  41
ATOM     41  O   UNL     1      24.676  11.722  -0.022  0.00  0.00    -0.491 OA
ATOM     42  C   UNL     1      25.839  12.484  -0.315  0.00  0.00    +0.277 C 
ENDBRANCH  35  41
ENDBRANCH  32  33
ENDBRANCH  30  32
ENDBRANCH  26  28
ENDBRANCH  25  26
ENDBRANCH  24  25
ENDBRANCH   1  24
TORSDOF 14
