REMARK VINA RESULT:    -7.533      0.000      0.000
REMARK INTER + INTRA:         -14.770
REMARK INTER:                 -13.369
REMARK INTRA:                  -1.401
REMARK UNBOUND:                -1.952
REMARK  Name = lig_assembled_44.pdb
REMARK  12 active torsions:
REMARK  status: ('A' for Active; 'I' for Inactive)
REMARK    1  A    between atoms: _2  and  _8
REMARK    2  A    between atoms: _5  and  _6
REMARK    3  A    between atoms: _5  and  _14
REMARK    4  A    between atoms: _8  and  _9
REMARK    5  A    between atoms: _14  and  _16
REMARK    6  A    between atoms: _15  and  _20
REMARK    7  A    between atoms: _16  and  _19
REMARK    8  A    between atoms: _24  and  _34
REMARK    9  A    between atoms: _26  and  _27
REMARK   10  A    between atoms: _28  and  _30
REMARK   11  A    between atoms: _30  and  _32
REMARK   12  A    between atoms: _32  and  _34
REMARK                            x       y       z     vdW  Elec       q    Type
REMARK                         _______ _______ _______ _____ _____    ______ ____
ROOT
ATOM      1  C   UNL     1      27.725  17.489  -1.227  0.00  0.00    +0.400 C 
ATOM      2  N   UNL     1      28.159  16.321  -0.645  0.00  0.00    -0.278 N 
ATOM      3  H   UNL     1      28.364  16.609   0.364  0.00  0.00    +0.152 HD
ATOM      4  O   UNL     1      27.506  18.453  -0.497  0.00  0.00    -0.226 OA
ENDROOT
BRANCH   2   5
ATOM      5  C   UNL     1      28.444  14.895  -0.780  0.00  0.00    +0.152 C 
BRANCH   5   6
ATOM      6  C   UNL     1      29.426  14.298   0.248  0.00  0.00    +0.193 C 
ATOM      7  O   UNL     1      29.557  12.895  -0.069  0.00  0.00    -0.219 OA
BRANCH   6   8
ATOM      8  C   UNL     1      30.876  14.831   0.246  0.00  0.00    +0.212 C 
ATOM      9  O   UNL     1      30.910  16.197   0.691  0.00  0.00    -0.218 OA
BRANCH   8  10
ATOM     10  C   UNL     1      31.854  13.983   1.145  0.00  0.00    +0.171 C 
ATOM     11  O   UNL     1      32.059  14.563   2.429  0.00  0.00    -0.343 OA
ATOM     12  C   UNL     1      33.051  14.161   3.326  0.00  0.00    +0.220 C 
ATOM     13  C   UNL     1      34.435  14.103   2.657  0.00  0.00    +0.076 C 
ATOM     14  C   UNL     1      34.305  13.226   1.401  0.00  0.00    +0.177 C 
ATOM     15  O   UNL     1      35.570  13.106   0.764  0.00  0.00    -0.221 OA
ATOM     16  C   UNL     1      33.239  13.828   0.434  0.00  0.00    +0.155 C 
BRANCH  16  17
ATOM     17  N   UNL     1      33.117  13.002  -0.765  0.00  0.00    -0.202 NA
ATOM     18  C   UNL     1      33.244  13.345  -2.072  0.00  0.00    +0.242 C 
ATOM     19  C   UNL     1      33.363  12.243  -3.092  0.00  0.00    +0.096 C 
ATOM     20  O   UNL     1      33.260  14.532  -2.389  0.00  0.00    -0.273 OA
ENDBRANCH  16  17
BRANCH  12  21
ATOM     21  C   UNL     1      32.703  12.775   4.099  0.00  0.00    +0.391 C 
ATOM     22  O   UNL     1      33.874  12.365   4.624  0.00  0.00    -0.243 OA
ATOM     23  O   UNL     1      31.367  12.722   4.180  0.00  0.00    -0.243 OA
ENDBRANCH  12  21
ENDBRANCH   8  10
ENDBRANCH   6   8
ENDBRANCH   5   6
ENDBRANCH   2   5
BRANCH   1  24
ATOM     24  O   UNL     1      27.617  17.467  -2.515  0.00  0.00    -0.450 OA
BRANCH  24  25
ATOM     25  C   UNL     1      26.621  17.323  -3.501  0.00  0.00    +0.240 C 
BRANCH  25  26
ATOM     26  C   UNL     1      26.445  15.930  -4.135  0.00  0.00    +0.100 C 
BRANCH  26  28
ATOM     27  N   UNL     1      24.484  14.681  -4.993  0.00  0.00    -0.134 NA
ATOM     28  C   UNL     1      25.038  15.495  -4.040  0.00  0.00    +0.086 A 
ATOM     29  C   UNL     1      24.097  15.766  -3.076  0.00  0.00    +0.134 A 
ATOM     30  N   UNL     1      23.016  15.027  -3.456  0.00  0.00    -0.247 N 
ATOM     31  N   UNL     1      23.238  14.409  -4.630  0.00  0.00    -0.065 NA
BRANCH  30  32
ATOM     32  C   UNL     1      21.753  14.860  -2.762  0.00  0.00    +0.180 C 
BRANCH  32  33
ATOM     33  C   UNL     1      21.864  13.843  -1.650  0.00  0.00    -0.026 A 
ATOM     34  C   UNL     1      23.068  13.160  -1.423  0.00  0.00    +0.006 A 
ATOM     35  C   UNL     1      23.163  12.209  -0.404  0.00  0.00    +0.015 A 
ATOM     36  C   UNL     1      22.053  11.937   0.393  0.00  0.00    +0.018 A 
ATOM     37 BR   UNL     1      22.188  10.663   1.783  0.00  0.00    -0.050 Br
ATOM     38  C   UNL     1      20.846  12.597   0.174  0.00  0.00    +0.015 A 
ATOM     39  C   UNL     1      20.751  13.544  -0.849  0.00  0.00    +0.006 A 
ENDBRANCH  32  33
ENDBRANCH  30  32
ENDBRANCH  26  28
ENDBRANCH  25  26
ENDBRANCH  24  25
ENDBRANCH   1  24
TORSDOF 12
