REMARK VINA RESULT:    -7.933      0.000      0.000
REMARK INTER + INTRA:         -14.452
REMARK INTER:                 -12.488
REMARK INTRA:                  -1.964
REMARK UNBOUND:                -1.418
REMARK  Name = lig_assembled_20.pdb
REMARK  11 active torsions:
REMARK  status: ('A' for Active; 'I' for Inactive)
REMARK    1  A    between atoms: _2  and  _10
REMARK    2  A    between atoms: _7  and  _8
REMARK    3  A    between atoms: _7  and  _16
REMARK    4  A    between atoms: _16  and  _18
REMARK    5  A    between atoms: _17  and  _22
REMARK    6  A    between atoms: _18  and  _21
REMARK    7  A    between atoms: _26  and  _36
REMARK    8  A    between atoms: _28  and  _29
REMARK    9  A    between atoms: _30  and  _32
REMARK   10  A    between atoms: _32  and  _34
REMARK   11  A    between atoms: _34  and  _36
REMARK                            x       y       z     vdW  Elec       q    Type
REMARK                         _______ _______ _______ _____ _____    ______ ____
ROOT
ATOM      1  C   UNL     1      27.754  17.414  -1.262  0.00  0.00    +0.400 C 
ATOM      2  N   UNL     1      28.186  16.300  -0.582  0.00  0.00    -0.278 N 
ATOM      3  H   UNL     1      28.440  16.683   0.383  0.00  0.00    +0.152 HD
ATOM      4  O   UNL     1      27.588  18.452  -0.627  0.00  0.00    -0.226 OA
ENDROOT
BRANCH   1   5
ATOM      5  O   UNL     1      27.591  17.264  -2.536  0.00  0.00    -0.450 OA
BRANCH   5   6
ATOM      6  C   UNL     1      26.575  17.381  -3.504  0.00  0.00    +0.240 C 
BRANCH   6   7
ATOM      7  C   UNL     1      26.288  16.151  -4.386  0.00  0.00    +0.100 C 
BRANCH   7   9
ATOM      8  N   UNL     1      26.558  13.832  -3.548  0.00  0.00    -0.134 NA
ATOM      9  C   UNL     1      25.865  15.008  -3.557  0.00  0.00    +0.086 A 
ATOM     10  C   UNL     1      24.789  14.900  -2.708  0.00  0.00    +0.139 A 
ATOM     11  N   UNL     1      24.864  13.626  -2.193  0.00  0.00    -0.220 N 
ATOM     12  N   UNL     1      25.946  12.998  -2.717  0.00  0.00    -0.061 NA
BRANCH  11  13
ATOM     13  C   UNL     1      23.996  12.999  -1.262  0.00  0.00    +0.068 A 
ATOM     14  C   UNL     1      22.606  13.158  -1.386  0.00  0.00    +0.030 A 
ATOM     15  C   UNL     1      21.720  12.549  -0.486  0.00  0.00    +0.030 A 
ATOM     16  C   UNL     1      22.279  11.778   0.538  0.00  0.00    +0.066 A 
ATOM     17  C   UNL     1      23.649  11.603   0.688  0.00  0.00    +0.021 A 
ATOM     18  C   UNL     1      23.779  10.774   1.823  0.00  0.00    +0.142 A 
ATOM     19  N   UNL     1      22.602  10.442   2.357  0.00  0.00    -0.181 NA
ATOM     20  N   UNL     1      21.712  11.061   1.559  0.00  0.00    -0.277 N 
ATOM     21  H   UNL     1      20.726  10.957   1.766  0.00  0.00    +0.189 HD
ATOM     22  C   UNL     1      24.529  12.218  -0.219  0.00  0.00    +0.039 A 
ENDBRANCH  11  13
ENDBRANCH   7   9
ENDBRANCH   6   7
ENDBRANCH   5   6
ENDBRANCH   1   5
BRANCH   2  23
ATOM     23  C   UNL     1      28.434  14.861  -0.582  0.00  0.00    +0.152 C 
BRANCH  23  24
ATOM     24  C   UNL     1      29.449  14.346   0.459  0.00  0.00    +0.193 C 
ATOM     25  O   UNL     1      29.605  12.929   0.223  0.00  0.00    -0.219 OA
BRANCH  24  26
ATOM     26  C   UNL     1      30.887  14.907   0.394  0.00  0.00    +0.212 C 
ATOM     27  O   UNL     1      30.921  16.257   0.887  0.00  0.00    -0.218 OA
BRANCH  26  28
ATOM     28  C   UNL     1      31.930  14.048   1.206  0.00  0.00    +0.171 C 
ATOM     29  O   UNL     1      32.238  14.615   2.475  0.00  0.00    -0.343 OA
ATOM     30  C   UNL     1      33.297  14.201   3.287  0.00  0.00    +0.220 C 
ATOM     31  C   UNL     1      34.623  14.144   2.510  0.00  0.00    +0.076 C 
ATOM     32  C   UNL     1      34.390  13.280   1.260  0.00  0.00    +0.177 C 
ATOM     33  O   UNL     1      35.600  13.161   0.524  0.00  0.00    -0.221 OA
ATOM     34  C   UNL     1      33.253  13.894   0.386  0.00  0.00    +0.155 C 
BRANCH  34  35
ATOM     35  N   UNL     1      33.033  13.079  -0.807  0.00  0.00    -0.202 NA
ATOM     36  C   UNL     1      33.182  13.401  -2.117  0.00  0.00    +0.242 C 
ATOM     37  C   UNL     1      33.174  12.288  -3.132  0.00  0.00    +0.096 C 
ATOM     38  O   UNL     1      33.320  14.579  -2.442  0.00  0.00    -0.273 OA
ENDBRANCH  34  35
BRANCH  30  39
ATOM     39  C   UNL     1      33.005  12.809   4.072  0.00  0.00    +0.391 C 
ATOM     40  O   UNL     1      34.206  12.413   4.536  0.00  0.00    -0.243 OA
ATOM     41  O   UNL     1      31.676  12.740   4.221  0.00  0.00    -0.243 OA
ENDBRANCH  30  39
ENDBRANCH  26  28
ENDBRANCH  24  26
ENDBRANCH  23  24
ENDBRANCH   2  23
TORSDOF 11
