REMARK VINA RESULT:    -8.370      0.000      0.000
REMARK INTER + INTRA:         -15.350
REMARK INTER:                 -13.024
REMARK INTRA:                  -2.326
REMARK UNBOUND:                -1.598
REMARK  Name = lig_assembled_80.pdb
REMARK  11 active torsions:
REMARK  status: ('A' for Active; 'I' for Inactive)
REMARK    1  A    between atoms: _2  and  _9
REMARK    2  A    between atoms: _6  and  _7
REMARK    3  A    between atoms: _6  and  _19
REMARK    4  A    between atoms: _19  and  _21
REMARK    5  A    between atoms: _20  and  _25
REMARK    6  A    between atoms: _21  and  _24
REMARK    7  A    between atoms: _29  and  _39
REMARK    8  A    between atoms: _31  and  _32
REMARK    9  A    between atoms: _33  and  _35
REMARK   10  A    between atoms: _35  and  _37
REMARK   11  A    between atoms: _37  and  _39
REMARK                            x       y       z     vdW  Elec       q    Type
REMARK                         _______ _______ _______ _____ _____    ______ ____
ROOT
ATOM      1  C   UNL     1      28.496  16.854  -0.512  0.00  0.00    +0.400 C 
ATOM      2  N   UNL     1      28.542  15.562  -0.044  0.00  0.00    -0.278 N 
ATOM      3  H   UNL     1      29.060  15.654   0.887  0.00  0.00    +0.152 HD
ATOM      4  O   UNL     1      28.846  17.757   0.245  0.00  0.00    -0.226 OA
ENDROOT
BRANCH   1   5
ATOM      5  O   UNL     1      28.110  16.992  -1.738  0.00  0.00    -0.450 OA
BRANCH   5   6
ATOM      6  C   UNL     1      27.112  17.658  -2.475  0.00  0.00    +0.240 C 
BRANCH   6   7
ATOM      7  C   UNL     1      26.826  17.153  -3.902  0.00  0.00    +0.100 C 
BRANCH   7   9
ATOM      8  N   UNL     1      25.496  15.414  -5.030  0.00  0.00    -0.134 NA
ATOM      9  C   UNL     1      25.924  15.984  -3.864  0.00  0.00    +0.086 A 
ATOM     10  C   UNL     1      25.395  15.298  -2.794  0.00  0.00    +0.134 A 
ATOM     11  N   UNL     1      24.600  14.348  -3.379  0.00  0.00    -0.240 N 
ATOM     12  N   UNL     1      24.696  14.401  -4.725  0.00  0.00    -0.065 NA
BRANCH  11  13
ATOM     13  C   UNL     1      23.855  13.243  -2.767  0.00  0.00    +0.195 C 
ATOM     14  C   UNL     1      24.778  12.516  -1.799  0.00  0.00    +0.041 C 
ATOM     15  C   UNL     1      24.176  11.201  -1.353  0.00  0.00    +0.039 C 
ATOM     16  C   UNL     1      23.253  11.431  -0.195  0.00  0.00    -0.026 A 
ATOM     17  C   UNL     1      22.083  12.184  -0.304  0.00  0.00    +0.037 A 
ATOM     18  C   UNL     1      21.208  12.253   0.793  0.00  0.00    +0.023 A 
ATOM     19  C   UNL     1      21.545  11.684   2.020  0.00  0.00    +0.002 A 
ATOM     20  C   UNL     1      22.745  10.999   2.152  0.00  0.00    +0.000 A 
ATOM     21  N   UNL     1      21.715  12.972  -1.408  0.00  0.00    -0.284 N 
ATOM     22  H   UNL     1      20.813  13.429  -1.320  0.00  0.00    +0.155 HD
ATOM     23  C   UNL     1      23.579  10.850   1.046  0.00  0.00    +0.005 A 
ATOM     24  C   UNL     1      22.494  13.703  -2.258  0.00  0.00    +0.242 C 
ATOM     25  O   UNL     1      21.962  14.736  -2.684  0.00  0.00    -0.273 OA
ENDBRANCH  11  13
ENDBRANCH   7   9
ENDBRANCH   6   7
ENDBRANCH   5   6
ENDBRANCH   1   5
BRANCH   2  26
ATOM     26  C   UNL     1      28.197  14.156  -0.236  0.00  0.00    +0.152 C 
BRANCH  26  27
ATOM     27  C   UNL     1      27.906  13.346   1.044  0.00  0.00    +0.193 C 
ATOM     28  O   UNL     1      28.383  12.004   0.804  0.00  0.00    -0.219 OA
BRANCH  27  29
ATOM     29  C   UNL     1      28.618  13.782   2.343  0.00  0.00    +0.212 C 
ATOM     30  O   UNL     1      27.661  13.998   3.392  0.00  0.00    -0.218 OA
BRANCH  29  31
ATOM     31  C   UNL     1      29.690  12.741   2.846  0.00  0.00    +0.171 C 
ATOM     32  O   UNL     1      29.455  12.316   4.185  0.00  0.00    -0.343 OA
ATOM     33  C   UNL     1      30.371  11.597   4.956  0.00  0.00    +0.220 C 
ATOM     34  C   UNL     1      31.761  12.257   4.954  0.00  0.00    +0.076 C 
ATOM     35  C   UNL     1      32.172  12.465   3.487  0.00  0.00    +0.177 C 
ATOM     36  O   UNL     1      33.471  13.038   3.427  0.00  0.00    -0.221 OA
ATOM     37  C   UNL     1      31.123  13.361   2.756  0.00  0.00    +0.155 C 
BRANCH  37  38
ATOM     38  N   UNL     1      31.514  13.566   1.364  0.00  0.00    -0.202 NA
ATOM     39  C   UNL     1      31.708  14.722   0.679  0.00  0.00    +0.242 C 
ATOM     40  C   UNL     1      32.393  14.653  -0.661  0.00  0.00    +0.096 C 
ATOM     41  O   UNL     1      31.326  15.786   1.162  0.00  0.00    -0.273 OA
ENDBRANCH  37  38
BRANCH  33  42
ATOM     42  C   UNL     1      30.457  10.024   4.559  0.00  0.00    +0.391 C 
ATOM     43  O   UNL     1      31.563   9.569   5.178  0.00  0.00    -0.243 OA
ATOM     44  O   UNL     1      29.266   9.710   4.034  0.00  0.00    -0.243 OA
ENDBRANCH  33  42
ENDBRANCH  29  31
ENDBRANCH  27  29
ENDBRANCH  26  27
ENDBRANCH   2  26
TORSDOF 11
