REMARK VINA RESULT:    -7.709      0.000      0.000
REMARK INTER + INTRA:         -14.800
REMARK INTER:                 -12.727
REMARK INTRA:                  -2.073
REMARK UNBOUND:                -2.133
REMARK  Name = lig_assembled_7.pdb
REMARK  14 active torsions:
REMARK  status: ('A' for Active; 'I' for Inactive)
REMARK    1  A    between atoms: _2  and  _8
REMARK    2  A    between atoms: _4  and  _15
REMARK    3  A    between atoms: _5  and  _6
REMARK    4  A    between atoms: _5  and  _16
REMARK    5  A    between atoms: _9  and  _10
REMARK    6  A    between atoms: _12  and  _13
REMARK    7  A    between atoms: _16  and  _18
REMARK    8  A    between atoms: _17  and  _22
REMARK    9  A    between atoms: _18  and  _21
REMARK   10  A    between atoms: _26  and  _36
REMARK   11  A    between atoms: _28  and  _29
REMARK   12  A    between atoms: _30  and  _32
REMARK   13  A    between atoms: _32  and  _34
REMARK   14  A    between atoms: _34  and  _36
REMARK                            x       y       z     vdW  Elec       q    Type
REMARK                         _______ _______ _______ _____ _____    ______ ____
ROOT
ATOM      1  C   UNL     1      27.747  17.468  -1.259  0.00  0.00    +0.400 C 
ATOM      2  N   UNL     1      28.253  16.336  -0.666  0.00  0.00    -0.278 N 
ATOM      3  H   UNL     1      28.506  16.664   0.319  0.00  0.00    +0.152 HD
ATOM      4  O   UNL     1      27.539  18.450  -0.551  0.00  0.00    -0.226 OA
ENDROOT
BRANCH   1   5
ATOM      5  O   UNL     1      27.566  17.397  -2.537  0.00  0.00    -0.450 OA
BRANCH   5   6
ATOM      6  C   UNL     1      26.508  17.360  -3.465  0.00  0.00    +0.240 C 
BRANCH   6   7
ATOM      7  C   UNL     1      26.434  16.145  -4.411  0.00  0.00    +0.100 C 
BRANCH   7   9
ATOM      8  N   UNL     1      25.883  13.747  -4.266  0.00  0.00    -0.134 NA
ATOM      9  C   UNL     1      25.848  14.988  -3.711  0.00  0.00    +0.086 A 
ATOM     10  C   UNL     1      25.219  14.908  -2.482  0.00  0.00    +0.139 A 
ATOM     11  N   UNL     1      24.839  13.589  -2.351  0.00  0.00    -0.219 N 
ATOM     12  N   UNL     1      25.300  12.905  -3.429  0.00  0.00    -0.061 NA
BRANCH  11  13
ATOM     13  C   UNL     1      24.103  12.950  -1.301  0.00  0.00    +0.073 A 
ATOM     14  C   UNL     1      22.679  13.044  -1.288  0.00  0.00    -0.024 A 
ATOM     15  C   UNL     1      21.945  12.416  -0.258  0.00  0.00    +0.008 A 
ATOM     16  C   UNL     1      22.577  11.694   0.750  0.00  0.00    -0.050 A 
ATOM     17  C   UNL     1      21.767  11.038   1.828  0.00  0.00    +0.044 C 
ATOM     18  C   UNL     1      23.966  11.603   0.732  0.00  0.00    +0.008 A 
ATOM     19  C   UNL     1      21.855  13.741  -2.349  0.00  0.00    +0.046 C 
ATOM     20  C   UNL     1      24.751  12.234  -0.261  0.00  0.00    -0.024 A 
ATOM     21  C   UNL     1      26.236  12.117  -0.025  0.00  0.00    +0.046 C 
ENDBRANCH  11  13
ENDBRANCH   7   9
ENDBRANCH   6   7
ENDBRANCH   5   6
ENDBRANCH   1   5
BRANCH   2  22
ATOM     22  C   UNL     1      28.577  14.915  -0.770  0.00  0.00    +0.152 C 
BRANCH  22  23
ATOM     23  C   UNL     1      29.544  14.359   0.296  0.00  0.00    +0.193 C 
ATOM     24  O   UNL     1      29.747  12.963  -0.016  0.00  0.00    -0.219 OA
BRANCH  23  25
ATOM     25  C   UNL     1      30.969  14.954   0.349  0.00  0.00    +0.212 C 
ATOM     26  O   UNL     1      30.939  16.279   0.904  0.00  0.00    -0.218 OA
BRANCH  25  27
ATOM     27  C   UNL     1      31.980  14.079   1.184  0.00  0.00    +0.171 C 
ATOM     28  O   UNL     1      32.278  14.650   2.454  0.00  0.00    -0.343 OA
ATOM     29  C   UNL     1      33.314  14.221   3.288  0.00  0.00    +0.220 C 
ATOM     30  C   UNL     1      34.652  14.130   2.534  0.00  0.00    +0.076 C 
ATOM     31  C   UNL     1      34.422  13.260   1.287  0.00  0.00    +0.177 C 
ATOM     32  O   UNL     1      35.641  13.110   0.573  0.00  0.00    -0.221 OA
ATOM     33  C   UNL     1      33.313  13.891   0.389  0.00  0.00    +0.155 C 
BRANCH  33  34
ATOM     34  N   UNL     1      33.096  13.071  -0.801  0.00  0.00    -0.202 NA
ATOM     35  C   UNL     1      33.201  13.401  -2.113  0.00  0.00    +0.242 C 
ATOM     36  C   UNL     1      33.212  12.291  -3.132  0.00  0.00    +0.096 C 
ATOM     37  O   UNL     1      33.285  14.584  -2.437  0.00  0.00    -0.273 OA
ENDBRANCH  33  34
BRANCH  29  38
ATOM     38  C   UNL     1      32.979  12.842   4.079  0.00  0.00    +0.391 C 
ATOM     39  O   UNL     1      34.154  12.453   4.610  0.00  0.00    -0.243 OA
ATOM     40  O   UNL     1      31.644  12.777   4.159  0.00  0.00    -0.243 OA
ENDBRANCH  29  38
ENDBRANCH  25  27
ENDBRANCH  23  25
ENDBRANCH  22  23
ENDBRANCH   2  22
TORSDOF 11
