REMARK VINA RESULT:    -6.877      0.000      0.000
REMARK INTER + INTRA:         -13.541
REMARK INTER:                 -12.185
REMARK INTRA:                  -1.357
REMARK UNBOUND:                -1.839
REMARK  Name = lig_assembled_61.pdb
REMARK  12 active torsions:
REMARK  status: ('A' for Active; 'I' for Inactive)
REMARK    1  A    between atoms: _2  and  _8
REMARK    2  A    between atoms: _5  and  _6
REMARK    3  A    between atoms: _5  and  _12
REMARK    4  A    between atoms: _8  and  _9
REMARK    5  A    between atoms: _12  and  _14
REMARK    6  A    between atoms: _13  and  _18
REMARK    7  A    between atoms: _14  and  _17
REMARK    8  A    between atoms: _22  and  _32
REMARK    9  A    between atoms: _24  and  _25
REMARK   10  A    between atoms: _26  and  _28
REMARK   11  A    between atoms: _28  and  _30
REMARK   12  A    between atoms: _30  and  _32
REMARK                            x       y       z     vdW  Elec       q    Type
REMARK                         _______ _______ _______ _____ _____    ______ ____
ROOT
ATOM      1  C   UNL     1      28.605  14.863   0.298  0.00  0.00    +0.152 C 
ENDROOT
BRANCH   1   3
ATOM      2  C   UNL     1      28.171  17.250  -0.949  0.00  0.00    +0.400 C 
ATOM      3  N   UNL     1      28.563  16.278  -0.060  0.00  0.00    -0.278 N 
ATOM      4  H   UNL     1      29.043  16.833   0.717  0.00  0.00    +0.152 HD
ATOM      5  O   UNL     1      28.272  18.425  -0.605  0.00  0.00    -0.226 OA
BRANCH   2   6
ATOM      6  O   UNL     1      27.754  16.824  -2.096  0.00  0.00    -0.450 OA
BRANCH   6   7
ATOM      7  C   UNL     1      26.839  17.189  -3.103  0.00  0.00    +0.240 C 
BRANCH   7   8
ATOM      8  C   UNL     1      26.542  16.152  -4.204  0.00  0.00    +0.100 C 
BRANCH   8  10
ATOM      9  N   UNL     1      24.673  14.711  -4.947  0.00  0.00    -0.134 NA
ATOM     10  C   UNL     1      25.186  15.598  -4.036  0.00  0.00    +0.086 A 
ATOM     11  C   UNL     1      24.252  15.821  -3.047  0.00  0.00    +0.134 A 
ATOM     12  N   UNL     1      23.174  15.088  -3.446  0.00  0.00    -0.247 N 
ATOM     13  N   UNL     1      23.444  14.389  -4.564  0.00  0.00    -0.065 NA
BRANCH  12  14
ATOM     14  C   UNL     1      21.878  14.973  -2.801  0.00  0.00    +0.180 C 
BRANCH  14  15
ATOM     15  C   UNL     1      21.868  13.885  -1.762  0.00  0.00    -0.019 A 
ATOM     16  C   UNL     1      20.712  13.497  -1.001  0.00  0.00    +0.013 A 
ATOM     17  C   UNL     1      20.985  12.501  -0.088  0.00  0.00    +0.045 A 
ATOM     18  S   UNL     1      22.620  12.013  -0.142  0.00  0.00    -0.105 S 
ATOM     19  C   UNL     1      22.971  13.141  -1.377  0.00  0.00    +0.050 A 
ENDBRANCH  14  15
ENDBRANCH  12  14
ENDBRANCH   8  10
ENDBRANCH   7   8
ENDBRANCH   6   7
ENDBRANCH   2   6
ENDBRANCH   1   3
BRANCH   1  20
ATOM     20  C   UNL     1      29.948  14.141   0.063  0.00  0.00    +0.193 C 
ATOM     21  O   UNL     1      30.071  13.948  -1.363  0.00  0.00    -0.219 OA
BRANCH  20  22
ATOM     22  C   UNL     1      31.240  14.887   0.464  0.00  0.00    +0.212 C 
ATOM     23  O   UNL     1      30.929  16.021   1.290  0.00  0.00    -0.218 OA
BRANCH  22  24
ATOM     24  C   UNL     1      32.275  13.976   1.229  0.00  0.00    +0.171 C 
ATOM     25  O   UNL     1      32.603  14.484   2.518  0.00  0.00    -0.343 OA
ATOM     26  C   UNL     1      33.662  14.018   3.302  0.00  0.00    +0.220 C 
ATOM     27  C   UNL     1      34.980  13.972   2.510  0.00  0.00    +0.076 C 
ATOM     28  C   UNL     1      34.722  13.165   1.227  0.00  0.00    +0.177 C 
ATOM     29  O   UNL     1      35.922  13.058   0.476  0.00  0.00    -0.221 OA
ATOM     30  C   UNL     1      33.587  13.835   0.391  0.00  0.00    +0.155 C 
BRANCH  30  31
ATOM     31  N   UNL     1      33.343  13.076  -0.833  0.00  0.00    -0.202 NA
ATOM     32  C   UNL     1      33.360  13.486  -2.127  0.00  0.00    +0.242 C 
ATOM     33  C   UNL     1      33.366  12.438  -3.209  0.00  0.00    +0.096 C 
ATOM     34  O   UNL     1      33.372  14.688  -2.383  0.00  0.00    -0.273 OA
ENDBRANCH  30  31
BRANCH  26  35
ATOM     35  C   UNL     1      33.352  12.600   4.030  0.00  0.00    +0.391 C 
ATOM     36  O   UNL     1      34.552  12.159   4.456  0.00  0.00    -0.243 OA
ATOM     37  O   UNL     1      32.025  12.551   4.197  0.00  0.00    -0.243 OA
ENDBRANCH  26  35
ENDBRANCH  22  24
ENDBRANCH  20  22
ENDBRANCH   1  20
TORSDOF 12
