REMARK VINA RESULT:    -7.458      0.000      0.000
REMARK INTER + INTRA:         -13.943
REMARK INTER:                 -12.446
REMARK INTRA:                  -1.497
REMARK UNBOUND:                -1.689
REMARK  Name = lig_assembled_49.pdb
REMARK  11 active torsions:
REMARK  status: ('A' for Active; 'I' for Inactive)
REMARK    1  A    between atoms: _2  and  _8
REMARK    2  A    between atoms: _5  and  _6
REMARK    3  A    between atoms: _5  and  _12
REMARK    4  A    between atoms: _12  and  _14
REMARK    5  A    between atoms: _13  and  _18
REMARK    6  A    between atoms: _14  and  _17
REMARK    7  A    between atoms: _22  and  _32
REMARK    8  A    between atoms: _24  and  _25
REMARK    9  A    between atoms: _26  and  _28
REMARK   10  A    between atoms: _28  and  _30
REMARK   11  A    between atoms: _30  and  _32
REMARK                            x       y       z     vdW  Elec       q    Type
REMARK                         _______ _______ _______ _____ _____    ______ ____
ROOT
ATOM      1  C   UNL     1      28.460  14.766  -0.397  0.00  0.00    +0.152 C 
ENDROOT
BRANCH   1   3
ATOM      2  C   UNL     1      27.896  17.277  -1.304  0.00  0.00    +0.400 C 
ATOM      3  N   UNL     1      28.264  16.208  -0.521  0.00  0.00    -0.278 N 
ATOM      4  H   UNL     1      28.497  16.659   0.419  0.00  0.00    +0.152 HD
ATOM      5  O   UNL     1      27.745  18.368  -0.761  0.00  0.00    -0.226 OA
BRANCH   2   6
ATOM      6  O   UNL     1      27.773  17.030  -2.567  0.00  0.00    -0.450 OA
BRANCH   6   7
ATOM      7  C   UNL     1      26.856  17.248  -3.614  0.00  0.00    +0.240 C 
BRANCH   7   8
ATOM      8  C   UNL     1      26.455  16.033  -4.472  0.00  0.00    +0.100 C 
BRANCH   8  10
ATOM      9  N   UNL     1      24.376  14.723  -4.750  0.00  0.00    -0.134 NA
ATOM     10  C   UNL     1      25.238  15.401  -3.930  0.00  0.00    +0.086 A 
ATOM     11  C   UNL     1      24.758  15.363  -2.640  0.00  0.00    +0.134 A 
ATOM     12  N   UNL     1      23.596  14.654  -2.743  0.00  0.00    -0.248 N 
ATOM     13  N   UNL     1      23.372  14.270  -4.011  0.00  0.00    -0.065 NA
BRANCH  12  14
ATOM     14  C   UNL     1      22.661  14.336  -1.691  0.00  0.00    +0.109 C 
ATOM     15  C   UNL     1      21.195  14.475  -2.102  0.00  0.00    +0.027 C 
ATOM     16  C   UNL     1      20.465  13.686  -1.028  0.00  0.00    +0.002 C 
ATOM     17  C   UNL     1      21.354  12.473  -0.787  0.00  0.00    +0.002 C 
ATOM     18  C   UNL     1      22.777  12.905  -1.149  0.00  0.00    +0.027 C 
ENDBRANCH  12  14
ENDBRANCH   8  10
ENDBRANCH   7   8
ENDBRANCH   6   7
ENDBRANCH   2   6
ENDBRANCH   1   3
BRANCH   1  19
ATOM     19  C   UNL     1      29.497  14.309   0.649  0.00  0.00    +0.193 C 
ATOM     20  O   UNL     1      29.652  12.882   0.484  0.00  0.00    -0.219 OA
BRANCH  19  21
ATOM     21  C   UNL     1      30.931  14.869   0.526  0.00  0.00    +0.212 C 
ATOM     22  O   UNL     1      30.975  16.237   0.963  0.00  0.00    -0.218 OA
BRANCH  21  23
ATOM     23  C   UNL     1      31.996  14.044   1.345  0.00  0.00    +0.171 C 
ATOM     24  O   UNL     1      32.325  14.656   2.587  0.00  0.00    -0.343 OA
ATOM     25  C   UNL     1      33.403  14.277   3.391  0.00  0.00    +0.220 C 
ATOM     26  C   UNL     1      34.714  14.201   2.590  0.00  0.00    +0.076 C 
ATOM     27  C   UNL     1      34.462  13.293   1.375  0.00  0.00    +0.177 C 
ATOM     28  O   UNL     1      35.657  13.156   0.620  0.00  0.00    -0.221 OA
ATOM     29  C   UNL     1      33.303  13.870   0.504  0.00  0.00    +0.155 C 
BRANCH  29  30
ATOM     30  N   UNL     1      33.065  13.013  -0.655  0.00  0.00    -0.202 NA
ATOM     31  C   UNL     1      33.132  13.305  -1.979  0.00  0.00    +0.242 C 
ATOM     32  C   UNL     1      33.129  12.166  -2.964  0.00  0.00    +0.096 C 
ATOM     33  O   UNL     1      33.195  14.479  -2.339  0.00  0.00    -0.273 OA
ENDBRANCH  29  30
BRANCH  25  34
ATOM     34  C   UNL     1      33.136  12.911   4.230  0.00  0.00    +0.391 C 
ATOM     35  O   UNL     1      34.332  12.589   4.759  0.00  0.00    -0.243 OA
ATOM     36  O   UNL     1      31.806  12.792   4.328  0.00  0.00    -0.243 OA
ENDBRANCH  25  34
ENDBRANCH  21  23
ENDBRANCH  19  21
ENDBRANCH   1  19
TORSDOF 11
