REMARK VINA RESULT:    -6.209      0.000      0.000
REMARK INTER + INTRA:         -13.169
REMARK INTER:                 -11.568
REMARK INTRA:                  -1.601
REMARK UNBOUND:                -2.422
REMARK  Name = lig_assembled_53.pdb
REMARK  13 active torsions:
REMARK  status: ('A' for Active; 'I' for Inactive)
REMARK    1  A    between atoms: _2  and  _8
REMARK    2  A    between atoms: _4  and  _8
REMARK    3  A    between atoms: _4  and  _9
REMARK    4  A    between atoms: _5  and  _6
REMARK    5  A    between atoms: _5  and  _11
REMARK    6  A    between atoms: _11  and  _13
REMARK    7  A    between atoms: _12  and  _17
REMARK    8  A    between atoms: _13  and  _16
REMARK    9  A    between atoms: _21  and  _31
REMARK   10  A    between atoms: _23  and  _24
REMARK   11  A    between atoms: _25  and  _27
REMARK   12  A    between atoms: _27  and  _29
REMARK   13  A    between atoms: _29  and  _31
REMARK                            x       y       z     vdW  Elec       q    Type
REMARK                         _______ _______ _______ _____ _____    ______ ____
ROOT
ATOM      1  C   UNL     1      28.695  14.585   0.436  0.00  0.00    +0.152 C 
ENDROOT
BRANCH   1   3
ATOM      2  C   UNL     1      28.035  17.015  -0.617  0.00  0.00    +0.400 C 
ATOM      3  N   UNL     1      28.523  16.015   0.191  0.00  0.00    -0.278 N 
ATOM      4  H   UNL     1      28.960  16.548   1.008  0.00  0.00    +0.152 HD
ATOM      5  O   UNL     1      28.034  18.163  -0.182  0.00  0.00    -0.226 OA
BRANCH   2   6
ATOM      6  O   UNL     1      27.645  16.644  -1.793  0.00  0.00    -0.450 OA
BRANCH   6   7
ATOM      7  C   UNL     1      26.911  17.149  -2.883  0.00  0.00    +0.240 C 
BRANCH   7   8
ATOM      8  C   UNL     1      26.713  16.222  -4.098  0.00  0.00    +0.100 C 
BRANCH   8  10
ATOM      9  N   UNL     1      24.928  14.830  -5.103  0.00  0.00    -0.134 NA
ATOM     10  C   UNL     1      25.362  15.632  -4.082  0.00  0.00    +0.086 A 
ATOM     11  C   UNL     1      24.361  15.747  -3.144  0.00  0.00    +0.134 A 
ATOM     12  N   UNL     1      23.320  15.050  -3.679  0.00  0.00    -0.241 N 
ATOM     13  N   UNL     1      23.682  14.461  -4.836  0.00  0.00    -0.065 NA
BRANCH  12  14
ATOM     14  C   UNL     1      22.017  14.742  -3.128  0.00  0.00    +0.265 C 
BRANCH  14  15
ATOM     15  C   UNL     1      20.856  15.420  -3.805  0.00  0.00    +0.326 C 
ATOM     16  O   UNL     1      19.694  15.429  -3.427  0.00  0.00    -0.249 OA
BRANCH  15  17
ATOM     17  O   UNL     1      21.220  16.053  -4.953  0.00  0.00    -0.479 OA
ATOM     18  H   UNL     1      22.176  16.217  -5.064  0.00  0.00    +0.295 HD
ENDBRANCH  15  17
ENDBRANCH  14  15
ENDBRANCH  12  14
ENDBRANCH   8  10
ENDBRANCH   7   8
ENDBRANCH   6   7
ENDBRANCH   2   6
ENDBRANCH   1   3
BRANCH   1  19
ATOM     19  C   UNL     1      30.078  13.998   0.089  0.00  0.00    +0.193 C 
ATOM     20  O   UNL     1      30.180  13.999  -1.352  0.00  0.00    -0.219 OA
BRANCH  19  21
ATOM     21  C   UNL     1      31.325  14.777   0.564  0.00  0.00    +0.212 C 
ATOM     22  O   UNL     1      30.945  15.836   1.457  0.00  0.00    -0.218 OA
BRANCH  21  23
ATOM     23  C   UNL     1      32.392  13.868   1.285  0.00  0.00    +0.171 C 
ATOM     24  O   UNL     1      32.724  14.340   2.587  0.00  0.00    -0.343 OA
ATOM     25  C   UNL     1      33.803  13.876   3.342  0.00  0.00    +0.220 C 
ATOM     26  C   UNL     1      35.113  13.889   2.534  0.00  0.00    +0.076 C 
ATOM     27  C   UNL     1      34.858  13.119   1.228  0.00  0.00    +0.177 C 
ATOM     28  O   UNL     1      36.051  13.066   0.459  0.00  0.00    -0.221 OA
ATOM     29  C   UNL     1      33.697  13.787   0.427  0.00  0.00    +0.155 C 
BRANCH  29  30
ATOM     30  N   UNL     1      33.456  13.062  -0.818  0.00  0.00    -0.202 NA
ATOM     31  C   UNL     1      33.444  13.516  -2.097  0.00  0.00    +0.242 C 
ATOM     32  C   UNL     1      33.463  12.505  -3.214  0.00  0.00    +0.096 C 
ATOM     33  O   UNL     1      33.420  14.726  -2.313  0.00  0.00    -0.273 OA
ENDBRANCH  29  30
BRANCH  25  34
ATOM     34  C   UNL     1      33.538  12.426   4.026  0.00  0.00    +0.391 C 
ATOM     35  O   UNL     1      34.764  11.954   4.326  0.00  0.00    -0.243 OA
ATOM     36  O   UNL     1      32.229  12.383   4.305  0.00  0.00    -0.243 OA
ENDBRANCH  25  34
ENDBRANCH  21  23
ENDBRANCH  19  21
ENDBRANCH   1  19
TORSDOF 13
