REMARK VINA RESULT:    -7.543      0.000      0.000
REMARK INTER + INTRA:         -14.853
REMARK INTER:                 -13.341
REMARK INTRA:                  -1.513
REMARK UNBOUND:                -1.577
REMARK  Name = lig_assembled_66.pdb
REMARK  13 active torsions:
REMARK  status: ('A' for Active; 'I' for Inactive)
REMARK    1  A    between atoms: _2  and  _9
REMARK    2  A    between atoms: _6  and  _7
REMARK    3  A    between atoms: _6  and  _16
REMARK    4  A    between atoms: _9  and  _10
REMARK    5  A    between atoms: _14  and  _15
REMARK    6  A    between atoms: _16  and  _18
REMARK    7  A    between atoms: _17  and  _22
REMARK    8  A    between atoms: _18  and  _21
REMARK    9  A    between atoms: _26  and  _36
REMARK   10  A    between atoms: _28  and  _29
REMARK   11  A    between atoms: _30  and  _32
REMARK   12  A    between atoms: _32  and  _34
REMARK   13  A    between atoms: _34  and  _36
REMARK                            x       y       z     vdW  Elec       q    Type
REMARK                         _______ _______ _______ _____ _____    ______ ____
ROOT
ATOM      1  C   UNL     1      27.827  17.393  -1.225  0.00  0.00    +0.400 C 
ATOM      2  N   UNL     1      28.241  16.289  -0.518  0.00  0.00    -0.278 N 
ATOM      3  H   UNL     1      28.484  16.688   0.443  0.00  0.00    +0.152 HD
ATOM      4  O   UNL     1      27.659  18.444  -0.612  0.00  0.00    -0.226 OA
ENDROOT
BRANCH   1   5
ATOM      5  O   UNL     1      27.681  17.220  -2.498  0.00  0.00    -0.450 OA
BRANCH   5   6
ATOM      6  C   UNL     1      26.658  17.224  -3.466  0.00  0.00    +0.240 C 
BRANCH   6   7
ATOM      7  C   UNL     1      26.391  15.909  -4.223  0.00  0.00    +0.100 C 
BRANCH   7   9
ATOM      8  N   UNL     1      24.388  14.666  -4.987  0.00  0.00    -0.134 NA
ATOM      9  C   UNL     1      24.975  15.517  -4.088  0.00  0.00    +0.086 A 
ATOM     10  C   UNL     1      24.057  15.849  -3.116  0.00  0.00    +0.134 A 
ATOM     11  N   UNL     1      22.949  15.122  -3.448  0.00  0.00    -0.247 N 
ATOM     12  N   UNL     1      23.146  14.428  -4.583  0.00  0.00    -0.065 NA
BRANCH  11  13
ATOM     13  C   UNL     1      21.794  14.847  -2.614  0.00  0.00    +0.180 C 
BRANCH  13  14
ATOM     14  C   UNL     1      22.051  13.794  -1.566  0.00  0.00    -0.025 A 
ATOM     15  C   UNL     1      20.980  13.152  -0.928  0.00  0.00    +0.005 A 
ATOM     16  C   UNL     1      21.208  12.119  -0.017  0.00  0.00    +0.002 A 
ATOM     17  C   UNL     1      22.512  11.727   0.284  0.00  0.00    +0.019 A 
ATOM     18  C   UNL     1      23.593  12.381  -0.314  0.00  0.00    +0.052 A 
ATOM     19  C   UNL     1      23.362  13.409  -1.237  0.00  0.00    +0.024 A 
BRANCH  18  20
ATOM     20  C   UNL     1      24.934  11.992   0.006  0.00  0.00    +0.099 C 
ATOM     21  N   UNL     1      26.018  11.667   0.268  0.00  0.00    -0.191 NA
ENDBRANCH  18  20
ENDBRANCH  13  14
ENDBRANCH  11  13
ENDBRANCH   7   9
ENDBRANCH   6   7
ENDBRANCH   5   6
ENDBRANCH   1   5
BRANCH   2  22
ATOM     22  C   UNL     1      28.479  14.848  -0.488  0.00  0.00    +0.152 C 
BRANCH  22  23
ATOM     23  C   UNL     1      29.507  14.351   0.549  0.00  0.00    +0.193 C 
ATOM     24  O   UNL     1      29.679  12.935   0.318  0.00  0.00    -0.219 OA
BRANCH  23  25
ATOM     25  C   UNL     1      30.937  14.930   0.473  0.00  0.00    +0.212 C 
ATOM     26  O   UNL     1      30.958  16.280   0.964  0.00  0.00    -0.218 OA
BRANCH  25  27
ATOM     27  C   UNL     1      31.997  14.084   1.278  0.00  0.00    +0.171 C 
ATOM     28  O   UNL     1      32.329  14.673   2.531  0.00  0.00    -0.343 OA
ATOM     29  C   UNL     1      33.404  14.273   3.329  0.00  0.00    +0.220 C 
ATOM     30  C   UNL     1      34.715  14.204   2.527  0.00  0.00    +0.076 C 
ATOM     31  C   UNL     1      34.458  13.319   1.297  0.00  0.00    +0.177 C 
ATOM     32  O   UNL     1      35.653  13.189   0.539  0.00  0.00    -0.221 OA
ATOM     33  C   UNL     1      33.303  13.918   0.435  0.00  0.00    +0.155 C 
BRANCH  33  34
ATOM     34  N   UNL     1      33.061  13.083  -0.739  0.00  0.00    -0.202 NA
ATOM     35  C   UNL     1      33.100  13.406  -2.057  0.00  0.00    +0.242 C 
ATOM     36  C   UNL     1      33.101  12.289  -3.067  0.00  0.00    +0.096 C 
ATOM     37  O   UNL     1      33.135  14.589  -2.391  0.00  0.00    -0.273 OA
ENDBRANCH  33  34
BRANCH  29  38
ATOM     38  C   UNL     1      33.128  12.895   4.143  0.00  0.00    +0.391 C 
ATOM     39  O   UNL     1      34.339  12.505   4.587  0.00  0.00    -0.243 OA
ATOM     40  O   UNL     1      31.803  12.829   4.322  0.00  0.00    -0.243 OA
ENDBRANCH  29  38
ENDBRANCH  25  27
ENDBRANCH  23  25
ENDBRANCH  22  23
ENDBRANCH   2  22
TORSDOF 13
