REMARK VINA RESULT:    -7.336      0.000      0.000
REMARK INTER + INTRA:         -15.006
REMARK INTER:                 -13.512
REMARK INTRA:                  -1.493
REMARK UNBOUND:                -2.094
REMARK  Name = lig_assembled_24.pdb
REMARK  14 active torsions:
REMARK  status: ('A' for Active; 'I' for Inactive)
REMARK    1  A    between atoms: _2  and  _8
REMARK    2  A    between atoms: _5  and  _6
REMARK    3  A    between atoms: _5  and  _16
REMARK    4  A    between atoms: _8  and  _9
REMARK    5  A    between atoms: _12  and  _15
REMARK    6  A    between atoms: _13  and  _15
REMARK    7  A    between atoms: _16  and  _18
REMARK    8  A    between atoms: _17  and  _22
REMARK    9  A    between atoms: _18  and  _21
REMARK   10  A    between atoms: _26  and  _36
REMARK   11  A    between atoms: _28  and  _29
REMARK   12  A    between atoms: _30  and  _32
REMARK   13  A    between atoms: _32  and  _34
REMARK   14  A    between atoms: _34  and  _36
REMARK                            x       y       z     vdW  Elec       q    Type
REMARK                         _______ _______ _______ _____ _____    ______ ____
ROOT
ATOM      1  C   UNL     1      27.917  17.280  -0.971  0.00  0.00    +0.400 C 
ATOM      2  N   UNL     1      28.358  16.214  -0.222  0.00  0.00    -0.278 N 
ATOM      3  H   UNL     1      28.613  16.660   0.715  0.00  0.00    +0.152 HD
ATOM      4  O   UNL     1      27.747  18.356  -0.404  0.00  0.00    -0.226 OA
ENDROOT
BRANCH   1   5
ATOM      5  O   UNL     1      27.750  17.047  -2.232  0.00  0.00    -0.450 OA
BRANCH   5   6
ATOM      6  C   UNL     1      26.797  17.274  -3.243  0.00  0.00    +0.240 C 
BRANCH   6   7
ATOM      7  C   UNL     1      26.526  16.128  -4.237  0.00  0.00    +0.100 C 
BRANCH   7   9
ATOM      8  N   UNL     1      24.608  14.754  -4.985  0.00  0.00    -0.134 NA
ATOM      9  C   UNL     1      25.148  15.627  -4.079  0.00  0.00    +0.086 A 
ATOM     10  C   UNL     1      24.222  15.883  -3.093  0.00  0.00    +0.134 A 
ATOM     11  N   UNL     1      23.165  15.084  -3.412  0.00  0.00    -0.247 N 
ATOM     12  N   UNL     1      23.390  14.435  -4.573  0.00  0.00    -0.065 NA
BRANCH  11  13
ATOM     13  C   UNL     1      21.932  14.807  -2.692  0.00  0.00    +0.180 C 
BRANCH  13  14
ATOM     14  C   UNL     1      22.053  13.760  -1.611  0.00  0.00    -0.026 A 
ATOM     15  C   UNL     1      23.294  13.176  -1.320  0.00  0.00    +0.009 A 
ATOM     16  C   UNL     1      23.397  12.209  -0.317  0.00  0.00    +0.046 A 
ATOM     17  C   UNL     1      22.277  11.825   0.420  0.00  0.00    +0.120 A 
ATOM     18  C   UNL     1      21.036  12.383   0.121  0.00  0.00    +0.046 A 
ATOM     19  C   UNL     1      20.924  13.347  -0.888  0.00  0.00    +0.009 A 
BRANCH  17  20
ATOM     20  O   UNL     1      22.497  10.858   1.361  0.00  0.00    -0.495 OA
ATOM     21  C   UNL     1      23.710  10.985   2.097  0.00  0.00    +0.277 C 
ENDBRANCH  17  20
ENDBRANCH  13  14
ENDBRANCH  11  13
ENDBRANCH   7   9
ENDBRANCH   6   7
ENDBRANCH   5   6
ENDBRANCH   1   5
BRANCH   2  22
ATOM     22  C   UNL     1      28.614  14.779  -0.130  0.00  0.00    +0.152 C 
BRANCH  22  23
ATOM     23  C   UNL     1      29.646  14.340   0.929  0.00  0.00    +0.193 C 
ATOM     24  O   UNL     1      29.814  12.913   0.778  0.00  0.00    -0.219 OA
BRANCH  23  25
ATOM     25  C   UNL     1      31.076  14.911   0.814  0.00  0.00    +0.212 C 
ATOM     26  O   UNL     1      31.121  16.257   1.314  0.00  0.00    -0.218 OA
BRANCH  25  27
ATOM     27  C   UNL     1      32.155  14.053   1.579  0.00  0.00    +0.171 C 
ATOM     28  O   UNL     1      32.530  14.630   2.825  0.00  0.00    -0.343 OA
ATOM     29  C   UNL     1      33.627  14.217   3.586  0.00  0.00    +0.220 C 
ATOM     30  C   UNL     1      34.912  14.146   2.742  0.00  0.00    +0.076 C 
ATOM     31  C   UNL     1      34.611  13.271   1.514  0.00  0.00    +0.177 C 
ATOM     32  O   UNL     1      35.780  13.139   0.719  0.00  0.00    -0.221 OA
ATOM     33  C   UNL     1      33.433  13.884   0.694  0.00  0.00    +0.155 C 
BRANCH  33  34
ATOM     34  N   UNL     1      33.149  13.060  -0.478  0.00  0.00    -0.202 NA
ATOM     35  C   UNL     1      33.134  13.397  -1.793  0.00  0.00    +0.242 C 
ATOM     36  C   UNL     1      33.100  12.290  -2.815  0.00  0.00    +0.096 C 
ATOM     37  O   UNL     1      33.150  14.583  -2.117  0.00  0.00    -0.273 OA
ENDBRANCH  33  34
BRANCH  29  38
ATOM     38  C   UNL     1      33.368  12.834   4.398  0.00  0.00    +0.391 C 
ATOM     39  O   UNL     1      34.582  12.465   4.851  0.00  0.00    -0.243 OA
ATOM     40  O   UNL     1      32.043  12.747   4.566  0.00  0.00    -0.243 OA
ENDBRANCH  29  38
ENDBRANCH  25  27
ENDBRANCH  23  25
ENDBRANCH  22  23
ENDBRANCH   2  22
TORSDOF 13
