REMARK VINA RESULT:    -7.242      0.000      0.000
REMARK INTER + INTRA:         -15.445
REMARK INTER:                 -13.705
REMARK INTRA:                  -1.740
REMARK UNBOUND:                -2.911
REMARK  Name = lig_assembled_23.pdb
REMARK  13 active torsions:
REMARK  status: ('A' for Active; 'I' for Inactive)
REMARK    1  A    between atoms: _2  and  _9
REMARK    2  A    between atoms: _3  and  _44
REMARK    3  A    between atoms: _6  and  _7
REMARK    4  A    between atoms: _6  and  _16
REMARK    5  A    between atoms: _11  and  _44
REMARK    6  A    between atoms: _16  and  _18
REMARK    7  A    between atoms: _17  and  _22
REMARK    8  A    between atoms: _18  and  _21
REMARK    9  A    between atoms: _26  and  _36
REMARK   10  A    between atoms: _28  and  _29
REMARK   11  A    between atoms: _30  and  _32
REMARK   12  A    between atoms: _32  and  _34
REMARK   13  A    between atoms: _34  and  _36
REMARK                            x       y       z     vdW  Elec       q    Type
REMARK                         _______ _______ _______ _____ _____    ______ ____
ROOT
ATOM      1  C   UNL     1      27.868  17.158  -0.780  0.00  0.00    +0.400 C 
ATOM      2  N   UNL     1      28.287  16.140   0.043  0.00  0.00    -0.278 N 
ATOM      3  H   UNL     1      28.635  16.653   0.914  0.00  0.00    +0.152 HD
ATOM      4  O   UNL     1      27.810  18.293  -0.315  0.00  0.00    -0.226 OA
ENDROOT
BRANCH   2   5
ATOM      5  C   UNL     1      28.453  14.705   0.263  0.00  0.00    +0.152 C 
BRANCH   5   6
ATOM      6  C   UNL     1      29.588  14.291   1.222  0.00  0.00    +0.193 C 
ATOM      7  O   UNL     1      29.675  12.850   1.164  0.00  0.00    -0.219 OA
BRANCH   6   8
ATOM      8  C   UNL     1      31.016  14.777   0.892  0.00  0.00    +0.212 C 
ATOM      9  O   UNL     1      31.164  16.166   1.231  0.00  0.00    -0.218 OA
BRANCH   8  10
ATOM     10  C   UNL     1      32.141  13.956   1.630  0.00  0.00    +0.171 C 
ATOM     11  O   UNL     1      32.509  14.531   2.879  0.00  0.00    -0.343 OA
ATOM     12  C   UNL     1      33.633  14.156   3.619  0.00  0.00    +0.220 C 
ATOM     13  C   UNL     1      34.908  14.152   2.758  0.00  0.00    +0.076 C 
ATOM     14  C   UNL     1      34.627  13.283   1.520  0.00  0.00    +0.177 C 
ATOM     15  O   UNL     1      35.790  13.213   0.707  0.00  0.00    -0.221 OA
ATOM     16  C   UNL     1      33.413  13.855   0.725  0.00  0.00    +0.155 C 
BRANCH  16  17
ATOM     17  N   UNL     1      33.148  13.036  -0.455  0.00  0.00    -0.202 NA
ATOM     18  C   UNL     1      33.131  13.384  -1.767  0.00  0.00    +0.242 C 
ATOM     19  C   UNL     1      33.121  12.286  -2.798  0.00  0.00    +0.096 C 
ATOM     20  O   UNL     1      33.125  14.573  -2.080  0.00  0.00    -0.273 OA
ENDBRANCH  16  17
BRANCH  12  21
ATOM     21  C   UNL     1      33.445  12.751   4.414  0.00  0.00    +0.391 C 
ATOM     22  O   UNL     1      34.681  12.424   4.838  0.00  0.00    -0.243 OA
ATOM     23  O   UNL     1      32.128  12.608   4.606  0.00  0.00    -0.243 OA
ENDBRANCH  12  21
ENDBRANCH   8  10
ENDBRANCH   6   8
ENDBRANCH   5   6
ENDBRANCH   2   5
BRANCH   1  24
ATOM     24  O   UNL     1      27.601  16.818  -1.999  0.00  0.00    -0.450 OA
BRANCH  24  25
ATOM     25  C   UNL     1      27.049  17.379  -3.167  0.00  0.00    +0.240 C 
BRANCH  25  26
ATOM     26  C   UNL     1      26.422  16.413  -4.191  0.00  0.00    +0.100 C 
BRANCH  26  28
ATOM     27  N   UNL     1      26.067  14.098  -3.400  0.00  0.00    -0.134 NA
ATOM     28  C   UNL     1      25.623  15.384  -3.500  0.00  0.00    +0.086 A 
ATOM     29  C   UNL     1      24.399  15.488  -2.880  0.00  0.00    +0.139 A 
ATOM     30  N   UNL     1      24.136  14.225  -2.399  0.00  0.00    -0.220 N 
ATOM     31  N   UNL     1      25.158  13.399  -2.734  0.00  0.00    -0.061 NA
BRANCH  30  32
ATOM     32  C   UNL     1      23.008  13.763  -1.675  0.00  0.00    +0.069 A 
ATOM     33  C   UNL     1      23.160  12.714  -0.757  0.00  0.00    +0.056 A 
ATOM     34  C   UNL     1      22.041  12.233  -0.067  0.00  0.00    +0.107 A 
ATOM     35  C   UNL     1      20.780  12.799  -0.260  0.00  0.00    +0.028 A 
ATOM     36  C   UNL     1      20.634  13.852  -1.162  0.00  0.00    +0.004 A 
ATOM     37  C   UNL     1      21.740  14.331  -1.872  0.00  0.00    +0.028 A 
BRANCH  34  38
ATOM     38  S   UNL     1      22.241  10.872   1.043  0.00  0.00    +0.056 S 
ATOM     39  O   UNL     1      21.591  11.191   2.292  0.00  0.00    -0.153 OA
ATOM     40  O   UNL     1      22.001   9.638   0.332  0.00  0.00    -0.153 OA
BRANCH  38  41
ATOM     41  N   UNL     1      23.892  10.901   1.338  0.00  0.00    -0.204 NA
ATOM     42  H   UNL     1      24.231  11.863   1.336  0.00  0.00    +0.144 HD
ATOM     43  H   UNL     1      24.377  10.288   0.681  0.00  0.00    +0.144 HD
ENDBRANCH  38  41
ENDBRANCH  34  38
ENDBRANCH  30  32
ENDBRANCH  26  28
ENDBRANCH  25  26
ENDBRANCH  24  25
ENDBRANCH   1  24
TORSDOF 13
