REMARK VINA RESULT:    -7.273      0.000      0.000
REMARK INTER + INTRA:         -14.889
REMARK INTER:                 -13.244
REMARK INTRA:                  -1.645
REMARK UNBOUND:                -2.513
REMARK  Name = lig_assembled_28.pdb
REMARK  12 active torsions:
REMARK  status: ('A' for Active; 'I' for Inactive)
REMARK    1  A    between atoms: _2  and  _8
REMARK    2  A    between atoms: _5  and  _6
REMARK    3  A    between atoms: _5  and  _17
REMARK    4  A    between atoms: _8  and  _9
REMARK    5  A    between atoms: _17  and  _19
REMARK    6  A    between atoms: _18  and  _23
REMARK    7  A    between atoms: _19  and  _22
REMARK    8  A    between atoms: _27  and  _37
REMARK    9  A    between atoms: _29  and  _30
REMARK   10  A    between atoms: _31  and  _33
REMARK   11  A    between atoms: _33  and  _35
REMARK   12  A    between atoms: _35  and  _37
REMARK                            x       y       z     vdW  Elec       q    Type
REMARK                         _______ _______ _______ _____ _____    ______ ____
ROOT
ATOM      1  C   UNL     1      27.964  17.176  -0.942  0.00  0.00    +0.400 C 
ATOM      2  N   UNL     1      28.438  16.256  -0.037  0.00  0.00    -0.278 N 
ATOM      3  H   UNL     1      28.922  16.860   0.700  0.00  0.00    +0.152 HD
ATOM      4  O   UNL     1      28.023  18.366  -0.643  0.00  0.00    -0.226 OA
ENDROOT
BRANCH   2   5
ATOM      5  C   UNL     1      28.562  14.858   0.366  0.00  0.00    +0.152 C 
BRANCH   5   6
ATOM      6  C   UNL     1      29.894  14.164   0.015  0.00  0.00    +0.193 C 
ATOM      7  O   UNL     1      29.952  14.082  -1.426  0.00  0.00    -0.219 OA
BRANCH   6   8
ATOM      8  C   UNL     1      31.201  14.883   0.413  0.00  0.00    +0.212 C 
ATOM      9  O   UNL     1      30.916  16.021   1.242  0.00  0.00    -0.218 OA
BRANCH   8  10
ATOM     10  C   UNL     1      32.221  13.950   1.171  0.00  0.00    +0.171 C 
ATOM     11  O   UNL     1      32.566  14.449   2.460  0.00  0.00    -0.343 OA
ATOM     12  C   UNL     1      33.618  13.960   3.238  0.00  0.00    +0.220 C 
ATOM     13  C   UNL     1      34.932  13.888   2.441  0.00  0.00    +0.076 C 
ATOM     14  C   UNL     1      34.651  13.089   1.157  0.00  0.00    +0.177 C 
ATOM     15  O   UNL     1      35.846  12.958   0.400  0.00  0.00    -0.221 OA
ATOM     16  C   UNL     1      33.527  13.783   0.327  0.00  0.00    +0.155 C 
BRANCH  16  17
ATOM     17  N   UNL     1      33.262  13.031  -0.897  0.00  0.00    -0.202 NA
ATOM     18  C   UNL     1      33.305  13.436  -2.191  0.00  0.00    +0.242 C 
ATOM     19  C   UNL     1      33.277  12.386  -3.271  0.00  0.00    +0.096 C 
ATOM     20  O   UNL     1      33.367  14.637  -2.450  0.00  0.00    -0.273 OA
ENDBRANCH  16  17
BRANCH  12  21
ATOM     21  C   UNL     1      33.283  12.547   3.966  0.00  0.00    +0.391 C 
ATOM     22  O   UNL     1      34.485  12.011   4.254  0.00  0.00    -0.243 OA
ATOM     23  O   UNL     1      31.980  12.588   4.271  0.00  0.00    -0.243 OA
ENDBRANCH  12  21
ENDBRANCH   8  10
ENDBRANCH   6   8
ENDBRANCH   5   6
ENDBRANCH   2   5
BRANCH   1  24
ATOM     24  O   UNL     1      27.523  16.691  -2.056  0.00  0.00    -0.450 OA
BRANCH  24  25
ATOM     25  C   UNL     1      26.774  17.099  -3.177  0.00  0.00    +0.240 C 
BRANCH  25  26
ATOM     26  C   UNL     1      26.434  16.029  -4.232  0.00  0.00    +0.100 C 
BRANCH  26  28
ATOM     27  N   UNL     1      24.471  14.697  -4.952  0.00  0.00    -0.134 NA
ATOM     28  C   UNL     1      25.044  15.568  -4.065  0.00  0.00    +0.086 A 
ATOM     29  C   UNL     1      24.136  15.857  -3.070  0.00  0.00    +0.134 A 
ATOM     30  N   UNL     1      23.067  15.056  -3.352  0.00  0.00    -0.247 N 
ATOM     31  N   UNL     1      23.255  14.399  -4.513  0.00  0.00    -0.065 NA
BRANCH  30  32
ATOM     32  C   UNL     1      21.873  14.764  -2.569  0.00  0.00    +0.180 C 
BRANCH  32  33
ATOM     33  C   UNL     1      22.069  13.662  -1.554  0.00  0.00    -0.022 A 
ATOM     34  C   UNL     1      23.363  13.213  -1.238  0.00  0.00    +0.055 A 
ATOM     35  C   UNL     1      23.499  12.288  -0.225  0.00  0.00    +0.167 A 
ATOM     36  O   UNL     1      24.676  11.793   0.243  0.00  0.00    -0.453 OA
ATOM     37  C   UNL     1      24.209  10.996   1.352  0.00  0.00    +0.466 C 
ATOM     38  O   UNL     1      22.769  10.911   1.430  0.00  0.00    -0.453 OA
ATOM     39  C   UNL     1      22.414  11.784   0.450  0.00  0.00    +0.166 A 
ATOM     40  C   UNL     1      21.127  12.173   0.144  0.00  0.00    +0.050 A 
ATOM     41  C   UNL     1      20.956  13.127  -0.864  0.00  0.00    +0.009 A 
ENDBRANCH  32  33
ENDBRANCH  30  32
ENDBRANCH  26  28
ENDBRANCH  25  26
ENDBRANCH  24  25
ENDBRANCH   1  24
TORSDOF 12
