REMARK VINA RESULT:    -7.209      0.000      0.000
REMARK INTER + INTRA:         -17.777
REMARK INTER:                 -14.602
REMARK INTRA:                  -3.175
REMARK UNBOUND:                -3.824
REMARK  Name = lig_assembled_81.pdb
REMARK  17 active torsions:
REMARK  status: ('A' for Active; 'I' for Inactive)
REMARK    1  A    between atoms: _2  and  _11
REMARK    2  A    between atoms: _7  and  _23
REMARK    3  A    between atoms: _8  and  _9
REMARK    4  A    between atoms: _8  and  _25
REMARK    5  A    between atoms: _13  and  _14
REMARK    6  A    between atoms: _20  and  _21
REMARK    7  A    between atoms: _21  and  _22
REMARK    8  A    between atoms: _22  and  _24
REMARK    9  A    between atoms: _23  and  _24
REMARK   10  A    between atoms: _25  and  _27
REMARK   11  A    between atoms: _26  and  _31
REMARK   12  A    between atoms: _27  and  _30
REMARK   13  A    between atoms: _35  and  _45
REMARK   14  A    between atoms: _37  and  _38
REMARK   15  A    between atoms: _39  and  _41
REMARK   16  A    between atoms: _41  and  _43
REMARK   17  A    between atoms: _43  and  _45
REMARK                            x       y       z     vdW  Elec       q    Type
REMARK                         _______ _______ _______ _____ _____    ______ ____
ROOT
ATOM      1  C   UNL     1      26.588  16.214  -4.364  0.00  0.00    +0.096 C 
ENDROOT
BRANCH   1   3
ATOM      2  N   UNL     1      24.730  14.698  -4.878  0.00  0.00    -0.133 NA
ATOM      3  C   UNL     1      25.435  15.393  -3.942  0.00  0.00    +0.066 C 
ATOM      4  C   UNL     1      24.853  15.185  -2.706  0.00  0.00    +0.120 C 
ATOM      5  N   UNL     1      23.870  14.232  -2.936  0.00  0.00    -0.187 N 
ATOM      6  N   UNL     1      23.711  14.116  -4.270  0.00  0.00    -0.010 NA
BRANCH   5   7
ATOM      7  C   UNL     1      22.996  13.615  -1.980  0.00  0.00    +0.150 A 
ATOM      8  C   UNL     1      23.329  12.520  -1.142  0.00  0.00    +0.022 A 
ATOM      9  C   UNL     1      22.238  12.067  -0.355  0.00  0.00    +0.081 A 
ATOM     10  N   UNL     1      20.993  12.604  -0.479  0.00  0.00    -0.214 NA
ATOM     11  C   UNL     1      20.800  13.607  -1.318  0.00  0.00    +0.215 A 
ATOM     12  N   UNL     1      19.519  14.074  -1.495  0.00  0.00    -0.327 N 
ATOM     13  H   UNL     1      18.934  13.844  -0.705  0.00  0.00    +0.145 HD
ATOM     14  H   UNL     1      19.510  15.016  -1.852  0.00  0.00    +0.145 HD
ATOM     15  N   UNL     1      21.764  14.193  -2.000  0.00  0.00    -0.198 NA
BRANCH   9  16
ATOM     16  C   UNL     1      22.231  10.963   0.680  0.00  0.00    +0.001 A 
ATOM     17  C   UNL     1      22.274  11.160   2.072  0.00  0.00    +0.010 A 
ATOM     18  C   UNL     1      22.253  10.092   2.985  0.00  0.00    +0.001 A 
ATOM     19  C   UNL     1      22.127   8.789   2.542  0.00  0.00    +0.000 A 
ATOM     20  C   UNL     1      22.025   8.546   1.174  0.00  0.00    +0.001 A 
ATOM     21  C   UNL     1      22.090   9.615   0.269  0.00  0.00    +0.010 A 
ENDBRANCH   9  16
BRANCH   8  22
ATOM     22  C   UNL     1      24.697  11.874  -0.913  0.00  0.00    +0.069 C 
BRANCH  22  23
ATOM     23  C   UNL     1      25.754  12.551  -0.061  0.00  0.00    +0.164 C 
BRANCH  23  24
ATOM     24  O   UNL     1      25.910  12.053   1.273  0.00  0.00    -0.380 OA
BRANCH  24  25
ATOM     25  C   UNL     1      26.553  10.769   1.151  0.00  0.00    +0.156 C 
ATOM     26  C   UNL     1      25.775   9.685   1.860  0.00  0.00    +0.034 C 
ENDBRANCH  24  25
ENDBRANCH  23  24
ENDBRANCH  22  23
ENDBRANCH   8  22
ENDBRANCH   5   7
ENDBRANCH   1   3
BRANCH   1  27
ATOM     27  C   UNL     1      26.695  17.477  -3.488  0.00  0.00    +0.240 C 
BRANCH  27  28
ATOM     28  O   UNL     1      27.682  17.489  -2.483  0.00  0.00    -0.450 OA
BRANCH  28  29
ATOM     29  C   UNL     1      27.767  17.517  -1.193  0.00  0.00    +0.400 C 
ATOM     30  N   UNL     1      28.190  16.351  -0.599  0.00  0.00    -0.278 N 
ATOM     31  H   UNL     1      28.377  16.643   0.412  0.00  0.00    +0.152 HD
ATOM     32  O   UNL     1      27.536  18.484  -0.472  0.00  0.00    -0.226 OA
BRANCH  30  33
ATOM     33  C   UNL     1      28.478  14.924  -0.723  0.00  0.00    +0.152 C 
BRANCH  33  34
ATOM     34  C   UNL     1      29.469  14.339   0.304  0.00  0.00    +0.193 C 
ATOM     35  O   UNL     1      29.657  12.950  -0.046  0.00  0.00    -0.219 OA
BRANCH  34  36
ATOM     36  C   UNL     1      30.897  14.926   0.334  0.00  0.00    +0.212 C 
ATOM     37  O   UNL     1      30.884  16.249   0.893  0.00  0.00    -0.218 OA
BRANCH  36  38
ATOM     38  C   UNL     1      31.917  14.044   1.150  0.00  0.00    +0.171 C 
ATOM     39  O   UNL     1      32.205  14.587   2.435  0.00  0.00    -0.343 OA
ATOM     40  C   UNL     1      33.245  14.151   3.260  0.00  0.00    +0.220 C 
ATOM     41  C   UNL     1      34.586  14.096   2.507  0.00  0.00    +0.076 C 
ATOM     42  C   UNL     1      34.369  13.254   1.238  0.00  0.00    +0.177 C 
ATOM     43  O   UNL     1      35.592  13.137   0.524  0.00  0.00    -0.221 OA
ATOM     44  C   UNL     1      33.254  13.892   0.353  0.00  0.00    +0.155 C 
BRANCH  44  45
ATOM     45  N   UNL     1      33.051  13.099  -0.856  0.00  0.00    -0.202 NA
ATOM     46  C   UNL     1      33.231  13.440  -2.158  0.00  0.00    +0.242 C 
ATOM     47  C   UNL     1      33.232  12.343  -3.191  0.00  0.00    +0.096 C 
ATOM     48  O   UNL     1      33.389  14.621  -2.460  0.00  0.00    -0.273 OA
ENDBRANCH  44  45
BRANCH  40  49
ATOM     49  C   UNL     1      32.926  12.749   4.016  0.00  0.00    +0.391 C 
ATOM     50  O   UNL     1      31.635  12.488   3.735  0.00  0.00    -0.243 OA
ATOM     51  O   UNL     1      34.113  12.240   4.367  0.00  0.00    -0.243 OA
ENDBRANCH  40  49
ENDBRANCH  36  38
ENDBRANCH  34  36
ENDBRANCH  33  34
ENDBRANCH  30  33
ENDBRANCH  28  29
ENDBRANCH  27  28
ENDBRANCH   1  27
TORSDOF 16
