REMARK VINA RESULT:    -7.708      0.000      0.000
REMARK INTER + INTRA:         -14.998
REMARK INTER:                 -13.324
REMARK INTRA:                  -1.674
REMARK UNBOUND:                -1.658
REMARK  Name = lig_assembled_60.pdb
REMARK  13 active torsions:
REMARK  status: ('A' for Active; 'I' for Inactive)
REMARK    1  A    between atoms: _2  and  _9
REMARK    2  A    between atoms: _3  and  _44
REMARK    3  A    between atoms: _6  and  _7
REMARK    4  A    between atoms: _6  and  _16
REMARK    5  A    between atoms: _12  and  _44
REMARK    6  A    between atoms: _16  and  _18
REMARK    7  A    between atoms: _17  and  _22
REMARK    8  A    between atoms: _18  and  _21
REMARK    9  A    between atoms: _26  and  _36
REMARK   10  A    between atoms: _28  and  _29
REMARK   11  A    between atoms: _30  and  _32
REMARK   12  A    between atoms: _32  and  _34
REMARK   13  A    between atoms: _34  and  _36
REMARK                            x       y       z     vdW  Elec       q    Type
REMARK                         _______ _______ _______ _____ _____    ______ ____
ROOT
ATOM      1  C   UNL     1      27.863  17.285  -1.104  0.00  0.00    +0.400 C 
ATOM      2  N   UNL     1      28.318  16.220  -0.362  0.00  0.00    -0.278 N 
ATOM      3  H   UNL     1      28.580  16.665   0.574  0.00  0.00    +0.152 HD
ATOM      4  O   UNL     1      27.692  18.359  -0.531  0.00  0.00    -0.226 OA
ENDROOT
BRANCH   2   5
ATOM      5  C   UNL     1      28.585  14.787  -0.277  0.00  0.00    +0.152 C 
BRANCH   5   6
ATOM      6  C   UNL     1      29.588  14.345   0.808  0.00  0.00    +0.193 C 
ATOM      7  O   UNL     1      29.761  12.919   0.658  0.00  0.00    -0.219 OA
BRANCH   6   8
ATOM      8  C   UNL     1      31.020  14.917   0.733  0.00  0.00    +0.212 C 
ATOM      9  O   UNL     1      31.047  16.268   1.222  0.00  0.00    -0.218 OA
BRANCH   8  10
ATOM     10  C   UNL     1      32.075  14.069   1.541  0.00  0.00    +0.171 C 
ATOM     11  O   UNL     1      32.440  14.679   2.774  0.00  0.00    -0.343 OA
ATOM     12  C   UNL     1      33.519  14.275   3.564  0.00  0.00    +0.220 C 
ATOM     13  C   UNL     1      34.815  14.159   2.743  0.00  0.00    +0.076 C 
ATOM     14  C   UNL     1      34.519  13.251   1.538  0.00  0.00    +0.177 C 
ATOM     15  O   UNL     1      35.698  13.077   0.765  0.00  0.00    -0.221 OA
ATOM     16  C   UNL     1      33.363  13.854   0.681  0.00  0.00    +0.155 C 
BRANCH  16  17
ATOM     17  N   UNL     1      33.084  12.997  -0.468  0.00  0.00    -0.202 NA
ATOM     18  C   UNL     1      33.058  13.301  -1.791  0.00  0.00    +0.242 C 
ATOM     19  C   UNL     1      33.034  12.169  -2.785  0.00  0.00    +0.096 C 
ATOM     20  O   UNL     1      33.057  14.479  -2.144  0.00  0.00    -0.273 OA
ENDBRANCH  16  17
BRANCH  12  21
ATOM     21  C   UNL     1      33.228  12.922   4.415  0.00  0.00    +0.391 C 
ATOM     22  O   UNL     1      34.351  12.712   5.128  0.00  0.00    -0.243 OA
ATOM     23  O   UNL     1      31.911  12.704   4.323  0.00  0.00    -0.243 OA
ENDBRANCH  12  21
ENDBRANCH   8  10
ENDBRANCH   6   8
ENDBRANCH   5   6
ENDBRANCH   2   5
BRANCH   1  24
ATOM     24  O   UNL     1      27.685  17.055  -2.363  0.00  0.00    -0.450 OA
BRANCH  24  25
ATOM     25  C   UNL     1      26.739  17.316  -3.374  0.00  0.00    +0.240 C 
BRANCH  25  26
ATOM     26  C   UNL     1      26.117  16.106  -4.095  0.00  0.00    +0.100 C 
BRANCH  26  28
ATOM     27  N   UNL     1      23.877  15.780  -3.092  0.00  0.00    -0.134 NA
ATOM     28  C   UNL     1      25.183  15.399  -3.198  0.00  0.00    +0.086 A 
ATOM     29  C   UNL     1      25.405  14.319  -2.378  0.00  0.00    +0.139 A 
ATOM     30  N   UNL     1      24.181  14.046  -1.811  0.00  0.00    -0.220 N 
ATOM     31  N   UNL     1      23.276  14.959  -2.240  0.00  0.00    -0.061 NA
BRANCH  30  32
ATOM     32  C   UNL     1      23.823  12.978  -0.946  0.00  0.00    +0.067 A 
ATOM     33  C   UNL     1      22.478  12.618  -0.774  0.00  0.00    +0.030 A 
ATOM     34  C   UNL     1      22.132  11.612   0.132  0.00  0.00    +0.030 A 
ATOM     35  C   UNL     1      23.131  10.958   0.856  0.00  0.00    +0.105 A 
ATOM     36  C   UNL     1      24.477  11.296   0.681  0.00  0.00    +0.030 A 
ATOM     37  C   UNL     1      24.822  12.302  -0.226  0.00  0.00    +0.030 A 
BRANCH  35  38
ATOM     38  S   UNL     1      22.675   9.742   2.057  0.00  0.00    +0.056 S 
ATOM     39  O   UNL     1      21.694   8.851   1.486  0.00  0.00    -0.153 OA
ATOM     40  O   UNL     1      23.868   9.263   2.720  0.00  0.00    -0.153 OA
BRANCH  38  41
ATOM     41  N   UNL     1      21.858  10.671   3.189  0.00  0.00    -0.204 NA
ATOM     42  H   UNL     1      21.294  11.376   2.715  0.00  0.00    +0.144 HD
ATOM     43  H   UNL     1      22.522  11.058   3.861  0.00  0.00    +0.144 HD
ENDBRANCH  38  41
ENDBRANCH  35  38
ENDBRANCH  30  32
ENDBRANCH  26  28
ENDBRANCH  25  26
ENDBRANCH  24  25
ENDBRANCH   1  24
TORSDOF 13
