REMARK VINA RESULT:    -7.644      0.000      0.000
REMARK INTER + INTRA:         -14.058
REMARK INTER:                 -12.339
REMARK INTRA:                  -1.719
REMARK UNBOUND:                -1.499
REMARK  Name = lig_assembled_15.pdb
REMARK  11 active torsions:
REMARK  status: ('A' for Active; 'I' for Inactive)
REMARK    1  A    between atoms: _2  and  _8
REMARK    2  A    between atoms: _5  and  _6
REMARK    3  A    between atoms: _5  and  _13
REMARK    4  A    between atoms: _13  and  _15
REMARK    5  A    between atoms: _14  and  _19
REMARK    6  A    between atoms: _15  and  _18
REMARK    7  A    between atoms: _23  and  _33
REMARK    8  A    between atoms: _25  and  _26
REMARK    9  A    between atoms: _27  and  _29
REMARK   10  A    between atoms: _29  and  _31
REMARK   11  A    between atoms: _31  and  _33
REMARK                            x       y       z     vdW  Elec       q    Type
REMARK                         _______ _______ _______ _____ _____    ______ ____
ROOT
ATOM      1  C   UNL     1      27.929  17.346  -1.068  0.00  0.00    +0.400 C 
ATOM      2  N   UNL     1      28.291  16.212  -0.380  0.00  0.00    -0.278 N 
ATOM      3  H   UNL     1      28.523  16.579   0.597  0.00  0.00    +0.152 HD
ATOM      4  O   UNL     1      27.780  18.386  -0.433  0.00  0.00    -0.226 OA
ENDROOT
BRANCH   1   5
ATOM      5  O   UNL     1      27.810  17.209  -2.348  0.00  0.00    -0.450 OA
BRANCH   5   6
ATOM      6  C   UNL     1      26.834  17.364  -3.352  0.00  0.00    +0.240 C 
BRANCH   6   7
ATOM      7  C   UNL     1      26.328  16.090  -4.055  0.00  0.00    +0.100 C 
BRANCH   7   9
ATOM      8  N   UNL     1      24.013  15.827  -3.224  0.00  0.00    -0.134 NA
ATOM      9  C   UNL     1      25.314  15.415  -3.224  0.00  0.00    +0.086 A 
ATOM     10  C   UNL     1      25.445  14.339  -2.376  0.00  0.00    +0.139 A 
ATOM     11  N   UNL     1      24.176  14.108  -1.895  0.00  0.00    -0.220 N 
ATOM     12  N   UNL     1      23.329  15.033  -2.411  0.00  0.00    -0.061 NA
BRANCH  11  13
ATOM     13  C   UNL     1      23.728  13.077  -1.029  0.00  0.00    +0.067 A 
ATOM     14  C   UNL     1      22.361  12.814  -0.869  0.00  0.00    +0.029 A 
ATOM     15  C   UNL     1      21.937  11.821   0.020  0.00  0.00    +0.017 A 
ATOM     16  C   UNL     1      22.876  11.090   0.746  0.00  0.00    +0.018 A 
ATOM     17 BR   UNL     1      22.295   9.769   1.966  0.00  0.00    -0.050 Br
ATOM     18  C   UNL     1      24.238  11.332   0.584  0.00  0.00    +0.017 A 
ATOM     19  C   UNL     1      24.667  12.323  -0.304  0.00  0.00    +0.029 A 
ENDBRANCH  11  13
ENDBRANCH   7   9
ENDBRANCH   6   7
ENDBRANCH   5   6
ENDBRANCH   1   5
BRANCH   2  20
ATOM     20  C   UNL     1      28.482  14.764  -0.380  0.00  0.00    +0.152 C 
BRANCH  20  21
ATOM     21  C   UNL     1      29.551  14.219   0.590  0.00  0.00    +0.193 C 
ATOM     22  O   UNL     1      29.757  12.831   0.244  0.00  0.00    -0.219 OA
BRANCH  21  23
ATOM     23  C   UNL     1      30.962  14.846   0.524  0.00  0.00    +0.212 C 
ATOM     24  O   UNL     1      30.934  16.196   1.015  0.00  0.00    -0.218 OA
BRANCH  23  25
ATOM     25  C   UNL     1      32.043  14.036   1.338  0.00  0.00    +0.171 C 
ATOM     26  O   UNL     1      32.396  14.672   2.562  0.00  0.00    -0.343 OA
ATOM     27  C   UNL     1      33.490  14.308   3.351  0.00  0.00    +0.220 C 
ATOM     28  C   UNL     1      34.785  14.217   2.526  0.00  0.00    +0.076 C 
ATOM     29  C   UNL     1      34.509  13.286   1.334  0.00  0.00    +0.177 C 
ATOM     30  O   UNL     1      35.689  13.135   0.557  0.00  0.00    -0.221 OA
ATOM     31  C   UNL     1      33.333  13.846   0.475  0.00  0.00    +0.155 C 
BRANCH  31  32
ATOM     32  N   UNL     1      33.072  12.968  -0.663  0.00  0.00    -0.202 NA
ATOM     33  C   UNL     1      33.113  13.236  -1.993  0.00  0.00    +0.242 C 
ATOM     34  C   UNL     1      33.091  12.078  -2.957  0.00  0.00    +0.096 C 
ATOM     35  O   UNL     1      33.167  14.402  -2.377  0.00  0.00    -0.273 OA
ENDBRANCH  31  32
BRANCH  27  36
ATOM     36  C   UNL     1      33.240  12.959   4.221  0.00  0.00    +0.391 C 
ATOM     37  O   UNL     1      34.433  12.679   4.780  0.00  0.00    -0.243 OA
ATOM     38  O   UNL     1      31.911  12.810   4.298  0.00  0.00    -0.243 OA
ENDBRANCH  27  36
ENDBRANCH  23  25
ENDBRANCH  21  23
ENDBRANCH  20  21
ENDBRANCH   2  20
TORSDOF 11
