REMARK VINA RESULT:    -6.507      0.000      0.000
REMARK INTER + INTRA:         -15.741
REMARK INTER:                 -12.961
REMARK INTRA:                  -2.780
REMARK UNBOUND:                -2.957
REMARK  Name = lig_assembled_74.pdb
REMARK  19 active torsions:
REMARK  status: ('A' for Active; 'I' for Inactive)
REMARK    1  A    between atoms: _2  and  _8
REMARK    2  A    between atoms: _4  and  _13
REMARK    3  A    between atoms: _5  and  _6
REMARK    4  A    between atoms: _5  and  _17
REMARK    5  A    between atoms: _8  and  _9
REMARK    6  A    between atoms: _9  and  _10
REMARK    7  A    between atoms: _9  and  _12
REMARK    8  A    between atoms: _10  and  _11
REMARK    9  A    between atoms: _11  and  _15
REMARK   10  A    between atoms: _12  and  _13
REMARK   11  A    between atoms: _13  and  _14
REMARK   12  A    between atoms: _17  and  _19
REMARK   13  A    between atoms: _18  and  _23
REMARK   14  A    between atoms: _19  and  _22
REMARK   15  A    between atoms: _27  and  _37
REMARK   16  A    between atoms: _29  and  _30
REMARK   17  A    between atoms: _31  and  _33
REMARK   18  A    between atoms: _33  and  _35
REMARK   19  A    between atoms: _35  and  _37
REMARK                            x       y       z     vdW  Elec       q    Type
REMARK                         _______ _______ _______ _____ _____    ______ ____
ROOT
ATOM      1  C   UNL     1      28.781  17.051  -0.458  0.00  0.00    +0.400 C 
ATOM      2  N   UNL     1      28.735  15.884   0.267  0.00  0.00    -0.278 N 
ATOM      3  H   UNL     1      29.398  16.074   1.083  0.00  0.00    +0.152 HD
ATOM      4  O   UNL     1      29.354  18.018   0.037  0.00  0.00    -0.226 OA
ENDROOT
BRANCH   1   5
ATOM      5  O   UNL     1      28.230  17.007  -1.627  0.00  0.00    -0.450 OA
BRANCH   5   6
ATOM      6  C   UNL     1      27.070  17.466  -2.279  0.00  0.00    +0.240 C 
BRANCH   6   7
ATOM      7  C   UNL     1      26.977  17.250  -3.802  0.00  0.00    +0.100 C 
BRANCH   7   9
ATOM      8  N   UNL     1      25.976  15.533  -5.290  0.00  0.00    -0.134 NA
ATOM      9  C   UNL     1      25.939  16.253  -4.125  0.00  0.00    +0.086 A 
ATOM     10  C   UNL     1      24.878  15.816  -3.362  0.00  0.00    +0.133 A 
ATOM     11  N   UNL     1      24.430  14.716  -4.036  0.00  0.00    -0.251 N 
ATOM     12  N   UNL     1      25.028  14.609  -5.238  0.00  0.00    -0.065 NA
BRANCH  11  13
ATOM     13  C   UNL     1      23.709  13.587  -3.478  0.00  0.00    +0.149 C 
BRANCH  13  14
ATOM     14  C   UNL     1      23.863  13.385  -1.955  0.00  0.00    +0.021 C 
BRANCH  14  15
ATOM     15  C   UNL     1      24.252  11.944  -1.564  0.00  0.00    +0.125 C 
BRANCH  15  16
ATOM     16  C   UNL     1      24.999  11.822  -0.252  0.00  0.00    +0.305 C 
ATOM     17  O   UNL     1      24.475  11.654   0.837  0.00  0.00    -0.251 OA
BRANCH  16  18
ATOM     18  O   UNL     1      26.336  11.851  -0.404  0.00  0.00    -0.481 OA
ATOM     19  H   UNL     1      26.851  11.527   0.357  0.00  0.00    +0.295 HD
ENDBRANCH  16  18
ENDBRANCH  15  16
ENDBRANCH  14  15
BRANCH  14  20
ATOM     20  C   UNL     1      22.572  13.882  -1.242  0.00  0.00    +0.009 C 
BRANCH  20  21
ATOM     21  C   UNL     1      21.371  12.912  -1.268  0.00  0.00    -0.017 C 
ATOM     22  C   UNL     1      21.060  12.341   0.117  0.00  0.00    +0.007 C 
ATOM     23  C   UNL     1      20.122  13.617  -1.809  0.00  0.00    +0.007 C 
ENDBRANCH  20  21
ENDBRANCH  14  20
ENDBRANCH  13  14
ENDBRANCH  11  13
ENDBRANCH   7   9
ENDBRANCH   6   7
ENDBRANCH   5   6
ENDBRANCH   1   5
BRANCH   2  24
ATOM     24  C   UNL     1      28.190  14.538   0.425  0.00  0.00    +0.152 C 
BRANCH  24  25
ATOM     25  C   UNL     1      28.506  13.829   1.758  0.00  0.00    +0.193 C 
ATOM     26  O   UNL     1      27.288  13.179   2.182  0.00  0.00    -0.219 OA
BRANCH  25  27
ATOM     27  C   UNL     1      29.559  12.699   1.734  0.00  0.00    +0.212 C 
ATOM     28  O   UNL     1      29.151  11.652   0.838  0.00  0.00    -0.218 OA
BRANCH  27  29
ATOM     29  C   UNL     1      30.996  13.191   1.314  0.00  0.00    +0.171 C 
ATOM     30  O   UNL     1      31.220  13.091  -0.089  0.00  0.00    -0.343 OA
ATOM     31  C   UNL     1      32.470  13.225  -0.698  0.00  0.00    +0.220 C 
ATOM     32  C   UNL     1      33.530  12.333  -0.029  0.00  0.00    +0.076 C 
ATOM     33  C   UNL     1      33.508  12.640   1.477  0.00  0.00    +0.177 C 
ATOM     34  O   UNL     1      34.500  11.868   2.140  0.00  0.00    -0.221 OA
ATOM     35  C   UNL     1      32.089  12.361   2.062  0.00  0.00    +0.155 C 
BRANCH  35  36
ATOM     36  N   UNL     1      32.066  12.644   3.495  0.00  0.00    -0.202 NA
ATOM     37  C   UNL     1      31.901  11.799   4.544  0.00  0.00    +0.242 C 
ATOM     38  C   UNL     1      32.214  12.307   5.928  0.00  0.00    +0.096 C 
ATOM     39  O   UNL     1      31.506  10.652   4.344  0.00  0.00    -0.273 OA
ENDBRANCH  35  36
BRANCH  31  40
ATOM     40  C   UNL     1      32.972  14.766  -0.812  0.00  0.00    +0.391 C 
ATOM     41  O   UNL     1      34.263  14.684  -1.189  0.00  0.00    -0.243 OA
ATOM     42  O   UNL     1      31.865  15.519  -0.788  0.00  0.00    -0.243 OA
ENDBRANCH  31  40
ENDBRANCH  27  29
ENDBRANCH  25  27
ENDBRANCH  24  25
ENDBRANCH   2  24
TORSDOF 17
