REMARK VINA RESULT:    -6.640      0.000      0.000
REMARK INTER + INTRA:         -14.959
REMARK INTER:                 -12.391
REMARK INTRA:                  -2.569
REMARK UNBOUND:                -1.720
REMARK  Name = lig_assembled_54.pdb
REMARK  19 active torsions:
REMARK  status: ('A' for Active; 'I' for Inactive)
REMARK    1  A    between atoms: _2  and  _8
REMARK    2  A    between atoms: _4  and  _13
REMARK    3  A    between atoms: _5  and  _6
REMARK    4  A    between atoms: _5  and  _16
REMARK    5  A    between atoms: _8  and  _9
REMARK    6  A    between atoms: _9  and  _10
REMARK    7  A    between atoms: _10  and  _14
REMARK    8  A    between atoms: _10  and  _15
REMARK    9  A    between atoms: _11  and  _12
REMARK   10  A    between atoms: _11  and  _15
REMARK   11  A    between atoms: _13  and  _14
REMARK   12  A    between atoms: _16  and  _18
REMARK   13  A    between atoms: _17  and  _22
REMARK   14  A    between atoms: _18  and  _21
REMARK   15  A    between atoms: _26  and  _36
REMARK   16  A    between atoms: _28  and  _29
REMARK   17  A    between atoms: _30  and  _32
REMARK   18  A    between atoms: _32  and  _34
REMARK   19  A    between atoms: _34  and  _36
REMARK                            x       y       z     vdW  Elec       q    Type
REMARK                         _______ _______ _______ _____ _____    ______ ____
ROOT
ATOM      1  C   UNL     1      27.992  17.281  -0.873  0.00  0.00    +0.400 C 
ATOM      2  N   UNL     1      28.440  16.169  -0.199  0.00  0.00    -0.278 N 
ATOM      3  H   UNL     1      28.648  16.541   0.781  0.00  0.00    +0.152 HD
ATOM      4  O   UNL     1      27.769  18.300  -0.225  0.00  0.00    -0.226 OA
ENDROOT
BRANCH   1   5
ATOM      5  O   UNL     1      27.878  17.151  -2.154  0.00  0.00    -0.450 OA
BRANCH   5   6
ATOM      6  C   UNL     1      26.947  17.422  -3.176  0.00  0.00    +0.240 C 
BRANCH   6   7
ATOM      7  C   UNL     1      26.563  16.261  -4.114  0.00  0.00    +0.100 C 
BRANCH   7   9
ATOM      8  N   UNL     1      27.038  13.925  -3.444  0.00  0.00    -0.134 NA
ATOM      9  C   UNL     1      26.267  15.051  -3.323  0.00  0.00    +0.086 A 
ATOM     10  C   UNL     1      25.282  14.824  -2.387  0.00  0.00    +0.133 A 
ATOM     11  N   UNL     1      25.531  13.559  -1.948  0.00  0.00    -0.251 N 
ATOM     12  N   UNL     1      26.582  13.018  -2.590  0.00  0.00    -0.065 NA
BRANCH  11  13
ATOM     13  C   UNL     1      24.860  12.824  -0.894  0.00  0.00    +0.150 C 
BRANCH  13  14
ATOM     14  C   UNL     1      25.839  12.332   0.161  0.00  0.00    +0.084 C 
BRANCH  14  15
ATOM     15  C   UNL     1      25.205  11.390   1.190  0.00  0.00    +0.252 C 
BRANCH  15  16
ATOM     16  O   UNL     1      23.812  11.683   1.334  0.00  0.00    -0.352 OA
BRANCH  16  17
ATOM     17  C   UNL     1      22.956  10.560   1.132  0.00  0.00    +0.159 C 
ATOM     18  C   UNL     1      21.623  11.050   0.604  0.00  0.00    +0.034 C 
ENDBRANCH  16  17
ENDBRANCH  15  16
BRANCH  15  19
ATOM     19  O   UNL     1      25.877  11.598   2.439  0.00  0.00    -0.352 OA
BRANCH  19  20
ATOM     20  C   UNL     1      26.982  12.496   2.323  0.00  0.00    +0.159 C 
ATOM     21  C   UNL     1      27.481  12.849   3.709  0.00  0.00    +0.034 C 
ENDBRANCH  19  20
ENDBRANCH  15  19
ENDBRANCH  14  15
ENDBRANCH  13  14
ENDBRANCH  11  13
ENDBRANCH   7   9
ENDBRANCH   6   7
ENDBRANCH   5   6
ENDBRANCH   1   5
BRANCH   2  22
ATOM     22  C   UNL     1      28.737  14.739  -0.218  0.00  0.00    +0.152 C 
BRANCH  22  23
ATOM     23  C   UNL     1      29.752  14.243   0.832  0.00  0.00    +0.193 C 
ATOM     24  O   UNL     1      29.977  12.842   0.562  0.00  0.00    -0.219 OA
BRANCH  23  25
ATOM     25  C   UNL     1      31.163  14.870   0.815  0.00  0.00    +0.212 C 
ATOM     26  O   UNL     1      31.133  16.190   1.381  0.00  0.00    -0.218 OA
BRANCH  25  27
ATOM     27  C   UNL     1      32.237  14.014   1.590  0.00  0.00    +0.171 C 
ATOM     28  O   UNL     1      32.605  14.596   2.836  0.00  0.00    -0.343 OA
ATOM     29  C   UNL     1      33.697  14.187   3.605  0.00  0.00    +0.220 C 
ATOM     30  C   UNL     1      34.987  14.110   2.770  0.00  0.00    +0.076 C 
ATOM     31  C   UNL     1      34.692  13.230   1.543  0.00  0.00    +0.177 C 
ATOM     32  O   UNL     1      35.866  13.094   0.755  0.00  0.00    -0.221 OA
ATOM     33  C   UNL     1      33.520  13.841   0.713  0.00  0.00    +0.155 C 
BRANCH  33  34
ATOM     34  N   UNL     1      33.242  13.012  -0.457  0.00  0.00    -0.202 NA
ATOM     35  C   UNL     1      33.185  13.354  -1.769  0.00  0.00    +0.242 C 
ATOM     36  C   UNL     1      33.171  12.251  -2.795  0.00  0.00    +0.096 C 
ATOM     37  O   UNL     1      33.148  14.541  -2.086  0.00  0.00    -0.273 OA
ENDBRANCH  33  34
BRANCH  29  38
ATOM     38  C   UNL     1      33.432  12.807   4.422  0.00  0.00    +0.391 C 
ATOM     39  O   UNL     1      34.659  12.341   4.724  0.00  0.00    -0.243 OA
ATOM     40  O   UNL     1      32.132  12.812   4.743  0.00  0.00    -0.243 OA
ENDBRANCH  29  38
ENDBRANCH  25  27
ENDBRANCH  23  25
ENDBRANCH  22  23
ENDBRANCH   2  22
TORSDOF 17
