REMARK VINA RESULT:    -7.226      0.000      0.000
REMARK INTER + INTRA:         -17.001
REMARK INTER:                 -14.106
REMARK INTRA:                  -2.895
REMARK UNBOUND:                -3.439
REMARK  Name = lig_assembled_84.pdb
REMARK  16 active torsions:
REMARK  status: ('A' for Active; 'I' for Inactive)
REMARK    1  A    between atoms: _2  and  _10
REMARK    2  A    between atoms: _3  and  _13
REMARK    3  A    between atoms: _4  and  _16
REMARK    4  A    between atoms: _7  and  _8
REMARK    5  A    between atoms: _7  and  _23
REMARK    6  A    between atoms: _10  and  _11
REMARK    7  A    between atoms: _11  and  _12
REMARK    8  A    between atoms: _11  and  _13
REMARK    9  A    between atoms: _23  and  _25
REMARK   10  A    between atoms: _24  and  _29
REMARK   11  A    between atoms: _25  and  _28
REMARK   12  A    between atoms: _33  and  _43
REMARK   13  A    between atoms: _35  and  _36
REMARK   14  A    between atoms: _37  and  _39
REMARK   15  A    between atoms: _39  and  _41
REMARK   16  A    between atoms: _41  and  _43
REMARK                            x       y       z     vdW  Elec       q    Type
REMARK                         _______ _______ _______ _____ _____    ______ ____
ROOT
ATOM      1  C   UNL     1      26.463  16.411  -2.757  0.00  0.00    +0.240 C 
ENDROOT
BRANCH   1   2
ATOM      2  C   UNL     1      25.896  14.988  -2.591  0.00  0.00    +0.100 C 
BRANCH   2   4
ATOM      3  N   UNL     1      24.491  14.232  -4.487  0.00  0.00    -0.134 NA
ATOM      4  C   UNL     1      24.595  14.861  -3.274  0.00  0.00    +0.086 A 
ATOM      5  C   UNL     1      23.354  15.328  -2.902  0.00  0.00    +0.133 A 
ATOM      6  N   UNL     1      22.554  15.010  -3.958  0.00  0.00    -0.251 N 
ATOM      7  N   UNL     1      23.233  14.332  -4.898  0.00  0.00    -0.065 NA
BRANCH   6   8
ATOM      8  C   UNL     1      21.189  15.437  -4.195  0.00  0.00    +0.149 C 
BRANCH   8   9
ATOM      9  C   UNL     1      20.149  14.776  -3.275  0.00  0.00    +0.021 C 
ATOM     10  C   UNL     1      18.759  15.402  -3.464  0.00  0.00    +0.010 C 
BRANCH   9  11
ATOM     11  C   UNL     1      20.050  13.254  -3.541  0.00  0.00    +0.089 C 
BRANCH  11  12
ATOM     12  N   UNL     1      20.540  12.386  -2.461  0.00  0.00    -0.299 NA
ATOM     13  C   UNL     1      20.753  13.183  -1.223  0.00  0.00    +0.103 C 
ATOM     14  C   UNL     1      21.187  12.296  -0.039  0.00  0.00    +0.120 C 
ATOM     15  N   UNL     1      22.419  11.579  -0.385  0.00  0.00    -0.327 N 
ATOM     16  C   UNL     1      22.338  10.799  -1.629  0.00  0.00    +0.120 C 
ATOM     17  C   UNL     1      21.813  11.694  -2.789  0.00  0.00    +0.103 C 
BRANCH  15  18
ATOM     18  C   UNL     1      23.536  11.592   0.418  0.00  0.00    +0.030 A 
ATOM     19  C   UNL     1      23.491  11.114   1.742  0.00  0.00    +0.024 A 
ATOM     20  C   UNL     1      24.609  11.143   2.582  0.00  0.00    +0.022 A 
ATOM     21  C   UNL     1      25.809  11.646   2.107  0.00  0.00    +0.041 A 
ATOM     22 CL   UNL     1      27.188  11.690   3.136  0.00  0.00    -0.084 Cl
ATOM     23  C   UNL     1      25.897  12.126   0.806  0.00  0.00    +0.022 A 
ATOM     24  C   UNL     1      24.767  12.098  -0.024  0.00  0.00    +0.024 A 
ENDBRANCH  15  18
ENDBRANCH  11  12
ENDBRANCH   9  11
ENDBRANCH   8   9
ENDBRANCH   6   8
ENDBRANCH   2   4
ENDBRANCH   1   2
BRANCH   1  25
ATOM     25  O   UNL     1      27.615  16.743  -2.017  0.00  0.00    -0.450 OA
BRANCH  25  26
ATOM     26  C   UNL     1      27.939  17.115  -0.822  0.00  0.00    +0.400 C 
ATOM     27  N   UNL     1      28.393  16.119   0.009  0.00  0.00    -0.278 N 
ATOM     28  H   UNL     1      28.781  16.655   0.848  0.00  0.00    +0.152 HD
ATOM     29  O   UNL     1      27.904  18.263  -0.386  0.00  0.00    -0.226 OA
BRANCH  27  30
ATOM     30  C   UNL     1      28.565  14.691   0.261  0.00  0.00    +0.152 C 
BRANCH  30  31
ATOM     31  C   UNL     1      29.660  14.307   1.278  0.00  0.00    +0.193 C 
ATOM     32  O   UNL     1      29.832  12.876   1.182  0.00  0.00    -0.219 OA
BRANCH  31  33
ATOM     33  C   UNL     1      31.076  14.881   1.054  0.00  0.00    +0.212 C 
ATOM     34  O   UNL     1      31.159  16.224   1.558  0.00  0.00    -0.218 OA
BRANCH  33  35
ATOM     35  C   UNL     1      32.212  14.019   1.725  0.00  0.00    +0.171 C 
ATOM     36  O   UNL     1      32.654  14.565   2.964  0.00  0.00    -0.343 OA
ATOM     37  C   UNL     1      33.801  14.149   3.644  0.00  0.00    +0.220 C 
ATOM     38  C   UNL     1      35.033  14.125   2.723  0.00  0.00    +0.076 C 
ATOM     39  C   UNL     1      34.672  13.283   1.488  0.00  0.00    +0.177 C 
ATOM     40  O   UNL     1      35.793  13.196   0.620  0.00  0.00    -0.221 OA
ATOM     41  C   UNL     1      33.437  13.900   0.760  0.00  0.00    +0.155 C 
BRANCH  41  42
ATOM     42  N   UNL     1      33.095  13.106  -0.418  0.00  0.00    -0.202 NA
ATOM     43  C   UNL     1      33.050  13.469  -1.725  0.00  0.00    +0.242 C 
ATOM     44  C   UNL     1      32.954  12.383  -2.766  0.00  0.00    +0.096 C 
ATOM     45  O   UNL     1      33.088  14.660  -2.027  0.00  0.00    -0.273 OA
ENDBRANCH  41  42
BRANCH  37  46
ATOM     46  C   UNL     1      33.613  12.738   4.427  0.00  0.00    +0.391 C 
ATOM     47  O   UNL     1      34.858  12.378   4.798  0.00  0.00    -0.243 OA
ATOM     48  O   UNL     1      32.302  12.620   4.668  0.00  0.00    -0.243 OA
ENDBRANCH  37  46
ENDBRANCH  33  35
ENDBRANCH  31  33
ENDBRANCH  30  31
ENDBRANCH  27  30
ENDBRANCH  25  26
ENDBRANCH   1  25
TORSDOF 15
