REMARK VINA RESULT:    -6.846      0.000      0.000
REMARK INTER + INTRA:         -17.808
REMARK INTER:                 -15.067
REMARK INTRA:                  -2.740
REMARK UNBOUND:                -2.358
REMARK  Name = lig_assembled_30.pdb
REMARK  22 active torsions:
REMARK  status: ('A' for Active; 'I' for Inactive)
REMARK    1  A    between atoms: _2  and  _8
REMARK    2  A    between atoms: _4  and  _17
REMARK    3  A    between atoms: _4  and  _18
REMARK    4  A    between atoms: _5  and  _6
REMARK    5  A    between atoms: _5  and  _20
REMARK    6  A    between atoms: _8  and  _9
REMARK    7  A    between atoms: _9  and  _10
REMARK    8  A    between atoms: _10  and  _11
REMARK    9  A    between atoms: _11  and  _12
REMARK   10  A    between atoms: _12  and  _13
REMARK   11  A    between atoms: _13  and  _14
REMARK   12  A    between atoms: _14  and  _15
REMARK   13  A    between atoms: _15  and  _16
REMARK   14  A    between atoms: _16  and  _17
REMARK   15  A    between atoms: _20  and  _22
REMARK   16  A    between atoms: _21  and  _26
REMARK   17  A    between atoms: _22  and  _25
REMARK   18  A    between atoms: _30  and  _40
REMARK   19  A    between atoms: _32  and  _33
REMARK   20  A    between atoms: _34  and  _36
REMARK   21  A    between atoms: _36  and  _38
REMARK   22  A    between atoms: _38  and  _40
REMARK                            x       y       z     vdW  Elec       q    Type
REMARK                         _______ _______ _______ _____ _____    ______ ____
ROOT
ATOM      1  C   UNL     1      27.861  17.346  -1.049  0.00  0.00    +0.400 C 
ATOM      2  N   UNL     1      28.229  16.311  -0.223  0.00  0.00    -0.278 N 
ATOM      3  H   UNL     1      28.419  16.795   0.711  0.00  0.00    +0.152 HD
ATOM      4  O   UNL     1      27.663  18.448  -0.544  0.00  0.00    -0.226 OA
ENDROOT
BRANCH   1   5
ATOM      5  O   UNL     1      27.787  17.059  -2.307  0.00  0.00    -0.450 OA
BRANCH   5   6
ATOM      6  C   UNL     1      26.980  17.351  -3.424  0.00  0.00    +0.240 C 
BRANCH   6   7
ATOM      7  C   UNL     1      26.377  16.163  -4.197  0.00  0.00    +0.100 C 
BRANCH   7   9
ATOM      8  N   UNL     1      25.868  14.306  -2.639  0.00  0.00    -0.134 NA
ATOM      9  C   UNL     1      25.448  15.410  -3.335  0.00  0.00    +0.086 A 
ATOM     10  C   UNL     1      24.112  15.625  -3.075  0.00  0.00    +0.133 A 
ATOM     11  N   UNL     1      23.783  14.620  -2.217  0.00  0.00    -0.251 N 
ATOM     12  N   UNL     1      24.836  13.828  -1.958  0.00  0.00    -0.065 NA
BRANCH  11  13
ATOM     13  C   UNL     1      22.486  14.329  -1.645  0.00  0.00    +0.145 C 
BRANCH  13  14
ATOM     14  C   UNL     1      21.768  13.238  -2.431  0.00  0.00    +0.023 C 
BRANCH  14  15
ATOM     15  C   UNL     1      20.661  12.579  -1.611  0.00  0.00    +0.002 C 
BRANCH  15  16
ATOM     16  C   UNL     1      20.966  12.703  -0.118  0.00  0.00    +0.000 C 
BRANCH  16  17
ATOM     17  C   UNL     1      21.597  11.431   0.439  0.00  0.00    +0.000 C 
BRANCH  17  18
ATOM     18  C   UNL     1      21.804  11.546   1.951  0.00  0.00    +0.000 C 
BRANCH  18  19
ATOM     19  C   UNL     1      22.466  10.289   2.507  0.00  0.00    +0.000 C 
BRANCH  19  20
ATOM     20  C   UNL     1      23.908  10.555   2.942  0.00  0.00    +0.001 C 
BRANCH  20  21
ATOM     21  C   UNL     1      24.828  10.626   1.723  0.00  0.00    +0.011 C 
BRANCH  21  22
ATOM     22  C   UNL     1      25.625  11.927   1.687  0.00  0.00    +0.120 C 
BRANCH  22  23
ATOM     23  C   UNL     1      26.767  11.903   2.679  0.00  0.00    +0.305 C 
ATOM     24  O   UNL     1      27.316  10.899   3.103  0.00  0.00    -0.251 OA
BRANCH  23  25
ATOM     25  O   UNL     1      27.136  13.144   3.069  0.00  0.00    -0.481 OA
ATOM     26  H   UNL     1      27.110  13.805   2.351  0.00  0.00    +0.295 HD
ENDBRANCH  23  25
ENDBRANCH  22  23
ENDBRANCH  21  22
ENDBRANCH  20  21
ENDBRANCH  19  20
ENDBRANCH  18  19
ENDBRANCH  17  18
ENDBRANCH  16  17
ENDBRANCH  15  16
ENDBRANCH  14  15
ENDBRANCH  13  14
ENDBRANCH  11  13
ENDBRANCH   7   9
ENDBRANCH   6   7
ENDBRANCH   5   6
ENDBRANCH   1   5
BRANCH   2  27
ATOM     27  C   UNL     1      28.459  14.879  -0.049  0.00  0.00    +0.152 C 
BRANCH  27  28
ATOM     28  C   UNL     1      29.512  14.483   1.007  0.00  0.00    +0.193 C 
ATOM     29  O   UNL     1      29.575  13.039   1.008  0.00  0.00    -0.219 OA
BRANCH  28  30
ATOM     30  C   UNL     1      30.970  14.932   0.765  0.00  0.00    +0.212 C 
ATOM     31  O   UNL     1      31.139  16.309   1.138  0.00  0.00    -0.218 OA
BRANCH  30  32
ATOM     32  C   UNL     1      32.028  14.065   1.548  0.00  0.00    +0.171 C 
ATOM     33  O   UNL     1      32.399  14.646   2.794  0.00  0.00    -0.343 OA
ATOM     34  C   UNL     1      33.481  14.224   3.569  0.00  0.00    +0.220 C 
ATOM     35  C   UNL     1      34.774  14.127   2.740  0.00  0.00    +0.076 C 
ATOM     36  C   UNL     1      34.473  13.247   1.515  0.00  0.00    +0.177 C 
ATOM     37  O   UNL     1      35.649  13.092   0.733  0.00  0.00    -0.221 OA
ATOM     38  C   UNL     1      33.313  13.870   0.678  0.00  0.00    +0.155 C 
BRANCH  38  39
ATOM     39  N   UNL     1      33.029  13.041  -0.490  0.00  0.00    -0.202 NA
ATOM     40  C   UNL     1      33.027  13.369  -1.808  0.00  0.00    +0.242 C 
ATOM     41  C   UNL     1      32.989  12.255  -2.822  0.00  0.00    +0.096 C 
ATOM     42  O   UNL     1      33.057  14.552  -2.139  0.00  0.00    -0.273 OA
ENDBRANCH  38  39
BRANCH  34  43
ATOM     43  C   UNL     1      33.194  12.851   4.389  0.00  0.00    +0.391 C 
ATOM     44  O   UNL     1      34.390  12.493   4.897  0.00  0.00    -0.243 OA
ATOM     45  O   UNL     1      31.864  12.761   4.505  0.00  0.00    -0.243 OA
ENDBRANCH  34  43
ENDBRANCH  30  32
ENDBRANCH  28  30
ENDBRANCH  27  28
ENDBRANCH   2  27
TORSDOF 22
