REMARK VINA RESULT:    -7.429      0.000      0.000
REMARK INTER + INTRA:         -14.455
REMARK INTER:                 -12.589
REMARK INTRA:                  -1.866
REMARK UNBOUND:                -1.815
REMARK  Name = lig_assembled_71.pdb
REMARK  12 active torsions:
REMARK  status: ('A' for Active; 'I' for Inactive)
REMARK    1  A    between atoms: _2  and  _11
REMARK    2  A    between atoms: _8  and  _9
REMARK    3  A    between atoms: _8  and  _17
REMARK    4  A    between atoms: _11  and  _12
REMARK    5  A    between atoms: _17  and  _19
REMARK    6  A    between atoms: _18  and  _23
REMARK    7  A    between atoms: _19  and  _22
REMARK    8  A    between atoms: _27  and  _37
REMARK    9  A    between atoms: _29  and  _30
REMARK   10  A    between atoms: _31  and  _33
REMARK   11  A    between atoms: _33  and  _35
REMARK   12  A    between atoms: _35  and  _37
REMARK                            x       y       z     vdW  Elec       q    Type
REMARK                         _______ _______ _______ _____ _____    ______ ____
ROOT
ATOM      1  C   UNL     1      27.839  17.324  -1.437  0.00  0.00    +0.400 C 
ATOM      2  N   UNL     1      28.243  16.318  -0.590  0.00  0.00    -0.278 N 
ATOM      3  H   UNL     1      28.565  16.844   0.283  0.00  0.00    +0.152 HD
ATOM      4  O   UNL     1      27.761  18.464  -0.986  0.00  0.00    -0.226 OA
ENDROOT
BRANCH   2   5
ATOM      5  C   UNL     1      28.412  14.888  -0.349  0.00  0.00    +0.152 C 
BRANCH   5   6
ATOM      6  C   UNL     1      29.585  14.487   0.570  0.00  0.00    +0.193 C 
ATOM      7  O   UNL     1      29.395  13.094   0.901  0.00  0.00    -0.219 OA
BRANCH   6   8
ATOM      8  C   UNL     1      31.011  14.553  -0.020  0.00  0.00    +0.212 C 
ATOM      9  O   UNL     1      31.420  15.919  -0.193  0.00  0.00    -0.218 OA
BRANCH   8  10
ATOM     10  C   UNL     1      32.086  13.812   0.863  0.00  0.00    +0.171 C 
ATOM     11  O   UNL     1      32.274  14.431   2.131  0.00  0.00    -0.343 OA
ATOM     12  C   UNL     1      33.323  14.136   3.005  0.00  0.00    +0.220 C 
ATOM     13  C   UNL     1      34.688  14.190   2.296  0.00  0.00    +0.076 C 
ATOM     14  C   UNL     1      34.602  13.282   1.058  0.00  0.00    +0.177 C 
ATOM     15  O   UNL     1      35.853  13.264   0.386  0.00  0.00    -0.221 OA
ATOM     16  C   UNL     1      33.458  13.768   0.114  0.00  0.00    +0.155 C 
BRANCH  16  17
ATOM     17  N   UNL     1      33.378  12.913  -1.068  0.00  0.00    -0.202 NA
ATOM     18  C   UNL     1      33.462  13.239  -2.383  0.00  0.00    +0.242 C 
ATOM     19  C   UNL     1      33.643  12.129  -3.385  0.00  0.00    +0.096 C 
ATOM     20  O   UNL     1      33.391  14.418  -2.722  0.00  0.00    -0.273 OA
ENDBRANCH  16  17
BRANCH  12  21
ATOM     21  C   UNL     1      33.122  12.739   3.809  0.00  0.00    +0.391 C 
ATOM     22  O   UNL     1      34.349  12.423   4.268  0.00  0.00    -0.243 OA
ATOM     23  O   UNL     1      31.802  12.590   3.968  0.00  0.00    -0.243 OA
ENDBRANCH  12  21
ENDBRANCH   8  10
ENDBRANCH   6   8
ENDBRANCH   5   6
ENDBRANCH   2   5
BRANCH   1  24
ATOM     24  O   UNL     1      27.605  16.968  -2.657  0.00  0.00    -0.450 OA
BRANCH  24  25
ATOM     25  C   UNL     1      26.540  16.952  -3.580  0.00  0.00    +0.240 C 
BRANCH  25  26
ATOM     26  C   UNL     1      26.272  15.635  -4.332  0.00  0.00    +0.100 C 
BRANCH  26  28
ATOM     27  N   UNL     1      24.425  13.998  -4.610  0.00  0.00    -0.134 NA
ATOM     28  C   UNL     1      24.890  15.178  -4.089  0.00  0.00    +0.086 A 
ATOM     29  C   UNL     1      23.886  15.772  -3.362  0.00  0.00    +0.134 A 
ATOM     30  N   UNL     1      22.829  14.919  -3.490  0.00  0.00    -0.243 N 
ATOM     31  N   UNL     1      23.163  13.845  -4.229  0.00  0.00    -0.065 NA
BRANCH  30  32
ATOM     32  C   UNL     1      21.528  14.988  -2.858  0.00  0.00    +0.241 C 
BRANCH  32  33
ATOM     33  C   UNL     1      21.453  14.113  -1.633  0.00  0.00    +0.241 C 
ATOM     34  O   UNL     1      20.478  14.182  -0.886  0.00  0.00    -0.273 OA
ATOM     35  N   UNL     1      22.570  13.335  -1.416  0.00  0.00    -0.253 N 
ATOM     36  H   UNL     1      23.423  13.460  -1.939  0.00  0.00    +0.158 HD
ATOM     37  C   UNL     1      22.695  12.439  -0.360  0.00  0.00    +0.221 A 
ATOM     38  N   UNL     1      23.940  11.989  -0.135  0.00  0.00    -0.223 NA
ATOM     39  C   UNL     1      24.094  11.178   0.932  0.00  0.00    +0.116 A 
ATOM     40  C   UNL     1      23.062  10.786   1.752  0.00  0.00    +0.039 A 
ATOM     41  C   UNL     1      21.827  11.266   1.405  0.00  0.00    +0.116 A 
ATOM     42  N   UNL     1      21.628  12.086   0.362  0.00  0.00    -0.223 NA
ENDBRANCH  32  33
ENDBRANCH  30  32
ENDBRANCH  26  28
ENDBRANCH  25  26
ENDBRANCH  24  25
ENDBRANCH   1  24
TORSDOF 12
