REMARK VINA RESULT:    -6.947      0.000      0.000
REMARK INTER + INTRA:         -15.513
REMARK INTER:                 -13.243
REMARK INTRA:                  -2.269
REMARK UNBOUND:                -2.880
REMARK  Name = lig_assembled_21.pdb
REMARK  15 active torsions:
REMARK  status: ('A' for Active; 'I' for Inactive)
REMARK    1  A    between atoms: _2  and  _8
REMARK    2  A    between atoms: _5  and  _6
REMARK    3  A    between atoms: _5  and  _18
REMARK    4  A    between atoms: _8  and  _9
REMARK    5  A    between atoms: _10  and  _17
REMARK    6  A    between atoms: _11  and  _12
REMARK    7  A    between atoms: _11  and  _17
REMARK    8  A    between atoms: _18  and  _20
REMARK    9  A    between atoms: _19  and  _24
REMARK   10  A    between atoms: _20  and  _23
REMARK   11  A    between atoms: _28  and  _38
REMARK   12  A    between atoms: _30  and  _31
REMARK   13  A    between atoms: _32  and  _34
REMARK   14  A    between atoms: _34  and  _36
REMARK   15  A    between atoms: _36  and  _38
REMARK                            x       y       z     vdW  Elec       q    Type
REMARK                         _______ _______ _______ _____ _____    ______ ____
ROOT
ATOM      1  C   UNL     1      27.853  17.204  -0.893  0.00  0.00    +0.400 C 
ATOM      2  N   UNL     1      28.328  16.201  -0.080  0.00  0.00    -0.278 N 
ATOM      3  H   UNL     1      28.748  16.732   0.747  0.00  0.00    +0.152 HD
ATOM      4  O   UNL     1      27.841  18.350  -0.452  0.00  0.00    -0.226 OA
ENDROOT
BRANCH   2   5
ATOM      5  C   UNL     1      28.499  14.771   0.160  0.00  0.00    +0.152 C 
BRANCH   5   6
ATOM      6  C   UNL     1      29.584  14.379   1.184  0.00  0.00    +0.193 C 
ATOM      7  O   UNL     1      29.696  12.939   1.140  0.00  0.00    -0.219 OA
BRANCH   6   8
ATOM      8  C   UNL     1      31.022  14.884   0.930  0.00  0.00    +0.212 C 
ATOM      9  O   UNL     1      31.152  16.254   1.343  0.00  0.00    -0.218 OA
BRANCH   8  10
ATOM     10  C   UNL     1      32.123  14.029   1.666  0.00  0.00    +0.171 C 
ATOM     11  O   UNL     1      32.508  14.591   2.916  0.00  0.00    -0.343 OA
ATOM     12  C   UNL     1      33.621  14.182   3.655  0.00  0.00    +0.220 C 
ATOM     13  C   UNL     1      34.895  14.142   2.793  0.00  0.00    +0.076 C 
ATOM     14  C   UNL     1      34.588  13.283   1.555  0.00  0.00    +0.177 C 
ATOM     15  O   UNL     1      35.748  13.180   0.741  0.00  0.00    -0.221 OA
ATOM     16  C   UNL     1      33.391  13.892   0.761  0.00  0.00    +0.155 C 
BRANCH  16  17
ATOM     17  N   UNL     1      33.101  13.083  -0.420  0.00  0.00    -0.202 NA
ATOM     18  C   UNL     1      33.079  13.436  -1.730  0.00  0.00    +0.242 C 
ATOM     19  C   UNL     1      33.041  12.342  -2.766  0.00  0.00    +0.096 C 
ATOM     20  O   UNL     1      33.092  14.626  -2.039  0.00  0.00    -0.273 OA
ENDBRANCH  16  17
BRANCH  12  21
ATOM     21  C   UNL     1      33.393  12.783   4.448  0.00  0.00    +0.391 C 
ATOM     22  O   UNL     1      34.614  12.434   4.897  0.00  0.00    -0.243 OA
ATOM     23  O   UNL     1      32.070  12.664   4.615  0.00  0.00    -0.243 OA
ENDBRANCH  12  21
ENDBRANCH   8  10
ENDBRANCH   6   8
ENDBRANCH   5   6
ENDBRANCH   2   5
BRANCH   1  24
ATOM     24  O   UNL     1      27.487  16.838  -2.078  0.00  0.00    -0.450 OA
BRANCH  24  25
ATOM     25  C   UNL     1      26.723  17.323  -3.157  0.00  0.00    +0.240 C 
BRANCH  25  26
ATOM     26  C   UNL     1      26.118  16.286  -4.122  0.00  0.00    +0.100 C 
BRANCH  26  28
ATOM     27  N   UNL     1      24.174  15.864  -2.654  0.00  0.00    -0.134 NA
ATOM     28  C   UNL     1      25.217  15.375  -3.392  0.00  0.00    +0.086 A 
ATOM     29  C   UNL     1      25.206  13.999  -3.329  0.00  0.00    +0.134 A 
ATOM     30  N   UNL     1      24.076  13.709  -2.612  0.00  0.00    -0.247 N 
ATOM     31  N   UNL     1      23.485  14.838  -2.180  0.00  0.00    -0.065 NA
BRANCH  30  32
ATOM     32  C   UNL     1      23.510  12.380  -2.404  0.00  0.00    +0.184 C 
BRANCH  32  33
ATOM     33  C   UNL     1      22.888  12.137  -1.051  0.00  0.00    +0.016 A 
ATOM     34  C   UNL     1      23.599  11.522  -0.005  0.00  0.00    +0.137 A 
ATOM     35  C   UNL     1      23.008  11.309   1.240  0.00  0.00    +0.047 A 
ATOM     36  C   UNL     1      21.695  11.726   1.461  0.00  0.00    +0.004 A 
ATOM     37  C   UNL     1      20.968  12.324   0.435  0.00  0.00    +0.001 A 
ATOM     38  C   UNL     1      21.561  12.531  -0.812  0.00  0.00    +0.009 A 
BRANCH  34  39
ATOM     39  O   UNL     1      24.903  11.058  -0.306  0.00  0.00    -0.426 OA
BRANCH  39  40
ATOM     40  C   UNL     1      26.054  11.743   0.091  0.00  0.00    +0.309 C 
ATOM     41  O   UNL     1      26.240  12.329   1.149  0.00  0.00    -0.251 OA
ATOM     42  C   UNL     1      27.102  11.590  -0.973  0.00  0.00    +0.136 C 
ENDBRANCH  39  40
ENDBRANCH  34  39
ENDBRANCH  32  33
ENDBRANCH  30  32
ENDBRANCH  26  28
ENDBRANCH  25  26
ENDBRANCH  24  25
ENDBRANCH   1  24
TORSDOF 14
