REMARK VINA RESULT:    -7.685      0.000      0.000
REMARK INTER + INTRA:         -15.725
REMARK INTER:                 -12.959
REMARK INTRA:                  -2.766
REMARK UNBOUND:                -1.975
REMARK  Name = lig_assembled_77.pdb
REMARK  14 active torsions:
REMARK  status: ('A' for Active; 'I' for Inactive)
REMARK    1  A    between atoms: _2  and  _9
REMARK    2  A    between atoms: _3  and  _16
REMARK    3  A    between atoms: _6  and  _7
REMARK    4  A    between atoms: _6  and  _22
REMARK    5  A    between atoms: _12  and  _50
REMARK    6  A    between atoms: _13  and  _50
REMARK    7  A    between atoms: _22  and  _24
REMARK    8  A    between atoms: _23  and  _28
REMARK    9  A    between atoms: _24  and  _27
REMARK   10  A    between atoms: _32  and  _42
REMARK   11  A    between atoms: _34  and  _35
REMARK   12  A    between atoms: _36  and  _38
REMARK   13  A    between atoms: _38  and  _40
REMARK   14  A    between atoms: _40  and  _42
REMARK                            x       y       z     vdW  Elec       q    Type
REMARK                         _______ _______ _______ _____ _____    ______ ____
ROOT
ATOM      1  C   UNL     1      26.581  16.258  -4.542  0.00  0.00    +0.240 C 
ENDROOT
BRANCH   1   2
ATOM      2  C   UNL     1      26.317  17.317  -3.454  0.00  0.00    +0.100 C 
BRANCH   2   4
ATOM      3  N   UNL     1      27.551  18.102  -1.461  0.00  0.00    -0.134 NA
ATOM      4  C   UNL     1      27.182  17.078  -2.283  0.00  0.00    +0.086 A 
ATOM      5  C   UNL     1      27.735  15.907  -1.819  0.00  0.00    +0.139 A 
ATOM      6  N   UNL     1      28.435  16.267  -0.690  0.00  0.00    -0.220 N 
ATOM      7  N   UNL     1      28.319  17.605  -0.501  0.00  0.00    -0.061 NA
BRANCH   6   8
ATOM      8  C   UNL     1      29.135  15.439   0.227  0.00  0.00    +0.067 A 
ATOM      9  C   UNL     1      30.524  15.556   0.389  0.00  0.00    +0.030 A 
ATOM     10  C   UNL     1      31.213  14.653   1.205  0.00  0.00    +0.029 A 
ATOM     11  C   UNL     1      30.513  13.637   1.858  0.00  0.00    +0.094 A 
ATOM     12  C   UNL     1      29.120  13.567   1.777  0.00  0.00    +0.029 A 
ATOM     13  C   UNL     1      28.432  14.460   0.951  0.00  0.00    +0.030 A 
BRANCH  11  14
ATOM     14  S   UNL     1      31.401  12.445   2.840  0.00  0.00    +0.025 S 
ATOM     15  O   UNL     1      30.953  12.635   4.209  0.00  0.00    -0.164 OA
ATOM     16  O   UNL     1      31.262  11.156   2.189  0.00  0.00    -0.164 OA
BRANCH  14  17
ATOM     17  C   UNL     1      33.136  12.843   2.800  0.00  0.00    +0.094 A 
ATOM     18  C   UNL     1      33.972  12.317   1.813  0.00  0.00    +0.029 A 
ATOM     19  C   UNL     1      35.341  12.601   1.847  0.00  0.00    +0.024 A 
ATOM     20  C   UNL     1      35.881  13.442   2.829  0.00  0.00    +0.025 A 
ATOM     21  C   UNL     1      35.035  13.935   3.827  0.00  0.00    +0.024 A 
ATOM     22  C   UNL     1      33.664  13.657   3.805  0.00  0.00    +0.029 A 
BRANCH  20  23
ATOM     23  N   UNL     1      37.266  13.579   2.955  0.00  0.00    -0.358 N 
ATOM     24  H   UNL     1      37.573  14.461   3.352  0.00  0.00    +0.142 HD
ATOM     25  H   UNL     1      37.730  12.781   3.376  0.00  0.00    +0.142 HD
ENDBRANCH  20  23
ENDBRANCH  14  17
ENDBRANCH  11  14
ENDBRANCH   6   8
ENDBRANCH   2   4
ENDBRANCH   1   2
BRANCH   1  26
ATOM     26  O   UNL     1      25.522  15.390  -4.874  0.00  0.00    -0.450 OA
BRANCH  26  27
ATOM     27  C   UNL     1      24.609  14.688  -4.287  0.00  0.00    +0.400 C 
ATOM     28  N   UNL     1      25.050  13.550  -3.653  0.00  0.00    -0.278 N 
ATOM     29  H   UNL     1      24.200  13.239  -3.085  0.00  0.00    +0.152 HD
ATOM     30  O   UNL     1      23.413  14.960  -4.224  0.00  0.00    -0.226 OA
BRANCH  28  31
ATOM     31  C   UNL     1      26.128  12.591  -3.425  0.00  0.00    +0.152 C 
BRANCH  31  32
ATOM     32  C   UNL     1      25.776  11.368  -2.553  0.00  0.00    +0.193 C 
ATOM     33  O   UNL     1      27.016  10.677  -2.287  0.00  0.00    -0.219 OA
BRANCH  32  34
ATOM     34  C   UNL     1      25.176  11.635  -1.155  0.00  0.00    +0.212 C 
ATOM     35  O   UNL     1      25.554  12.940  -0.688  0.00  0.00    -0.218 OA
BRANCH  34  36
ATOM     36  C   UNL     1      23.604  11.522  -1.118  0.00  0.00    +0.171 C 
ATOM     37  O   UNL     1      22.967  12.472  -1.967  0.00  0.00    -0.343 OA
ATOM     38  C   UNL     1      21.599  12.755  -1.945  0.00  0.00    +0.220 C 
ATOM     39  C   UNL     1      21.101  13.052  -0.520  0.00  0.00    +0.076 C 
ATOM     40  C   UNL     1      21.533  11.879   0.375  0.00  0.00    +0.177 C 
ATOM     41  O   UNL     1      21.062  12.084   1.699  0.00  0.00    -0.221 OA
ATOM     42  C   UNL     1      23.085  11.722   0.344  0.00  0.00    +0.155 C 
BRANCH  42  43
ATOM     43  N   UNL     1      23.500  10.612   1.198  0.00  0.00    -0.202 NA
ATOM     44  C   UNL     1      24.334  10.607   2.269  0.00  0.00    +0.242 C 
ATOM     45  C   UNL     1      24.360   9.384   3.149  0.00  0.00    +0.096 C 
ATOM     46  O   UNL     1      25.040  11.587   2.494  0.00  0.00    -0.273 OA
ENDBRANCH  42  43
BRANCH  38  47
ATOM     47  C   UNL     1      20.691  11.621  -2.671  0.00  0.00    +0.391 C 
ATOM     48  O   UNL     1      19.554  12.255  -3.017  0.00  0.00    -0.243 OA
ATOM     49  O   UNL     1      21.512  10.592  -2.917  0.00  0.00    -0.243 OA
ENDBRANCH  38  47
ENDBRANCH  34  36
ENDBRANCH  32  34
ENDBRANCH  31  32
ENDBRANCH  28  31
ENDBRANCH  26  27
ENDBRANCH   1  26
TORSDOF 14
