REMARK VINA RESULT:    -7.287      0.000      0.000
REMARK INTER + INTRA:         -15.737
REMARK INTER:                 -13.478
REMARK INTRA:                  -2.260
REMARK UNBOUND:                -2.913
REMARK  Name = lig_assembled_92.pdb
REMARK  13 active torsions:
REMARK  status: ('A' for Active; 'I' for Inactive)
REMARK    1  A    between atoms: _2  and  _10
REMARK    2  A    between atoms: _3  and  _49
REMARK    3  A    between atoms: _7  and  _8
REMARK    4  A    between atoms: _7  and  _20
REMARK    5  A    between atoms: _13  and  _49
REMARK    6  A    between atoms: _20  and  _22
REMARK    7  A    between atoms: _21  and  _26
REMARK    8  A    between atoms: _22  and  _25
REMARK    9  A    between atoms: _30  and  _40
REMARK   10  A    between atoms: _32  and  _33
REMARK   11  A    between atoms: _34  and  _36
REMARK   12  A    between atoms: _36  and  _38
REMARK   13  A    between atoms: _38  and  _40
REMARK                            x       y       z     vdW  Elec       q    Type
REMARK                         _______ _______ _______ _____ _____    ______ ____
ROOT
ATOM      1  O   UNL     1      27.494  17.337  -2.755  0.00  0.00    -0.450 OA
ENDROOT
BRANCH   1   2
ATOM      2  C   UNL     1      27.659  17.477  -1.481  0.00  0.00    +0.400 C 
ATOM      3  N   UNL     1      28.088  16.356  -0.809  0.00  0.00    -0.278 N 
ATOM      4  H   UNL     1      28.344  16.731   0.158  0.00  0.00    +0.152 HD
ATOM      5  O   UNL     1      27.498  18.511  -0.838  0.00  0.00    -0.226 OA
BRANCH   3   6
ATOM      6  C   UNL     1      28.330  14.916  -0.820  0.00  0.00    +0.152 C 
BRANCH   6   7
ATOM      7  C   UNL     1      29.350  14.391   0.211  0.00  0.00    +0.193 C 
ATOM      8  O   UNL     1      29.318  12.949   0.129  0.00  0.00    -0.219 OA
BRANCH   7   9
ATOM      9  C   UNL     1      30.835  14.756  -0.002  0.00  0.00    +0.212 C 
ATOM     10  O   UNL     1      31.035  16.168   0.176  0.00  0.00    -0.218 OA
BRANCH   9  11
ATOM     11  C   UNL     1      31.813  13.983   0.963  0.00  0.00    +0.171 C 
ATOM     12  O   UNL     1      31.981  14.642   2.214  0.00  0.00    -0.343 OA
ATOM     13  C   UNL     1      32.964  14.314   3.151  0.00  0.00    +0.220 C 
ATOM     14  C   UNL     1      34.362  14.246   2.512  0.00  0.00    +0.076 C 
ATOM     15  C   UNL     1      34.273  13.294   1.307  0.00  0.00    +0.177 C 
ATOM     16  O   UNL     1      35.551  13.163   0.701  0.00  0.00    -0.221 OA
ATOM     17  C   UNL     1      33.213  13.815   0.287  0.00  0.00    +0.155 C 
BRANCH  17  18
ATOM     18  N   UNL     1      33.131  12.918  -0.862  0.00  0.00    -0.202 NA
ATOM     19  C   UNL     1      33.235  13.192  -2.187  0.00  0.00    +0.242 C 
ATOM     20  C   UNL     1      33.408  12.042  -3.145  0.00  0.00    +0.096 C 
ATOM     21  O   UNL     1      33.189  14.359  -2.571  0.00  0.00    -0.273 OA
ENDBRANCH  17  18
BRANCH  13  22
ATOM     22  C   UNL     1      32.628  12.969   3.998  0.00  0.00    +0.391 C 
ATOM     23  O   UNL     1      33.695  12.789   4.802  0.00  0.00    -0.243 OA
ATOM     24  O   UNL     1      31.326  12.726   3.805  0.00  0.00    -0.243 OA
ENDBRANCH  13  22
ENDBRANCH   9  11
ENDBRANCH   7   9
ENDBRANCH   6   7
ENDBRANCH   3   6
ENDBRANCH   1   2
BRANCH   1  25
ATOM     25  C   UNL     1      26.447  17.249  -3.693  0.00  0.00    +0.240 C 
BRANCH  25  26
ATOM     26  C   UNL     1      26.427  16.019  -4.622  0.00  0.00    +0.100 C 
BRANCH  26  28
ATOM     27  N   UNL     1      26.696  13.613  -4.086  0.00  0.00    -0.134 NA
ATOM     28  C   UNL     1      26.074  14.807  -3.861  0.00  0.00    +0.086 A 
ATOM     29  C   UNL     1      25.146  14.646  -2.858  0.00  0.00    +0.139 A 
ATOM     30  N   UNL     1      25.258  13.329  -2.476  0.00  0.00    -0.220 N 
ATOM     31  N   UNL     1      26.192  12.719  -3.246  0.00  0.00    -0.061 NA
BRANCH  30  32
ATOM     32  C   UNL     1      24.575  12.653  -1.433  0.00  0.00    +0.067 A 
ATOM     33  C   UNL     1      23.197  12.408  -1.530  0.00  0.00    +0.030 A 
ATOM     34  C   UNL     1      22.518  11.796  -0.478  0.00  0.00    +0.031 A 
ATOM     35  C   UNL     1      23.215  11.415   0.671  0.00  0.00    +0.109 A 
ATOM     36  C   UNL     1      24.588  11.642   0.777  0.00  0.00    +0.031 A 
ATOM     37  C   UNL     1      25.272  12.253  -0.280  0.00  0.00    +0.030 A 
BRANCH  35  38
ATOM     38  S   UNL     1      22.294  10.779   2.046  0.00  0.00    +0.074 S 
ATOM     39  O   UNL     1      21.361  11.809   2.460  0.00  0.00    -0.150 OA
ATOM     40  O   UNL     1      21.813   9.459   1.710  0.00  0.00    -0.150 OA
BRANCH  38  41
ATOM     41  N   UNL     1      23.437  10.701   3.285  0.00  0.00    -0.194 N 
ATOM     42  H   UNL     1      23.071  11.268   4.046  0.00  0.00    +0.176 HD
ATOM     43  C   UNL     1      23.723   9.373   3.662  0.00  0.00    +0.177 A 
ATOM     44  S   UNL     1      22.990   8.616   5.007  0.00  0.00    -0.059 S 
ATOM     45  C   UNL     1      23.981   7.240   4.746  0.00  0.00    +0.068 A 
ATOM     46  C   UNL     1      24.849   7.491   3.703  0.00  0.00    +0.120 A 
ATOM     47  N   UNL     1      24.677   8.704   3.062  0.00  0.00    -0.232 NA
ENDBRANCH  38  41
ENDBRANCH  35  38
ENDBRANCH  30  32
ENDBRANCH  26  28
ENDBRANCH  25  26
ENDBRANCH   1  25
TORSDOF 13
