REMARK VINA RESULT:    -6.668      0.000      0.000
REMARK INTER + INTRA:         -14.411
REMARK INTER:                 -12.466
REMARK INTRA:                  -1.945
REMARK UNBOUND:                -2.286
REMARK  Name = lig_assembled_62.pdb
REMARK  15 active torsions:
REMARK  status: ('A' for Active; 'I' for Inactive)
REMARK    1  A    between atoms: _2  and  _9
REMARK    2  A    between atoms: _5  and  _9
REMARK    3  A    between atoms: _6  and  _7
REMARK    4  A    between atoms: _6  and  _14
REMARK    5  A    between atoms: _9  and  _10
REMARK    6  A    between atoms: _10  and  _13
REMARK    7  A    between atoms: _11  and  _13
REMARK    8  A    between atoms: _14  and  _16
REMARK    9  A    between atoms: _15  and  _20
REMARK   10  A    between atoms: _16  and  _19
REMARK   11  A    between atoms: _24  and  _34
REMARK   12  A    between atoms: _26  and  _27
REMARK   13  A    between atoms: _28  and  _30
REMARK   14  A    between atoms: _30  and  _32
REMARK   15  A    between atoms: _32  and  _34
REMARK                            x       y       z     vdW  Elec       q    Type
REMARK                         _______ _______ _______ _____ _____    ______ ____
ROOT
ATOM      1  C   UNL     1      28.057  17.161  -0.624  0.00  0.00    +0.400 C 
ATOM      2  N   UNL     1      28.516  16.138   0.172  0.00  0.00    -0.278 N 
ATOM      3  H   UNL     1      28.986  16.649   0.985  0.00  0.00    +0.152 HD
ATOM      4  O   UNL     1      28.107  18.306  -0.182  0.00  0.00    -0.226 OA
ENDROOT
BRANCH   2   5
ATOM      5  C   UNL     1      28.635  14.701   0.407  0.00  0.00    +0.152 C 
BRANCH   5   6
ATOM      6  C   UNL     1      30.004  14.070   0.077  0.00  0.00    +0.193 C 
ATOM      7  O   UNL     1      30.107  14.032  -1.364  0.00  0.00    -0.219 OA
BRANCH   6   8
ATOM      8  C   UNL     1      31.270  14.828   0.534  0.00  0.00    +0.212 C 
ATOM      9  O   UNL     1      30.917  15.913   1.407  0.00  0.00    -0.218 OA
BRANCH   8  10
ATOM     10  C   UNL     1      32.316  13.908   1.271  0.00  0.00    +0.171 C 
ATOM     11  O   UNL     1      32.636  14.379   2.576  0.00  0.00    -0.343 OA
ATOM     12  C   UNL     1      33.700  13.904   3.347  0.00  0.00    +0.220 C 
ATOM     13  C   UNL     1      35.020  13.900   2.556  0.00  0.00    +0.076 C 
ATOM     14  C   UNL     1      34.774  13.131   1.248  0.00  0.00    +0.177 C 
ATOM     15  O   UNL     1      35.977  13.063   0.495  0.00  0.00    -0.221 OA
ATOM     16  C   UNL     1      33.632  13.811   0.431  0.00  0.00    +0.155 C 
BRANCH  16  17
ATOM     17  N   UNL     1      33.400  13.087  -0.816  0.00  0.00    -0.202 NA
ATOM     18  C   UNL     1      33.415  13.537  -2.097  0.00  0.00    +0.242 C 
ATOM     19  C   UNL     1      33.435  12.523  -3.211  0.00  0.00    +0.096 C 
ATOM     20  O   UNL     1      33.414  14.747  -2.316  0.00  0.00    -0.273 OA
ENDBRANCH  16  17
BRANCH  12  21
ATOM     21  C   UNL     1      33.409  12.459   4.030  0.00  0.00    +0.391 C 
ATOM     22  O   UNL     1      34.614  12.021   4.444  0.00  0.00    -0.243 OA
ATOM     23  O   UNL     1      32.083  12.387   4.193  0.00  0.00    -0.243 OA
ENDBRANCH  12  21
ENDBRANCH   8  10
ENDBRANCH   6   8
ENDBRANCH   5   6
ENDBRANCH   2   5
BRANCH   1  24
ATOM     24  O   UNL     1      27.636  16.813  -1.795  0.00  0.00    -0.450 OA
BRANCH  24  25
ATOM     25  C   UNL     1      26.846  17.326  -2.843  0.00  0.00    +0.240 C 
BRANCH  25  26
ATOM     26  C   UNL     1      26.921  16.611  -4.206  0.00  0.00    +0.100 C 
BRANCH  26  28
ATOM     27  N   UNL     1      25.479  15.179  -5.622  0.00  0.00    -0.134 NA
ATOM     28  C   UNL     1      25.722  15.778  -4.414  0.00  0.00    +0.086 A 
ATOM     29  C   UNL     1      24.705  15.457  -3.543  0.00  0.00    +0.134 A 
ATOM     30  N   UNL     1      23.866  14.674  -4.282  0.00  0.00    -0.237 N 
ATOM     31  N   UNL     1      24.343  14.504  -5.530  0.00  0.00    -0.065 NA
BRANCH  30  32
ATOM     32  C   UNL     1      22.629  14.021  -3.893  0.00  0.00    +0.219 C 
BRANCH  32  33
ATOM     33  C   UNL     1      21.472  14.536  -4.732  0.00  0.00    +0.237 C 
ATOM     34  O   UNL     1      20.633  13.816  -5.270  0.00  0.00    -0.274 OA
ATOM     35  N   UNL     1      21.352  15.896  -4.823  0.00  0.00    -0.328 N 
ATOM     36  H   UNL     1      21.951  16.547  -4.331  0.00  0.00    +0.145 HD
ATOM     37  H   UNL     1      20.584  16.267  -5.368  0.00  0.00    +0.145 HD
ENDBRANCH  32  33
BRANCH  32  38
ATOM     38  C   UNL     1      22.356  14.224  -2.403  0.00  0.00    +0.195 C 
BRANCH  38  39
ATOM     39  O   UNL     1      20.975  14.562  -2.214  0.00  0.00    -0.380 OA
ATOM     40  C   UNL     1      20.400  13.841  -1.132  0.00  0.00    +0.194 C 
ENDBRANCH  38  39
ENDBRANCH  32  38
ENDBRANCH  30  32
ENDBRANCH  26  28
ENDBRANCH  25  26
ENDBRANCH  24  25
ENDBRANCH   1  24
TORSDOF 14
