REMARK VINA RESULT:    -8.819      0.000      0.000
REMARK INTER + INTRA:         -16.259
REMARK INTER:                 -14.379
REMARK INTRA:                  -1.879
REMARK UNBOUND:                -1.768
REMARK  Name = lig_assembled_91.pdb
REMARK  11 active torsions:
REMARK  status: ('A' for Active; 'I' for Inactive)
REMARK    1  A    between atoms: _2  and  _9
REMARK    2  A    between atoms: _6  and  _7
REMARK    3  A    between atoms: _6  and  _21
REMARK    4  A    between atoms: _21  and  _23
REMARK    5  A    between atoms: _22  and  _27
REMARK    6  A    between atoms: _23  and  _26
REMARK    7  A    between atoms: _31  and  _41
REMARK    8  A    between atoms: _33  and  _34
REMARK    9  A    between atoms: _35  and  _37
REMARK   10  A    between atoms: _37  and  _39
REMARK   11  A    between atoms: _39  and  _41
REMARK                            x       y       z     vdW  Elec       q    Type
REMARK                         _______ _______ _______ _____ _____    ______ ____
ROOT
ATOM      1  C   UNL     1      27.825  17.359  -0.847  0.00  0.00    +0.400 C 
ATOM      2  N   UNL     1      28.247  16.197  -0.247  0.00  0.00    -0.278 N 
ATOM      3  H   UNL     1      28.461  16.500   0.756  0.00  0.00    +0.152 HD
ATOM      4  O   UNL     1      27.622  18.339  -0.135  0.00  0.00    -0.226 OA
ENDROOT
BRANCH   1   5
ATOM      5  O   UNL     1      27.711  17.315  -2.134  0.00  0.00    -0.450 OA
BRANCH   5   6
ATOM      6  C   UNL     1      26.729  17.502  -3.126  0.00  0.00    +0.240 C 
BRANCH   6   7
ATOM      7  C   UNL     1      26.614  16.428  -4.225  0.00  0.00    +0.100 C 
BRANCH   7   9
ATOM      8  N   UNL     1      25.380  14.325  -4.614  0.00  0.00    -0.134 NA
ATOM      9  C   UNL     1      25.523  15.485  -3.914  0.00  0.00    +0.086 A 
ATOM     10  C   UNL     1      24.540  15.548  -2.953  0.00  0.00    +0.139 A 
ATOM     11  N   UNL     1      23.775  14.413  -3.130  0.00  0.00    -0.219 N 
ATOM     12  N   UNL     1      24.326  13.683  -4.133  0.00  0.00    -0.060 NA
BRANCH  11  13
ATOM     13  C   UNL     1      22.594  13.992  -2.441  0.00  0.00    +0.085 A 
ATOM     14  C   UNL     1      22.692  13.097  -1.316  0.00  0.00    +0.026 A 
ATOM     15  C   UNL     1      21.468  12.727  -0.726  0.00  0.00    +0.074 A 
ATOM     16  C   UNL     1      21.434  11.869   0.362  0.00  0.00    +0.028 A 
ATOM     17  C   UNL     1      22.591  11.342   0.928  0.00  0.00    +0.002 A 
ATOM     18  C   UNL     1      23.815  11.705   0.406  0.00  0.00    +0.001 A 
ATOM     19  N   UNL     1      20.282  13.171  -1.135  0.00  0.00    -0.247 NA
ATOM     20  C   UNL     1      20.198  14.021  -2.159  0.00  0.00    +0.074 A 
ATOM     21  C   UNL     1      18.910  14.419  -2.503  0.00  0.00    +0.028 A 
ATOM     22  C   UNL     1      18.658  15.274  -3.572  0.00  0.00    +0.002 A 
ATOM     23  C   UNL     1      19.720  15.734  -4.325  0.00  0.00    +0.001 A 
ATOM     24  C   UNL     1      21.020  15.339  -3.995  0.00  0.00    +0.012 A 
ATOM     25  C   UNL     1      23.868  12.584  -0.682  0.00  0.00    +0.012 A 
ATOM     26  C   UNL     1      21.309  14.481  -2.884  0.00  0.00    +0.026 A 
ENDBRANCH  11  13
ENDBRANCH   7   9
ENDBRANCH   6   7
ENDBRANCH   5   6
ENDBRANCH   1   5
BRANCH   2  27
ATOM     27  C   UNL     1      28.515  14.765  -0.357  0.00  0.00    +0.152 C 
BRANCH  27  28
ATOM     28  C   UNL     1      29.578  14.196   0.605  0.00  0.00    +0.193 C 
ATOM     29  O   UNL     1      29.769  12.811   0.241  0.00  0.00    -0.219 OA
BRANCH  28  30
ATOM     30  C   UNL     1      30.995  14.808   0.549  0.00  0.00    +0.212 C 
ATOM     31  O   UNL     1      30.978  16.158   1.043  0.00  0.00    -0.218 OA
BRANCH  30  32
ATOM     32  C   UNL     1      32.063  13.986   1.366  0.00  0.00    +0.171 C 
ATOM     33  O   UNL     1      32.366  14.579   2.624  0.00  0.00    -0.343 OA
ATOM     34  C   UNL     1      33.439  14.203   3.435  0.00  0.00    +0.220 C 
ATOM     35  C   UNL     1      34.762  14.166   2.650  0.00  0.00    +0.076 C 
ATOM     36  C   UNL     1      34.541  13.277   1.414  0.00  0.00    +0.177 C 
ATOM     37  O   UNL     1      35.748  13.175   0.672  0.00  0.00    -0.221 OA
ATOM     38  C   UNL     1      33.383  13.851   0.539  0.00  0.00    +0.155 C 
BRANCH  38  39
ATOM     39  N   UNL     1      33.175  13.013  -0.639  0.00  0.00    -0.202 NA
ATOM     40  C   UNL     1      33.187  13.347  -1.954  0.00  0.00    +0.242 C 
ATOM     41  C   UNL     1      33.237  12.239  -2.974  0.00  0.00    +0.096 C 
ATOM     42  O   UNL     1      33.159  14.532  -2.281  0.00  0.00    -0.273 OA
ENDBRANCH  38  39
BRANCH  34  43
ATOM     43  C   UNL     1      33.185  12.817   4.243  0.00  0.00    +0.391 C 
ATOM     44  O   UNL     1      34.409  12.414   4.636  0.00  0.00    -0.243 OA
ATOM     45  O   UNL     1      31.867  12.758   4.471  0.00  0.00    -0.243 OA
ENDBRANCH  34  43
ENDBRANCH  30  32
ENDBRANCH  28  30
ENDBRANCH  27  28
ENDBRANCH   2  27
TORSDOF 11
