REMARK VINA RESULT:    -7.851      0.000      0.000
REMARK INTER + INTRA:         -15.633
REMARK INTER:                 -13.572
REMARK INTRA:                  -2.060
REMARK UNBOUND:                -1.585
REMARK  Name = lig_assembled_16.pdb
REMARK  14 active torsions:
REMARK  status: ('A' for Active; 'I' for Inactive)
REMARK    1  A    between atoms: _2  and  _8
REMARK    2  A    between atoms: _5  and  _6
REMARK    3  A    between atoms: _5  and  _17
REMARK    4  A    between atoms: _8  and  _9
REMARK    5  A    between atoms: _12  and  _13
REMARK    6  A    between atoms: _13  and  _15
REMARK    7  A    between atoms: _17  and  _19
REMARK    8  A    between atoms: _18  and  _23
REMARK    9  A    between atoms: _19  and  _22
REMARK   10  A    between atoms: _27  and  _37
REMARK   11  A    between atoms: _29  and  _30
REMARK   12  A    between atoms: _31  and  _33
REMARK   13  A    between atoms: _33  and  _35
REMARK   14  A    between atoms: _35  and  _37
REMARK                            x       y       z     vdW  Elec       q    Type
REMARK                         _______ _______ _______ _____ _____    ______ ____
ROOT
ATOM      1  C   UNL     1      28.310  17.417  -0.486  0.00  0.00    +0.400 C 
ATOM      2  N   UNL     1      29.542  17.280   0.109  0.00  0.00    -0.278 N 
ATOM      3  H   UNL     1      29.536  18.032   0.867  0.00  0.00    +0.152 HD
ATOM      4  O   UNL     1      27.489  18.158   0.048  0.00  0.00    -0.226 OA
ENDROOT
BRANCH   2   5
ATOM      5  C   UNL     1      30.819  16.574   0.176  0.00  0.00    +0.152 C 
BRANCH   5   6
ATOM      6  C   UNL     1      30.751  15.036   0.083  0.00  0.00    +0.193 C 
ATOM      7  O   UNL     1      31.762  14.632  -0.867  0.00  0.00    -0.219 OA
BRANCH   6   8
ATOM      8  C   UNL     1      31.077  14.227   1.359  0.00  0.00    +0.212 C 
ATOM      9  O   UNL     1      31.354  15.112   2.457  0.00  0.00    -0.218 OA
BRANCH   8  10
ATOM     10  C   UNL     1      29.922  13.242   1.785  0.00  0.00    +0.171 C 
ATOM     11  O   UNL     1      28.638  13.856   1.752  0.00  0.00    -0.343 OA
ATOM     12  C   UNL     1      27.483  13.299   2.306  0.00  0.00    +0.220 C 
ATOM     13  C   UNL     1      27.707  12.851   3.761  0.00  0.00    +0.076 C 
ATOM     14  C   UNL     1      28.942  11.934   3.778  0.00  0.00    +0.177 C 
ATOM     15  O   UNL     1      29.170  11.458   5.097  0.00  0.00    -0.221 OA
ATOM     16  C   UNL     1      30.186  12.697   3.227  0.00  0.00    +0.155 C 
BRANCH  16  17
ATOM     17  N   UNL     1      31.362  11.831   3.247  0.00  0.00    -0.202 NA
ATOM     18  C   UNL     1      32.483  11.909   4.008  0.00  0.00    +0.242 C 
ATOM     19  C   UNL     1      33.411  10.721   4.039  0.00  0.00    +0.096 C 
ATOM     20  O   UNL     1      32.714  12.932   4.649  0.00  0.00    -0.273 OA
ENDBRANCH  16  17
BRANCH  12  21
ATOM     21  C   UNL     1      26.844  12.107   1.406  0.00  0.00    +0.391 C 
ATOM     22  O   UNL     1      26.089  11.392   2.263  0.00  0.00    -0.243 OA
ATOM     23  O   UNL     1      27.057  12.452   0.131  0.00  0.00    -0.243 OA
ENDBRANCH  12  21
ENDBRANCH   8  10
ENDBRANCH   6   8
ENDBRANCH   5   6
ENDBRANCH   2   5
BRANCH   1  24
ATOM     24  O   UNL     1      28.144  16.763  -1.588  0.00  0.00    -0.450 OA
BRANCH  24  25
ATOM     25  C   UNL     1      27.198  15.914  -2.195  0.00  0.00    +0.240 C 
BRANCH  25  26
ATOM     26  C   UNL     1      26.423  16.464  -3.407  0.00  0.00    +0.100 C 
BRANCH  26  28
ATOM     27  N   UNL     1      25.014  14.791  -4.571  0.00  0.00    -0.134 NA
ATOM     28  C   UNL     1      25.158  15.728  -3.580  0.00  0.00    +0.086 A 
ATOM     29  C   UNL     1      23.992  15.793  -2.850  0.00  0.00    +0.134 A 
ATOM     30  N   UNL     1      23.218  14.808  -3.385  0.00  0.00    -0.247 N 
ATOM     31  N   UNL     1      23.812  14.243  -4.453  0.00  0.00    -0.065 NA
BRANCH  30  32
ATOM     32  C   UNL     1      21.928  14.337  -2.923  0.00  0.00    +0.180 C 
BRANCH  32  33
ATOM     33  C   UNL     1      22.067  13.474  -1.690  0.00  0.00    -0.026 A 
ATOM     34  C   UNL     1      20.954  13.187  -0.888  0.00  0.00    +0.006 A 
ATOM     35  C   UNL     1      21.081  12.358   0.230  0.00  0.00    +0.015 A 
ATOM     36  C   UNL     1      22.323  11.816   0.570  0.00  0.00    +0.059 A 
ATOM     37  C   UNL     1      23.449  12.112  -0.213  0.00  0.00    +0.015 A 
ATOM     38  C   UNL     1      23.319  12.948  -1.327  0.00  0.00    +0.006 A 
BRANCH  36  39
ATOM     39  C   UNL     1      22.387  10.881   1.725  0.00  0.00    +0.337 C 
ATOM     40  O   UNL     1      21.783   9.822   1.746  0.00  0.00    -0.245 OA
BRANCH  39  41
ATOM     41  O   UNL     1      23.140  11.323   2.751  0.00  0.00    -0.477 OA
ATOM     42  H   UNL     1      22.734  11.234   3.632  0.00  0.00    +0.295 HD
ENDBRANCH  39  41
ENDBRANCH  36  39
ENDBRANCH  32  33
ENDBRANCH  30  32
ENDBRANCH  26  28
ENDBRANCH  25  26
ENDBRANCH  24  25
ENDBRANCH   1  24
TORSDOF 14
