REMARK VINA RESULT:    -6.640      0.000      0.000
REMARK INTER + INTRA:         -14.006
REMARK INTER:                 -12.509
REMARK INTRA:                  -1.497
REMARK UNBOUND:                -1.931
REMARK  Name = lig_assembled_55.pdb
REMARK  15 active torsions:
REMARK  status: ('A' for Active; 'I' for Inactive)
REMARK    1  A    between atoms: _2  and  _9
REMARK    2  A    between atoms: _3  and  _10
REMARK    3  A    between atoms: _3  and  _41
REMARK    4  A    between atoms: _5  and  _41
REMARK    5  A    between atoms: _6  and  _7
REMARK    6  A    between atoms: _6  and  _13
REMARK    7  A    between atoms: _9  and  _10
REMARK    8  A    between atoms: _13  and  _15
REMARK    9  A    between atoms: _14  and  _19
REMARK   10  A    between atoms: _15  and  _18
REMARK   11  A    between atoms: _23  and  _33
REMARK   12  A    between atoms: _25  and  _26
REMARK   13  A    between atoms: _27  and  _29
REMARK   14  A    between atoms: _29  and  _31
REMARK   15  A    between atoms: _31  and  _33
REMARK                            x       y       z     vdW  Elec       q    Type
REMARK                         _______ _______ _______ _____ _____    ______ ____
ROOT
ATOM      1  C   UNL     1      28.240  17.714  -0.488  0.00  0.00    +0.400 C 
ATOM      2  N   UNL     1      29.479  17.475   0.058  0.00  0.00    -0.278 N 
ATOM      3  H   UNL     1      29.466  18.048   0.960  0.00  0.00    +0.152 HD
ATOM      4  O   UNL     1      27.410  18.309   0.195  0.00  0.00    -0.226 OA
ENDROOT
BRANCH   2   5
ATOM      5  C   UNL     1      30.768  16.795  -0.032  0.00  0.00    +0.152 C 
BRANCH   5   6
ATOM      6  C   UNL     1      30.774  15.298   0.342  0.00  0.00    +0.193 C 
ATOM      7  O   UNL     1      31.284  14.585  -0.806  0.00  0.00    -0.219 OA
BRANCH   6   8
ATOM      8  C   UNL     1      31.687  14.856   1.507  0.00  0.00    +0.212 C 
ATOM      9  O   UNL     1      31.668  15.836   2.558  0.00  0.00    -0.218 OA
BRANCH   8  10
ATOM     10  C   UNL     1      31.291  13.457   2.114  0.00  0.00    +0.171 C 
ATOM     11  O   UNL     1      29.906  13.371   2.433  0.00  0.00    -0.343 OA
ATOM     12  C   UNL     1      29.335  12.351   3.198  0.00  0.00    +0.220 C 
ATOM     13  C   UNL     1      30.093  12.137   4.520  0.00  0.00    +0.076 C 
ATOM     14  C   UNL     1      31.578  11.933   4.174  0.00  0.00    +0.177 C 
ATOM     15  O   UNL     1      32.320  11.691   5.361  0.00  0.00    -0.221 OA
ATOM     16  C   UNL     1      32.126  13.176   3.407  0.00  0.00    +0.155 C 
BRANCH  16  17
ATOM     17  N   UNL     1      33.538  12.990   3.082  0.00  0.00    -0.202 NA
ATOM     18  C   UNL     1      34.627  13.669   3.525  0.00  0.00    +0.242 C 
ATOM     19  C   UNL     1      35.990  13.084   3.262  0.00  0.00    +0.096 C 
ATOM     20  O   UNL     1      34.478  14.733   4.123  0.00  0.00    -0.273 OA
ENDBRANCH  16  17
BRANCH  12  21
ATOM     21  C   UNL     1      29.150  10.957   2.384  0.00  0.00    +0.391 C 
ATOM     22  O   UNL     1      29.164   9.997   3.329  0.00  0.00    -0.243 OA
ATOM     23  O   UNL     1      28.758  11.299   1.150  0.00  0.00    -0.243 OA
ENDBRANCH  12  21
ENDBRANCH   8  10
ENDBRANCH   6   8
ENDBRANCH   5   6
ENDBRANCH   2   5
BRANCH   1  24
ATOM     24  O   UNL     1      28.076  17.308  -1.705  0.00  0.00    -0.450 OA
BRANCH  24  25
ATOM     25  C   UNL     1      27.293  16.386  -2.427  0.00  0.00    +0.240 C 
BRANCH  25  26
ATOM     26  C   UNL     1      26.514  16.916  -3.645  0.00  0.00    +0.100 C 
BRANCH  26  28
ATOM     27  N   UNL     1      25.668  15.430  -5.431  0.00  0.00    -0.134 NA
ATOM     28  C   UNL     1      25.579  15.891  -4.144  0.00  0.00    +0.086 A 
ATOM     29  C   UNL     1      24.540  15.250  -3.507  0.00  0.00    +0.133 A 
ATOM     30  N   UNL     1      24.024  14.428  -4.465  0.00  0.00    -0.250 N 
ATOM     31  N   UNL     1      24.706  14.539  -5.618  0.00  0.00    -0.065 NA
BRANCH  30  32
ATOM     32  C   UNL     1      22.917  13.504  -4.349  0.00  0.00    +0.162 C 
BRANCH  32  33
ATOM     33  C   UNL     1      21.632  13.989  -5.029  0.00  0.00    +0.129 C 
BRANCH  33  34
ATOM     34  N   UNL     1      21.565  15.470  -5.198  0.00  0.00    -0.193 NA
ATOM     35  H   UNL     1      21.412  15.713  -6.184  0.00  0.00    +0.148 HD
BRANCH  34  36
ATOM     36  S   UNL     1      20.529  16.290  -4.151  0.00  0.00    +0.027 S 
ATOM     37  O   UNL     1      19.646  15.299  -3.576  0.00  0.00    -0.158 OA
ATOM     38  O   UNL     1      21.340  17.149  -3.317  0.00  0.00    -0.158 OA
ATOM     39  C   UNL     1      19.589  17.284  -5.286  0.00  0.00    +0.214 C 
ENDBRANCH  34  36
ENDBRANCH  33  34
ENDBRANCH  32  33
ENDBRANCH  30  32
ENDBRANCH  26  28
ENDBRANCH  25  26
ENDBRANCH  24  25
ENDBRANCH   1  24
TORSDOF 14
