REMARK VINA RESULT:    -8.168      0.000      0.000
REMARK INTER + INTRA:         -14.523
REMARK INTER:                 -12.867
REMARK INTRA:                  -1.656
REMARK UNBOUND:                -0.626
REMARK  Name = lig_assembled_5.pdb
REMARK  13 active torsions:
REMARK  status: ('A' for Active; 'I' for Inactive)
REMARK    1  A    between atoms: _2  and  _8
REMARK    2  A    between atoms: _5  and  _6
REMARK    3  A    between atoms: _5  and  _15
REMARK    4  A    between atoms: _11  and  _14
REMARK    5  A    between atoms: _12  and  _14
REMARK    6  A    between atoms: _15  and  _17
REMARK    7  A    between atoms: _16  and  _21
REMARK    8  A    between atoms: _17  and  _20
REMARK    9  A    between atoms: _25  and  _35
REMARK   10  A    between atoms: _27  and  _28
REMARK   11  A    between atoms: _29  and  _31
REMARK   12  A    between atoms: _31  and  _33
REMARK   13  A    between atoms: _33  and  _35
REMARK                            x       y       z     vdW  Elec       q    Type
REMARK                         _______ _______ _______ _____ _____    ______ ____
ROOT
ATOM      1  C   UNL     1      27.644  17.402  -1.497  0.00  0.00    +0.400 C 
ATOM      2  N   UNL     1      28.152  16.324  -0.811  0.00  0.00    -0.278 N 
ATOM      3  H   UNL     1      28.485  16.751   0.110  0.00  0.00    +0.152 HD
ATOM      4  O   UNL     1      27.520  18.465  -0.895  0.00  0.00    -0.226 OA
ENDROOT
BRANCH   2   5
ATOM      5  C   UNL     1      28.422  14.889  -0.772  0.00  0.00    +0.152 C 
BRANCH   5   6
ATOM      6  C   UNL     1      29.387  14.408   0.332  0.00  0.00    +0.193 C 
ATOM      7  O   UNL     1      29.501  12.975   0.188  0.00  0.00    -0.219 OA
BRANCH   6   8
ATOM      8  C   UNL     1      30.844  14.918   0.279  0.00  0.00    +0.212 C 
ATOM      9  O   UNL     1      30.913  16.286   0.715  0.00  0.00    -0.218 OA
BRANCH   8  10
ATOM     10  C   UNL     1      31.837  14.061   1.152  0.00  0.00    +0.171 C 
ATOM     11  O   UNL     1      32.078  14.636   2.432  0.00  0.00    -0.343 OA
ATOM     12  C   UNL     1      33.089  14.224   3.303  0.00  0.00    +0.220 C 
ATOM     13  C   UNL     1      34.456  14.157   2.600  0.00  0.00    +0.076 C 
ATOM     14  C   UNL     1      34.288  13.284   1.345  0.00  0.00    +0.177 C 
ATOM     15  O   UNL     1      35.535  13.155   0.677  0.00  0.00    -0.221 OA
ATOM     16  C   UNL     1      33.202  13.896   0.406  0.00  0.00    +0.155 C 
BRANCH  16  17
ATOM     17  N   UNL     1      33.044  13.074  -0.790  0.00  0.00    -0.202 NA
ATOM     18  C   UNL     1      33.199  13.405  -2.098  0.00  0.00    +0.242 C 
ATOM     19  C   UNL     1      33.264  12.294  -3.114  0.00  0.00    +0.096 C 
ATOM     20  O   UNL     1      33.282  14.588  -2.419  0.00  0.00    -0.273 OA
ENDBRANCH  16  17
BRANCH  12  21
ATOM     21  C   UNL     1      32.749  12.839   4.081  0.00  0.00    +0.391 C 
ATOM     22  O   UNL     1      33.922  12.442   4.613  0.00  0.00    -0.243 OA
ATOM     23  O   UNL     1      31.414  12.776   4.157  0.00  0.00    -0.243 OA
ENDBRANCH  12  21
ENDBRANCH   8  10
ENDBRANCH   6   8
ENDBRANCH   5   6
ENDBRANCH   2   5
BRANCH   1  24
ATOM     24  O   UNL     1      27.371  17.194  -2.743  0.00  0.00    -0.450 OA
BRANCH  24  25
ATOM     25  C   UNL     1      26.255  17.167  -3.602  0.00  0.00    +0.240 C 
BRANCH  25  26
ATOM     26  C   UNL     1      25.950  15.844  -4.331  0.00  0.00    +0.100 C 
BRANCH  26  28
ATOM     27  N   UNL     1      23.632  14.989  -4.212  0.00  0.00    -0.134 NA
ATOM     28  C   UNL     1      24.866  15.120  -3.644  0.00  0.00    +0.086 A 
ATOM     29  C   UNL     1      24.867  14.484  -2.423  0.00  0.00    +0.139 A 
ATOM     30  N   UNL     1      23.604  13.948  -2.299  0.00  0.00    -0.220 N 
ATOM     31  N   UNL     1      22.869  14.285  -3.387  0.00  0.00    -0.061 NA
BRANCH  30  32
ATOM     32  C   UNL     1      23.082  13.140  -1.256  0.00  0.00    +0.067 A 
ATOM     33  C   UNL     1      23.926  12.341  -0.477  0.00  0.00    +0.031 A 
ATOM     34  C   UNL     1      23.386  11.505   0.504  0.00  0.00    +0.048 A 
ATOM     35  C   UNL     1      22.009  11.471   0.736  0.00  0.00    +0.120 A 
ATOM     36  C   UNL     1      21.167  12.279  -0.026  0.00  0.00    +0.048 A 
ATOM     37  C   UNL     1      21.699  13.112  -1.020  0.00  0.00    +0.031 A 
BRANCH  35  38
ATOM     38  O   UNL     1      21.609  10.567   1.680  0.00  0.00    -0.495 OA
ATOM     39  C   UNL     1      22.604  10.130   2.598  0.00  0.00    +0.277 C 
ENDBRANCH  35  38
ENDBRANCH  30  32
ENDBRANCH  26  28
ENDBRANCH  25  26
ENDBRANCH  24  25
ENDBRANCH   1  24
TORSDOF 12
