REMARK VINA RESULT:    -7.388      0.000      0.000
REMARK INTER + INTRA:         -14.412
REMARK INTER:                 -12.483
REMARK INTRA:                  -1.929
REMARK UNBOUND:                -1.841
REMARK  Name = lig_assembled_39.pdb
REMARK  12 active torsions:
REMARK  status: ('A' for Active; 'I' for Inactive)
REMARK    1  A    between atoms: _2  and  _8
REMARK    2  A    between atoms: _5  and  _6
REMARK    3  A    between atoms: _5  and  _14
REMARK    4  A    between atoms: _8  and  _9
REMARK    5  A    between atoms: _14  and  _16
REMARK    6  A    between atoms: _15  and  _20
REMARK    7  A    between atoms: _16  and  _19
REMARK    8  A    between atoms: _24  and  _34
REMARK    9  A    between atoms: _26  and  _27
REMARK   10  A    between atoms: _28  and  _30
REMARK   11  A    between atoms: _30  and  _32
REMARK   12  A    between atoms: _32  and  _34
REMARK                            x       y       z     vdW  Elec       q    Type
REMARK                         _______ _______ _______ _____ _____    ______ ____
ROOT
ATOM      1  C   UNL     1      27.486  17.360  -1.828  0.00  0.00    +0.400 C 
ATOM      2  N   UNL     1      27.815  16.181  -1.202  0.00  0.00    -0.278 N 
ATOM      3  H   UNL     1      28.243  16.503  -0.277  0.00  0.00    +0.152 HD
ATOM      4  O   UNL     1      27.567  18.401  -1.180  0.00  0.00    -0.226 OA
ENDROOT
BRANCH   2   5
ATOM      5  C   UNL     1      27.829  14.721  -1.228  0.00  0.00    +0.152 C 
BRANCH   5   6
ATOM      6  C   UNL     1      28.766  14.032  -0.215  0.00  0.00    +0.193 C 
ATOM      7  O   UNL     1      28.561  12.609  -0.360  0.00  0.00    -0.219 OA
BRANCH   6   8
ATOM      8  C   UNL     1      30.287  14.224  -0.402  0.00  0.00    +0.212 C 
ATOM      9  O   UNL     1      30.612  15.621  -0.472  0.00  0.00    -0.218 OA
BRANCH   8  10
ATOM     10  C   UNL     1      31.146  13.563   0.743  0.00  0.00    +0.171 C 
ATOM     11  O   UNL     1      30.766  14.012   2.040  0.00  0.00    -0.343 OA
ATOM     12  C   UNL     1      31.507  13.782   3.201  0.00  0.00    +0.220 C 
ATOM     13  C   UNL     1      32.983  14.180   3.025  0.00  0.00    +0.076 C 
ATOM     14  C   UNL     1      33.508  13.463   1.770  0.00  0.00    +0.177 C 
ATOM     15  O   UNL     1      34.884  13.766   1.582  0.00  0.00    -0.221 OA
ATOM     16  C   UNL     1      32.663  13.873   0.524  0.00  0.00    +0.155 C 
BRANCH  16  17
ATOM     17  N   UNL     1      33.163  13.200  -0.672  0.00  0.00    -0.202 NA
ATOM     18  C   UNL     1      33.620  13.726  -1.837  0.00  0.00    +0.242 C 
ATOM     19  C   UNL     1      34.351  12.820  -2.793  0.00  0.00    +0.096 C 
ATOM     20  O   UNL     1      33.430  14.916  -2.082  0.00  0.00    -0.273 OA
ENDBRANCH  16  17
BRANCH  12  21
ATOM     21  C   UNL     1      31.361  12.268   3.773  0.00  0.00    +0.391 C 
ATOM     22  O   UNL     1      32.226  12.201   4.804  0.00  0.00    -0.243 OA
ATOM     23  O   UNL     1      30.250  11.769   3.218  0.00  0.00    -0.243 OA
ENDBRANCH  12  21
ENDBRANCH   8  10
ENDBRANCH   6   8
ENDBRANCH   5   6
ENDBRANCH   2   5
BRANCH   1  24
ATOM     24  O   UNL     1      27.146  17.259  -3.071  0.00  0.00    -0.450 OA
BRANCH  24  25
ATOM     25  C   UNL     1      25.995  17.025  -3.848  0.00  0.00    +0.240 C 
BRANCH  25  26
ATOM     26  C   UNL     1      25.781  15.599  -4.389  0.00  0.00    +0.100 C 
BRANCH  26  28
ATOM     27  N   UNL     1      24.217  15.474  -2.474  0.00  0.00    -0.134 NA
ATOM     28  C   UNL     1      24.836  14.860  -3.531  0.00  0.00    +0.086 A 
ATOM     29  C   UNL     1      24.406  13.554  -3.611  0.00  0.00    +0.134 A 
ATOM     30  N   UNL     1      23.466  13.462  -2.626  0.00  0.00    -0.247 N 
ATOM     31  N   UNL     1      23.400  14.598  -1.906  0.00  0.00    -0.065 NA
BRANCH  30  32
ATOM     32  C   UNL     1      22.553  12.359  -2.361  0.00  0.00    +0.181 C 
BRANCH  32  33
ATOM     33  C   UNL     1      22.400  12.050  -0.882  0.00  0.00    -0.012 A 
ATOM     34  C   UNL     1      21.266  12.484  -0.163  0.00  0.00    +0.006 A 
ATOM     35  C   UNL     1      21.115  12.211   1.199  0.00  0.00    +0.000 A 
ATOM     36  C   UNL     1      22.106  11.519   1.882  0.00  0.00    +0.001 A 
ATOM     37  C   UNL     1      23.256  11.116   1.208  0.00  0.00    +0.015 A 
ATOM     38  C   UNL     1      23.409  11.388  -0.159  0.00  0.00    +0.023 A 
ATOM     39 BR   UNL     1      25.046  10.841  -0.958  0.00  0.00    -0.050 Br
ENDBRANCH  32  33
ENDBRANCH  30  32
ENDBRANCH  26  28
ENDBRANCH  25  26
ENDBRANCH  24  25
ENDBRANCH   1  24
TORSDOF 12
