REMARK VINA RESULT:    -6.837      0.000      0.000
REMARK INTER + INTRA:         -14.857
REMARK INTER:                 -13.112
REMARK INTRA:                  -1.745
REMARK UNBOUND:                -2.025
REMARK  Name = lig_assembled_10.pdb
REMARK  16 active torsions:
REMARK  status: ('A' for Active; 'I' for Inactive)
REMARK    1  A    between atoms: _2  and  _8
REMARK    2  A    between atoms: _4  and  _8
REMARK    3  A    between atoms: _4  and  _11
REMARK    4  A    between atoms: _5  and  _6
REMARK    5  A    between atoms: _5  and  _15
REMARK    6  A    between atoms: _8  and  _9
REMARK    7  A    between atoms: _9  and  _10
REMARK    8  A    between atoms: _10  and  _13
REMARK    9  A    between atoms: _15  and  _17
REMARK   10  A    between atoms: _16  and  _21
REMARK   11  A    between atoms: _17  and  _20
REMARK   12  A    between atoms: _25  and  _35
REMARK   13  A    between atoms: _27  and  _28
REMARK   14  A    between atoms: _29  and  _31
REMARK   15  A    between atoms: _31  and  _33
REMARK   16  A    between atoms: _33  and  _35
REMARK                            x       y       z     vdW  Elec       q    Type
REMARK                         _______ _______ _______ _____ _____    ______ ____
ROOT
ATOM      1  C   UNL     1      28.068  17.084  -0.797  0.00  0.00    +0.400 C 
ATOM      2  N   UNL     1      28.462  16.158   0.140  0.00  0.00    -0.278 N 
ATOM      3  H   UNL     1      28.778  16.759   0.965  0.00  0.00    +0.152 HD
ATOM      4  O   UNL     1      27.989  18.260  -0.451  0.00  0.00    -0.226 OA
ENDROOT
BRANCH   2   5
ATOM      5  C   UNL     1      28.626  14.754   0.509  0.00  0.00    +0.152 C 
BRANCH   5   6
ATOM      6  C   UNL     1      29.973  14.104   0.132  0.00  0.00    +0.193 C 
ATOM      7  O   UNL     1      30.015  14.045  -1.311  0.00  0.00    -0.219 OA
BRANCH   6   8
ATOM      8  C   UNL     1      31.264  14.856   0.524  0.00  0.00    +0.212 C 
ATOM      9  O   UNL     1      30.955  15.982   1.361  0.00  0.00    -0.218 OA
BRANCH   8  10
ATOM     10  C   UNL     1      32.313  13.946   1.271  0.00  0.00    +0.171 C 
ATOM     11  O   UNL     1      32.678  14.465   2.546  0.00  0.00    -0.343 OA
ATOM     12  C   UNL     1      33.754  14.001   3.307  0.00  0.00    +0.220 C 
ATOM     13  C   UNL     1      35.051  13.938   2.482  0.00  0.00    +0.076 C 
ATOM     14  C   UNL     1      34.755  13.120   1.214  0.00  0.00    +0.177 C 
ATOM     15  O   UNL     1      35.935  12.998   0.433  0.00  0.00    -0.221 OA
ATOM     16  C   UNL     1      33.603  13.789   0.401  0.00  0.00    +0.155 C 
BRANCH  16  17
ATOM     17  N   UNL     1      33.323  13.018  -0.808  0.00  0.00    -0.202 NA
ATOM     18  C   UNL     1      33.331  13.410  -2.108  0.00  0.00    +0.242 C 
ATOM     19  C   UNL     1      33.296  12.347  -3.175  0.00  0.00    +0.096 C 
ATOM     20  O   UNL     1      33.369  14.607  -2.382  0.00  0.00    -0.273 OA
ENDBRANCH  16  17
BRANCH  12  21
ATOM     21  C   UNL     1      33.455  12.591   4.057  0.00  0.00    +0.391 C 
ATOM     22  O   UNL     1      34.658  12.166   4.489  0.00  0.00    -0.243 OA
ATOM     23  O   UNL     1      32.128  12.536   4.226  0.00  0.00    -0.243 OA
ENDBRANCH  12  21
ENDBRANCH   8  10
ENDBRANCH   6   8
ENDBRANCH   5   6
ENDBRANCH   2   5
BRANCH   1  24
ATOM     24  O   UNL     1      27.845  16.621  -1.983  0.00  0.00    -0.450 OA
BRANCH  24  25
ATOM     25  C   UNL     1      27.096  16.942  -3.131  0.00  0.00    +0.240 C 
BRANCH  25  26
ATOM     26  C   UNL     1      26.703  15.786  -4.070  0.00  0.00    +0.100 C 
BRANCH  26  28
ATOM     27  N   UNL     1      24.612  14.747  -4.899  0.00  0.00    -0.134 NA
ATOM     28  C   UNL     1      25.256  15.515  -3.968  0.00  0.00    +0.086 A 
ATOM     29  C   UNL     1      24.350  15.924  -3.017  0.00  0.00    +0.134 A 
ATOM     30  N   UNL     1      23.181  15.340  -3.396  0.00  0.00    -0.237 N 
ATOM     31  N   UNL     1      23.340  14.652  -4.545  0.00  0.00    -0.065 NA
BRANCH  30  32
ATOM     32  C   UNL     1      21.865  15.349  -2.777  0.00  0.00    +0.227 C 
BRANCH  32  33
ATOM     33  C   UNL     1      21.632  14.237  -1.778  0.00  0.00    +0.330 C 
ATOM     34  O   UNL     1      22.497  13.407  -1.524  0.00  0.00    -0.249 OA
BRANCH  33  35
ATOM     35  O   UNL     1      20.445  14.217  -1.137  0.00  0.00    -0.479 OA
ATOM     36  H   UNL     1      20.022  13.328  -1.010  0.00  0.00    +0.295 HD
ENDBRANCH  33  35
ENDBRANCH  32  33
BRANCH  32  37
ATOM     37  C   UNL     1      20.703  15.495  -3.769  0.00  0.00    +0.158 C 
BRANCH  37  38
ATOM     38  C   UNL     1      20.486  16.923  -4.182  0.00  0.00    +0.307 C 
ATOM     39  O   UNL     1      19.672  17.271  -5.027  0.00  0.00    -0.251 OA
BRANCH  38  40
ATOM     40  O   UNL     1      21.217  17.806  -3.476  0.00  0.00    -0.481 OA
ATOM     41  H   UNL     1      21.889  17.413  -2.884  0.00  0.00    +0.295 HD
ENDBRANCH  38  40
ENDBRANCH  37  38
ENDBRANCH  32  37
ENDBRANCH  30  32
ENDBRANCH  26  28
ENDBRANCH  25  26
ENDBRANCH  24  25
ENDBRANCH   1  24
TORSDOF 16
