REMARK VINA RESULT:    -7.435      0.000      0.000
REMARK INTER + INTRA:         -14.066
REMARK INTER:                 -12.475
REMARK INTRA:                  -1.591
REMARK UNBOUND:                -1.850
REMARK  Name = lig_assembled_2.pdb
REMARK  11 active torsions:
REMARK  status: ('A' for Active; 'I' for Inactive)
REMARK    1  A    between atoms: _2  and  _8
REMARK    2  A    between atoms: _5  and  _6
REMARK    3  A    between atoms: _5  and  _13
REMARK    4  A    between atoms: _13  and  _15
REMARK    5  A    between atoms: _14  and  _19
REMARK    6  A    between atoms: _15  and  _18
REMARK    7  A    between atoms: _23  and  _33
REMARK    8  A    between atoms: _25  and  _26
REMARK    9  A    between atoms: _27  and  _29
REMARK   10  A    between atoms: _29  and  _31
REMARK   11  A    between atoms: _31  and  _33
REMARK                            x       y       z     vdW  Elec       q    Type
REMARK                         _______ _______ _______ _____ _____    ______ ____
ROOT
ATOM      1  C   UNL     1      27.637  17.364  -1.630  0.00  0.00    +0.400 C 
ATOM      2  N   UNL     1      28.115  16.341  -0.845  0.00  0.00    -0.278 N 
ATOM      3  H   UNL     1      28.420  16.838   0.050  0.00  0.00    +0.152 HD
ATOM      4  O   UNL     1      27.499  18.472  -1.117  0.00  0.00    -0.226 OA
ENDROOT
BRANCH   1   5
ATOM      5  O   UNL     1      27.404  17.060  -2.865  0.00  0.00    -0.450 OA
BRANCH   5   6
ATOM      6  C   UNL     1      26.358  17.139  -3.805  0.00  0.00    +0.240 C 
BRANCH   6   7
ATOM      7  C   UNL     1      26.006  15.858  -4.585  0.00  0.00    +0.100 C 
BRANCH   7   9
ATOM      8  N   UNL     1      23.802  14.743  -4.427  0.00  0.00    -0.134 NA
ATOM      9  C   UNL     1      24.995  15.073  -3.851  0.00  0.00    +0.086 A 
ATOM     10  C   UNL     1      25.037  14.556  -2.577  0.00  0.00    +0.139 A 
ATOM     11  N   UNL     1      23.845  13.884  -2.426  0.00  0.00    -0.220 N 
ATOM     12  N   UNL     1      23.107  14.028  -3.554  0.00  0.00    -0.061 NA
BRANCH  11  13
ATOM     13  C   UNL     1      23.392  13.116  -1.322  0.00  0.00    +0.067 A 
ATOM     14  C   UNL     1      24.301  12.439  -0.494  0.00  0.00    +0.029 A 
ATOM     15  C   UNL     1      23.831  11.656   0.567  0.00  0.00    +0.022 A 
ATOM     16  C   UNL     1      22.462  11.549   0.803  0.00  0.00    +0.041 A 
ATOM     17 CL   UNL     1      21.894  10.568   2.096  0.00  0.00    -0.084 Cl
ATOM     18  C   UNL     1      21.554  12.230  -0.004  0.00  0.00    +0.022 A 
ATOM     19  C   UNL     1      22.015  13.014  -1.065  0.00  0.00    +0.029 A 
ENDBRANCH  11  13
ENDBRANCH   7   9
ENDBRANCH   6   7
ENDBRANCH   5   6
ENDBRANCH   1   5
BRANCH   2  20
ATOM     20  C   UNL     1      28.374  14.912  -0.685  0.00  0.00    +0.152 C 
BRANCH  20  21
ATOM     21  C   UNL     1      29.338  14.520   0.453  0.00  0.00    +0.193 C 
ATOM     22  O   UNL     1      29.447  13.079   0.427  0.00  0.00    -0.219 OA
BRANCH  21  23
ATOM     23  C   UNL     1      30.797  15.018   0.358  0.00  0.00    +0.212 C 
ATOM     24  O   UNL     1      30.899  16.367   0.841  0.00  0.00    -0.218 OA
BRANCH  23  25
ATOM     25  C   UNL     1      31.817  14.119   1.154  0.00  0.00    +0.171 C 
ATOM     26  O   UNL     1      32.131  14.650   2.437  0.00  0.00    -0.343 OA
ATOM     27  C   UNL     1      33.176  14.196   3.245  0.00  0.00    +0.220 C 
ATOM     28  C   UNL     1      34.505  14.128   2.473  0.00  0.00    +0.076 C 
ATOM     29  C   UNL     1      34.260  13.297   1.203  0.00  0.00    +0.177 C 
ATOM     30  O   UNL     1      35.471  13.169   0.470  0.00  0.00    -0.221 OA
ATOM     31  C   UNL     1      33.141  13.955   0.337  0.00  0.00    +0.155 C 
BRANCH  31  32
ATOM     32  N   UNL     1      32.910  13.172  -0.874  0.00  0.00    -0.202 NA
ATOM     33  C   UNL     1      33.116  13.503  -2.174  0.00  0.00    +0.242 C 
ATOM     34  C   UNL     1      33.074  12.407  -3.207  0.00  0.00    +0.096 C 
ATOM     35  O   UNL     1      33.332  14.675  -2.475  0.00  0.00    -0.273 OA
ENDBRANCH  31  32
BRANCH  27  36
ATOM     36  C   UNL     1      32.850  12.794   3.997  0.00  0.00    +0.391 C 
ATOM     37  O   UNL     1      34.025  12.405   4.531  0.00  0.00    -0.243 OA
ATOM     38  O   UNL     1      31.516  12.710   4.063  0.00  0.00    -0.243 OA
ENDBRANCH  27  36
ENDBRANCH  23  25
ENDBRANCH  21  23
ENDBRANCH  20  21
ENDBRANCH   2  20
TORSDOF 11
