REMARK VINA RESULT:    -7.042      0.000      0.000
REMARK INTER + INTRA:         -15.595
REMARK INTER:                 -13.402
REMARK INTRA:                  -2.193
REMARK UNBOUND:                -1.965
REMARK  Name = lig_assembled_11.pdb
REMARK  17 active torsions:
REMARK  status: ('A' for Active; 'I' for Inactive)
REMARK    1  A    between atoms: _2  and  _8
REMARK    2  A    between atoms: _4  and  _8
REMARK    3  A    between atoms: _4  and  _12
REMARK    4  A    between atoms: _5  and  _6
REMARK    5  A    between atoms: _5  and  _16
REMARK    6  A    between atoms: _8  and  _9
REMARK    7  A    between atoms: _9  and  _10
REMARK    8  A    between atoms: _10  and  _11
REMARK    9  A    between atoms: _11  and  _14
REMARK   10  A    between atoms: _16  and  _18
REMARK   11  A    between atoms: _17  and  _22
REMARK   12  A    between atoms: _18  and  _21
REMARK   13  A    between atoms: _26  and  _36
REMARK   14  A    between atoms: _28  and  _29
REMARK   15  A    between atoms: _30  and  _32
REMARK   16  A    between atoms: _32  and  _34
REMARK   17  A    between atoms: _34  and  _36
REMARK                            x       y       z     vdW  Elec       q    Type
REMARK                         _______ _______ _______ _____ _____    ______ ____
ROOT
ATOM      1  C   UNL     1      28.139  17.052  -0.627  0.00  0.00    +0.400 C 
ATOM      2  N   UNL     1      28.529  15.976   0.136  0.00  0.00    -0.278 N 
ATOM      3  H   UNL     1      28.952  16.431   1.006  0.00  0.00    +0.152 HD
ATOM      4  O   UNL     1      28.179  18.169  -0.117  0.00  0.00    -0.226 OA
ENDROOT
BRANCH   1   5
ATOM      5  O   UNL     1      27.791  16.779  -1.841  0.00  0.00    -0.450 OA
BRANCH   5   6
ATOM      6  C   UNL     1      27.080  17.367  -2.906  0.00  0.00    +0.240 C 
BRANCH   6   7
ATOM      7  C   UNL     1      26.952  16.555  -4.209  0.00  0.00    +0.100 C 
BRANCH   7   9
ATOM      8  N   UNL     1      25.303  15.084  -5.324  0.00  0.00    -0.134 NA
ATOM      9  C   UNL     1      25.673  15.821  -4.234  0.00  0.00    +0.086 A 
ATOM     10  C   UNL     1      24.692  15.724  -3.273  0.00  0.00    +0.134 A 
ATOM     11  N   UNL     1      23.729  14.950  -3.852  0.00  0.00    -0.238 N 
ATOM     12  N   UNL     1      24.118  14.544  -5.076  0.00  0.00    -0.065 NA
BRANCH  11  13
ATOM     13  C   UNL     1      22.485  14.419  -3.303  0.00  0.00    +0.217 C 
BRANCH  13  14
ATOM     14  C   UNL     1      21.261  15.259  -3.634  0.00  0.00    +0.330 C 
ATOM     15  O   UNL     1      20.161  15.160  -3.110  0.00  0.00    -0.249 OA
BRANCH  14  16
ATOM     16  O   UNL     1      21.469  16.176  -4.613  0.00  0.00    -0.479 OA
ATOM     17  H   UNL     1      21.831  15.849  -5.459  0.00  0.00    +0.295 HD
ENDBRANCH  14  16
ENDBRANCH  13  14
BRANCH  13  18
ATOM     18  C   UNL     1      22.607  14.116  -1.798  0.00  0.00    +0.049 C 
BRANCH  18  19
ATOM     19  C   UNL     1      22.076  12.741  -1.372  0.00  0.00    +0.123 C 
BRANCH  19  20
ATOM     20  C   UNL     1      21.122  12.866  -0.206  0.00  0.00    +0.305 C 
ATOM     21  O   UNL     1      21.102  12.120   0.760  0.00  0.00    -0.251 OA
BRANCH  20  22
ATOM     22  O   UNL     1      20.256  13.893  -0.351  0.00  0.00    -0.481 OA
ATOM     23  H   UNL     1      19.607  13.778  -1.070  0.00  0.00    +0.295 HD
ENDBRANCH  20  22
ENDBRANCH  19  20
ENDBRANCH  18  19
ENDBRANCH  13  18
ENDBRANCH  11  13
ENDBRANCH   7   9
ENDBRANCH   6   7
ENDBRANCH   5   6
ENDBRANCH   1   5
BRANCH   2  24
ATOM     24  C   UNL     1      28.609  14.526   0.294  0.00  0.00    +0.152 C 
BRANCH  24  25
ATOM     25  C   UNL     1      29.767  14.001   1.168  0.00  0.00    +0.193 C 
ATOM     26  O   UNL     1      29.935  12.604   0.839  0.00  0.00    -0.219 OA
BRANCH  25  27
ATOM     27  C   UNL     1      31.165  14.619   0.950  0.00  0.00    +0.212 C 
ATOM     28  O   UNL     1      31.203  15.965   1.452  0.00  0.00    -0.218 OA
BRANCH  27  29
ATOM     29  C   UNL     1      32.325  13.795   1.629  0.00  0.00    +0.171 C 
ATOM     30  O   UNL     1      32.714  14.332   2.888  0.00  0.00    -0.343 OA
ATOM     31  C   UNL     1      33.864  13.954   3.585  0.00  0.00    +0.220 C 
ATOM     32  C   UNL     1      35.116  14.006   2.692  0.00  0.00    +0.076 C 
ATOM     33  C   UNL     1      34.820  13.176   1.432  0.00  0.00    +0.177 C 
ATOM     34  O   UNL     1      35.962  13.158   0.588  0.00  0.00    -0.221 OA
ATOM     35  C   UNL     1      33.574  13.752   0.689  0.00  0.00    +0.155 C 
BRANCH  35  36
ATOM     36  N   UNL     1      33.294  12.970  -0.513  0.00  0.00    -0.202 NA
ATOM     37  C   UNL     1      33.263  13.358  -1.813  0.00  0.00    +0.242 C 
ATOM     38  C   UNL     1      33.239  12.292  -2.877  0.00  0.00    +0.096 C 
ATOM     39  O   UNL     1      33.255  14.556  -2.089  0.00  0.00    -0.273 OA
ENDBRANCH  35  36
BRANCH  31  40
ATOM     40  C   UNL     1      33.724  12.519   4.334  0.00  0.00    +0.391 C 
ATOM     41  O   UNL     1      34.980  12.190   4.694  0.00  0.00    -0.243 OA
ATOM     42  O   UNL     1      32.418  12.353   4.575  0.00  0.00    -0.243 OA
ENDBRANCH  31  40
ENDBRANCH  27  29
ENDBRANCH  25  27
ENDBRANCH  24  25
ENDBRANCH   2  24
TORSDOF 17
