REMARK VINA RESULT:    -7.791      0.000      0.000
REMARK INTER + INTRA:         -14.683
REMARK INTER:                 -12.678
REMARK INTRA:                  -2.005
REMARK UNBOUND:                -1.427
REMARK  Name = lig_assembled_6.pdb
REMARK  12 active torsions:
REMARK  status: ('A' for Active; 'I' for Inactive)
REMARK    1  A    between atoms: _2  and  _9
REMARK    2  A    between atoms: _3  and  _12
REMARK    3  A    between atoms: _6  and  _7
REMARK    4  A    between atoms: _6  and  _16
REMARK    5  A    between atoms: _16  and  _18
REMARK    6  A    between atoms: _17  and  _22
REMARK    7  A    between atoms: _18  and  _21
REMARK    8  A    between atoms: _26  and  _36
REMARK    9  A    between atoms: _28  and  _29
REMARK   10  A    between atoms: _30  and  _32
REMARK   11  A    between atoms: _32  and  _34
REMARK   12  A    between atoms: _34  and  _36
REMARK                            x       y       z     vdW  Elec       q    Type
REMARK                         _______ _______ _______ _____ _____    ______ ____
ROOT
ATOM      1  C   UNL     1      27.839  17.378  -1.116  0.00  0.00    +0.400 C 
ATOM      2  N   UNL     1      28.224  16.266  -0.406  0.00  0.00    -0.278 N 
ATOM      3  H   UNL     1      28.451  16.657   0.563  0.00  0.00    +0.152 HD
ATOM      4  O   UNL     1      27.670  18.428  -0.501  0.00  0.00    -0.226 OA
ENDROOT
BRANCH   2   5
ATOM      5  C   UNL     1      28.445  14.822  -0.377  0.00  0.00    +0.152 C 
BRANCH   5   6
ATOM      6  C   UNL     1      29.486  14.313   0.641  0.00  0.00    +0.193 C 
ATOM      7  O   UNL     1      29.635  12.895   0.409  0.00  0.00    -0.219 OA
BRANCH   6   8
ATOM      8  C   UNL     1      30.922  14.874   0.536  0.00  0.00    +0.212 C 
ATOM      9  O   UNL     1      30.969  16.226   1.018  0.00  0.00    -0.218 OA
BRANCH   8  10
ATOM     10  C   UNL     1      31.985  14.019   1.326  0.00  0.00    +0.171 C 
ATOM     11  O   UNL     1      32.316  14.589   2.589  0.00  0.00    -0.343 OA
ATOM     12  C   UNL     1      33.392  14.181   3.379  0.00  0.00    +0.220 C 
ATOM     13  C   UNL     1      34.703  14.129   2.576  0.00  0.00    +0.076 C 
ATOM     14  C   UNL     1      34.449  13.263   1.331  0.00  0.00    +0.177 C 
ATOM     15  O   UNL     1      35.644  13.149   0.571  0.00  0.00    -0.221 OA
ATOM     16  C   UNL     1      33.291  13.871   0.480  0.00  0.00    +0.155 C 
BRANCH  16  17
ATOM     17  N   UNL     1      33.051  13.054  -0.707  0.00  0.00    -0.202 NA
ATOM     18  C   UNL     1      33.131  13.388  -2.020  0.00  0.00    +0.242 C 
ATOM     19  C   UNL     1      33.121  12.280  -3.042  0.00  0.00    +0.096 C 
ATOM     20  O   UNL     1      33.210  14.571  -2.343  0.00  0.00    -0.273 OA
ENDBRANCH  16  17
BRANCH  12  21
ATOM     21  C   UNL     1      33.122  12.788   4.171  0.00  0.00    +0.391 C 
ATOM     22  O   UNL     1      34.342  12.368   4.561  0.00  0.00    -0.243 OA
ATOM     23  O   UNL     1      31.804  12.741   4.397  0.00  0.00    -0.243 OA
ENDBRANCH  12  21
ENDBRANCH   8  10
ENDBRANCH   6   8
ENDBRANCH   5   6
ENDBRANCH   2   5
BRANCH   1  24
ATOM     24  O   UNL     1      27.719  17.213  -2.393  0.00  0.00    -0.450 OA
BRANCH  24  25
ATOM     25  C   UNL     1      26.763  17.403  -3.409  0.00  0.00    +0.240 C 
BRANCH  25  26
ATOM     26  C   UNL     1      26.456  16.205  -4.329  0.00  0.00    +0.100 C 
BRANCH  26  28
ATOM     27  N   UNL     1      26.812  13.887  -3.535  0.00  0.00    -0.134 NA
ATOM     28  C   UNL     1      26.065  15.031  -3.528  0.00  0.00    +0.086 A 
ATOM     29  C   UNL     1      24.989  14.859  -2.688  0.00  0.00    +0.139 A 
ATOM     30  N   UNL     1      25.139  13.592  -2.172  0.00  0.00    -0.220 N 
ATOM     31  N   UNL     1      26.239  13.016  -2.716  0.00  0.00    -0.061 NA
BRANCH  30  32
ATOM     32  C   UNL     1      24.348  12.931  -1.196  0.00  0.00    +0.067 A 
ATOM     33  C   UNL     1      24.948  12.313  -0.087  0.00  0.00    +0.034 A 
ATOM     34  C   UNL     1      24.164  11.612   0.835  0.00  0.00    +0.086 A 
ATOM     35  C   UNL     1      22.777  11.532   0.652  0.00  0.00    +0.273 A 
ATOM     36  C   UNL     1      22.167  12.168  -0.435  0.00  0.00    +0.086 A 
ATOM     37  C   UNL     1      22.953  12.868  -1.356  0.00  0.00    +0.034 A 
BRANCH  35  38
ATOM     38  N   UNL     1      21.965  10.759   1.600  0.00  0.00    +0.080 N 
ATOM     39  O   UNL     1      21.507  11.356   2.585  0.00  0.00    +0.041 OA
ATOM     40  O   UNL     1      21.790   9.556   1.364  0.00  0.00    -0.576 OA
ENDBRANCH  35  38
ENDBRANCH  30  32
ENDBRANCH  26  28
ENDBRANCH  25  26
ENDBRANCH  24  25
ENDBRANCH   1  24
TORSDOF 12
