REMARK VINA RESULT:    -8.101      0.000      0.000
REMARK INTER + INTRA:         -15.396
REMARK INTER:                 -13.660
REMARK INTRA:                  -1.736
REMARK UNBOUND:                -2.085
REMARK  Name = lig_assembled_51.pdb
REMARK  11 active torsions:
REMARK  status: ('A' for Active; 'I' for Inactive)
REMARK    1  A    between atoms: _2  and  _8
REMARK    2  A    between atoms: _5  and  _6
REMARK    3  A    between atoms: _5  and  _17
REMARK    4  A    between atoms: _17  and  _19
REMARK    5  A    between atoms: _18  and  _23
REMARK    6  A    between atoms: _19  and  _22
REMARK    7  A    between atoms: _27  and  _37
REMARK    8  A    between atoms: _29  and  _30
REMARK    9  A    between atoms: _31  and  _33
REMARK   10  A    between atoms: _33  and  _35
REMARK   11  A    between atoms: _35  and  _37
REMARK                            x       y       z     vdW  Elec       q    Type
REMARK                         _______ _______ _______ _____ _____    ______ ____
ROOT
ATOM      1  C   UNL     1      27.905  17.372  -0.746  0.00  0.00    +0.400 C 
ATOM      2  N   UNL     1      28.325  16.268  -0.042  0.00  0.00    -0.278 N 
ATOM      3  H   UNL     1      28.582  16.668   0.915  0.00  0.00    +0.152 HD
ATOM      4  O   UNL     1      27.748  18.425  -0.132  0.00  0.00    -0.226 OA
ENDROOT
BRANCH   1   5
ATOM      5  O   UNL     1      27.742  17.198  -2.016  0.00  0.00    -0.450 OA
BRANCH   5   6
ATOM      6  C   UNL     1      26.847  17.568  -3.039  0.00  0.00    +0.240 C 
BRANCH   6   7
ATOM      7  C   UNL     1      26.453  16.487  -4.064  0.00  0.00    +0.100 C 
BRANCH   7   9
ATOM      8  N   UNL     1      26.342  14.312  -2.888  0.00  0.00    -0.134 NA
ATOM      9  C   UNL     1      25.702  15.404  -3.406  0.00  0.00    +0.086 A 
ATOM     10  C   UNL     1      24.349  15.271  -3.195  0.00  0.00    +0.134 A 
ATOM     11  N   UNL     1      24.223  14.072  -2.548  0.00  0.00    -0.245 N 
ATOM     12  N   UNL     1      25.430  13.504  -2.366  0.00  0.00    -0.065 NA
BRANCH  11  13
ATOM     13  C   UNL     1      22.990  13.424  -2.092  0.00  0.00    +0.066 C 
ATOM     14  C   UNL     1      21.863  14.478  -1.928  0.00  0.00    +0.034 C 
ATOM     15  C   UNL     1      20.547  13.811  -1.494  0.00  0.00    -0.008 C 
ATOM     16  C   UNL     1      20.130  12.778  -2.553  0.00  0.00    +0.007 C 
ATOM     17  C   UNL     1      21.217  11.699  -2.696  0.00  0.00    -0.008 C 
ATOM     18  C   UNL     1      21.422  11.003  -1.343  0.00  0.00    +0.007 C 
ATOM     19  C   UNL     1      21.848  12.030  -0.283  0.00  0.00    -0.008 C 
ATOM     20  C   UNL     1      20.755  13.103  -0.147  0.00  0.00    +0.007 C 
ATOM     21  C   UNL     1      22.534  12.364  -3.131  0.00  0.00    +0.034 C 
ATOM     22  C   UNL     1      23.162  12.699  -0.723  0.00  0.00    +0.034 C 
ENDBRANCH  11  13
ENDBRANCH   7   9
ENDBRANCH   6   7
ENDBRANCH   5   6
ENDBRANCH   1   5
BRANCH   2  23
ATOM     23  C   UNL     1      28.560  14.827  -0.013  0.00  0.00    +0.152 C 
BRANCH  23  24
ATOM     24  C   UNL     1      29.622  14.331   0.990  0.00  0.00    +0.193 C 
ATOM     25  O   UNL     1      29.776  12.913   0.765  0.00  0.00    -0.219 OA
BRANCH  24  26
ATOM     26  C   UNL     1      31.051  14.900   0.857  0.00  0.00    +0.212 C 
ATOM     27  O   UNL     1      31.107  16.242   1.368  0.00  0.00    -0.218 OA
BRANCH  26  28
ATOM     28  C   UNL     1      32.140  14.033   1.598  0.00  0.00    +0.171 C 
ATOM     29  O   UNL     1      32.532  14.596   2.846  0.00  0.00    -0.343 OA
ATOM     30  C   UNL     1      33.639  14.175   3.587  0.00  0.00    +0.220 C 
ATOM     31  C   UNL     1      34.912  14.113   2.726  0.00  0.00    +0.076 C 
ATOM     32  C   UNL     1      34.594  13.252   1.492  0.00  0.00    +0.177 C 
ATOM     33  O   UNL     1      35.753  13.128   0.680  0.00  0.00    -0.221 OA
ATOM     34  C   UNL     1      33.406  13.874   0.694  0.00  0.00    +0.155 C 
BRANCH  34  35
ATOM     35  N   UNL     1      33.106  13.063  -0.483  0.00  0.00    -0.202 NA
ATOM     36  C   UNL     1      33.078  13.413  -1.794  0.00  0.00    +0.242 C 
ATOM     37  C   UNL     1      33.029  12.316  -2.826  0.00  0.00    +0.096 C 
ATOM     38  O   UNL     1      33.095  14.602  -2.106  0.00  0.00    -0.273 OA
ENDBRANCH  34  35
BRANCH  30  39
ATOM     39  C   UNL     1      33.390  12.784   4.387  0.00  0.00    +0.391 C 
ATOM     40  O   UNL     1      34.609  12.410   4.821  0.00  0.00    -0.243 OA
ATOM     41  O   UNL     1      32.067  12.694   4.571  0.00  0.00    -0.243 OA
ENDBRANCH  30  39
ENDBRANCH  26  28
ENDBRANCH  24  26
ENDBRANCH  23  24
ENDBRANCH   2  23
TORSDOF 11
