REMARK VINA RESULT:    -6.754      0.000      0.000
REMARK INTER + INTRA:         -13.800
REMARK INTER:                 -12.245
REMARK INTRA:                  -1.555
REMARK UNBOUND:                -1.716
REMARK  Name = lig_assembled_32.pdb
REMARK  14 active torsions:
REMARK  status: ('A' for Active; 'I' for Inactive)
REMARK    1  A    between atoms: _2  and  _8
REMARK    2  A    between atoms: _4  and  _9
REMARK    3  A    between atoms: _4  and  _10
REMARK    4  A    between atoms: _5  and  _6
REMARK    5  A    between atoms: _5  and  _12
REMARK    6  A    between atoms: _8  and  _9
REMARK    7  A    between atoms: _12  and  _14
REMARK    8  A    between atoms: _13  and  _18
REMARK    9  A    between atoms: _14  and  _17
REMARK   10  A    between atoms: _22  and  _32
REMARK   11  A    between atoms: _24  and  _25
REMARK   12  A    between atoms: _26  and  _28
REMARK   13  A    between atoms: _28  and  _30
REMARK   14  A    between atoms: _30  and  _32
REMARK                            x       y       z     vdW  Elec       q    Type
REMARK                         _______ _______ _______ _____ _____    ______ ____
ROOT
ATOM      1  C   UNL     1      28.854  14.620   0.646  0.00  0.00    +0.152 C 
ENDROOT
BRANCH   1   3
ATOM      2  C   UNL     1      28.133  16.955  -0.568  0.00  0.00    +0.400 C 
ATOM      3  N   UNL     1      28.582  16.021   0.336  0.00  0.00    -0.278 N 
ATOM      4  H   UNL     1      28.828  16.607   1.196  0.00  0.00    +0.152 HD
ATOM      5  O   UNL     1      27.949  18.103  -0.171  0.00  0.00    -0.226 OA
BRANCH   2   6
ATOM      6  O   UNL     1      27.975  16.531  -1.779  0.00  0.00    -0.450 OA
BRANCH   6   7
ATOM      7  C   UNL     1      27.113  15.695  -2.514  0.00  0.00    +0.240 C 
BRANCH   7   8
ATOM      8  C   UNL     1      26.338  16.327  -3.686  0.00  0.00    +0.100 C 
BRANCH   8  10
ATOM      9  N   UNL     1      24.767  15.030  -5.091  0.00  0.00    -0.134 NA
ATOM     10  C   UNL     1      25.057  15.626  -3.892  0.00  0.00    +0.086 A 
ATOM     11  C   UNL     1      23.999  15.441  -3.030  0.00  0.00    +0.133 A 
ATOM     12  N   UNL     1      23.096  14.740  -3.767  0.00  0.00    -0.251 N 
ATOM     13  N   UNL     1      23.558  14.492  -5.004  0.00  0.00    -0.065 NA
BRANCH  12  14
ATOM     14  C   UNL     1      21.786  14.270  -3.371  0.00  0.00    +0.156 C 
BRANCH  14  15
ATOM     15  C   UNL     1      20.913  15.398  -2.839  0.00  0.00    +0.143 C 
BRANCH  15  16
ATOM     16  C   UNL     1      20.816  16.500  -3.854  0.00  0.00    +0.306 C 
ATOM     17  O   UNL     1      20.333  16.380  -4.969  0.00  0.00    -0.251 OA
BRANCH  16  18
ATOM     18  O   UNL     1      21.340  17.664  -3.411  0.00  0.00    -0.481 OA
ATOM     19  H   UNL     1      21.536  18.312  -4.116  0.00  0.00    +0.295 HD
ENDBRANCH  16  18
ENDBRANCH  15  16
ENDBRANCH  14  15
ENDBRANCH  12  14
ENDBRANCH   8  10
ENDBRANCH   7   8
ENDBRANCH   6   7
ENDBRANCH   2   6
ENDBRANCH   1   3
BRANCH   1  20
ATOM     20  C   UNL     1      30.248  14.093   0.248  0.00  0.00    +0.193 C 
ATOM     21  O   UNL     1      30.339  14.206  -1.190  0.00  0.00    -0.219 OA
BRANCH  20  22
ATOM     22  C   UNL     1      31.480  14.861   0.774  0.00  0.00    +0.212 C 
ATOM     23  O   UNL     1      31.068  15.985   1.569  0.00  0.00    -0.218 OA
BRANCH  22  24
ATOM     24  C   UNL     1      32.454  13.967   1.632  0.00  0.00    +0.171 C 
ATOM     25  O   UNL     1      32.737  14.533   2.907  0.00  0.00    -0.343 OA
ATOM     26  C   UNL     1      33.746  14.084   3.762  0.00  0.00    +0.220 C 
ATOM     27  C   UNL     1      35.098  13.964   3.037  0.00  0.00    +0.076 C 
ATOM     28  C   UNL     1      34.876  13.097   1.786  0.00  0.00    +0.177 C 
ATOM     29  O   UNL     1      36.106  12.920   1.098  0.00  0.00    -0.221 OA
ATOM     30  C   UNL     1      33.799  13.750   0.864  0.00  0.00    +0.155 C 
BRANCH  30  31
ATOM     31  N   UNL     1      33.590  12.933  -0.329  0.00  0.00    -0.202 NA
ATOM     32  C   UNL     1      33.685  13.272  -1.640  0.00  0.00    +0.242 C 
ATOM     33  C   UNL     1      33.709  12.167  -2.664  0.00  0.00    +0.096 C 
ATOM     34  O   UNL     1      33.749  14.457  -1.958  0.00  0.00    -0.273 OA
ENDBRANCH  30  31
BRANCH  26  35
ATOM     35  C   UNL     1      33.366  12.713   4.547  0.00  0.00    +0.391 C 
ATOM     36  O   UNL     1      34.526  12.287   5.084  0.00  0.00    -0.243 OA
ATOM     37  O   UNL     1      32.029  12.688   4.621  0.00  0.00    -0.243 OA
ENDBRANCH  26  35
ENDBRANCH  22  24
ENDBRANCH  20  22
ENDBRANCH   1  20
TORSDOF 14
