REMARK VINA RESULT:    -7.370      0.000      0.000
REMARK INTER + INTRA:         -14.852
REMARK INTER:                 -13.302
REMARK INTRA:                  -1.550
REMARK UNBOUND:                -2.096
REMARK  Name = lig_assembled_88.pdb
REMARK  13 active torsions:
REMARK  status: ('A' for Active; 'I' for Inactive)
REMARK    1  A    between atoms: _2  and  _8
REMARK    2  A    between atoms: _4  and  _14
REMARK    3  A    between atoms: _5  and  _6
REMARK    4  A    between atoms: _5  and  _15
REMARK    5  A    between atoms: _8  and  _9
REMARK    6  A    between atoms: _15  and  _17
REMARK    7  A    between atoms: _16  and  _21
REMARK    8  A    between atoms: _17  and  _20
REMARK    9  A    between atoms: _25  and  _35
REMARK   10  A    between atoms: _27  and  _28
REMARK   11  A    between atoms: _29  and  _31
REMARK   12  A    between atoms: _31  and  _33
REMARK   13  A    between atoms: _33  and  _35
REMARK                            x       y       z     vdW  Elec       q    Type
REMARK                         _______ _______ _______ _____ _____    ______ ____
ROOT
ATOM      1  C   UNL     1      29.082  17.103  -0.450  0.00  0.00    +0.400 C 
ATOM      2  N   UNL     1      29.364  15.981   0.294  0.00  0.00    -0.278 N 
ATOM      3  H   UNL     1      30.096  16.325   0.993  0.00  0.00    +0.152 HD
ATOM      4  O   UNL     1      29.536  18.179  -0.069  0.00  0.00    -0.226 OA
ENDROOT
BRANCH   1   5
ATOM      5  O   UNL     1      28.379  16.905  -1.516  0.00  0.00    -0.450 OA
BRANCH   5   6
ATOM      6  C   UNL     1      27.114  17.239  -2.038  0.00  0.00    +0.240 C 
BRANCH   6   7
ATOM      7  C   UNL     1      26.965  17.274  -3.571  0.00  0.00    +0.100 C 
BRANCH   7   9
ATOM      8  N   UNL     1      26.234  15.763  -5.392  0.00  0.00    -0.134 NA
ATOM      9  C   UNL     1      26.296  16.051  -4.054  0.00  0.00    +0.086 A 
ATOM     10  C   UNL     1      25.648  15.062  -3.350  0.00  0.00    +0.134 A 
ATOM     11  N   UNL     1      25.148  14.243  -4.322  0.00  0.00    -0.247 N 
ATOM     12  N   UNL     1      25.548  14.640  -5.545  0.00  0.00    -0.065 NA
BRANCH  11  13
ATOM     13  C   UNL     1      24.238  13.120  -4.168  0.00  0.00    +0.184 C 
BRANCH  13  14
ATOM     14  C   UNL     1      22.970  13.477  -3.418  0.00  0.00    +0.017 A 
ATOM     15  C   UNL     1      22.649  12.915  -2.166  0.00  0.00    +0.024 A 
ATOM     16  C   UNL     1      21.471  13.268  -1.504  0.00  0.00    +0.019 A 
ATOM     17 BR   UNL     1      21.049  12.455   0.151  0.00  0.00    -0.050 Br
ATOM     18  C   UNL     1      20.602  14.208  -2.048  0.00  0.00    +0.034 A 
ATOM     19  C   UNL     1      20.929  14.808  -3.260  0.00  0.00    +0.061 A 
ATOM     20 BR   UNL     1      19.759  16.116  -3.979  0.00  0.00    -0.046 Br
ATOM     21  C   UNL     1      22.104  14.450  -3.936  0.00  0.00    +0.136 A 
BRANCH  21  22
ATOM     22  O   UNL     1      22.443  15.045  -5.122  0.00  0.00    -0.505 OA
ATOM     23  H   UNL     1      22.921  14.383  -5.658  0.00  0.00    +0.292 HD
ENDBRANCH  21  22
ENDBRANCH  13  14
ENDBRANCH  11  13
ENDBRANCH   7   9
ENDBRANCH   6   7
ENDBRANCH   5   6
ENDBRANCH   1   5
BRANCH   2  24
ATOM     24  C   UNL     1      29.107  14.569   0.561  0.00  0.00    +0.152 C 
BRANCH  24  25
ATOM     25  C   UNL     1      30.159  13.837   1.420  0.00  0.00    +0.193 C 
ATOM     26  O   UNL     1      30.423  12.575   0.768  0.00  0.00    -0.219 OA
BRANCH  25  27
ATOM     27  C   UNL     1      31.548  14.495   1.563  0.00  0.00    +0.212 C 
ATOM     28  O   UNL     1      31.441  15.747   2.261  0.00  0.00    -0.218 OA
BRANCH  27  29
ATOM     29  C   UNL     1      32.595  13.588   2.316  0.00  0.00    +0.171 C 
ATOM     30  O   UNL     1      32.919  14.083   3.611  0.00  0.00    -0.343 OA
ATOM     31  C   UNL     1      33.983  13.621   4.388  0.00  0.00    +0.220 C 
ATOM     32  C   UNL     1      35.302  13.600   3.595  0.00  0.00    +0.076 C 
ATOM     33  C   UNL     1      35.051  12.806   2.302  0.00  0.00    +0.177 C 
ATOM     34  O   UNL     1      36.253  12.722   1.548  0.00  0.00    -0.221 OA
ATOM     35  C   UNL     1      33.908  13.472   1.475  0.00  0.00    +0.155 C 
BRANCH  35  36
ATOM     36  N   UNL     1      33.672  12.725   0.242  0.00  0.00    -0.202 NA
ATOM     37  C   UNL     1      34.098  12.979  -1.021  0.00  0.00    +0.242 C 
ATOM     38  C   UNL     1      33.960  11.891  -2.055  0.00  0.00    +0.096 C 
ATOM     39  O   UNL     1      34.582  14.076  -1.291  0.00  0.00    -0.273 OA
ENDBRANCH  35  36
BRANCH  31  40
ATOM     40  C   UNL     1      33.692  12.189   5.099  0.00  0.00    +0.391 C 
ATOM     41  O   UNL     1      34.901  11.742   5.488  0.00  0.00    -0.243 OA
ATOM     42  O   UNL     1      32.369  12.138   5.297  0.00  0.00    -0.243 OA
ENDBRANCH  31  40
ENDBRANCH  27  29
ENDBRANCH  25  27
ENDBRANCH  24  25
ENDBRANCH   2  24
TORSDOF 13
