REMARK VINA RESULT:    -7.351      0.000      0.000
REMARK INTER + INTRA:         -14.192
REMARK INTER:                 -12.801
REMARK INTRA:                  -1.391
REMARK UNBOUND:                -2.544
REMARK  Name = lig_assembled_65.pdb
REMARK  11 active torsions:
REMARK  status: ('A' for Active; 'I' for Inactive)
REMARK    1  A    between atoms: _8  and  _14
REMARK    2  A    between atoms: _9  and  _10
REMARK    3  A    between atoms: _9  and  _15
REMARK    4  A    between atoms: _15  and  _17
REMARK    5  A    between atoms: _16  and  _21
REMARK    6  A    between atoms: _17  and  _20
REMARK    7  A    between atoms: _25  and  _35
REMARK    8  A    between atoms: _27  and  _28
REMARK    9  A    between atoms: _29  and  _31
REMARK   10  A    between atoms: _31  and  _33
REMARK   11  A    between atoms: _33  and  _35
REMARK                            x       y       z     vdW  Elec       q    Type
REMARK                         _______ _______ _______ _____ _____    ______ ____
ROOT
ATOM      1  C   UNL     1      27.871  17.331  -0.842  0.00  0.00    +0.400 C 
ATOM      2  N   UNL     1      28.303  16.240  -0.126  0.00  0.00    -0.278 N 
ATOM      3  H   UNL     1      28.455  16.633   0.856  0.00  0.00    +0.152 HD
ATOM      4  O   UNL     1      27.598  18.358  -0.226  0.00  0.00    -0.226 OA
ENDROOT
BRANCH   1   5
ATOM      5  O   UNL     1      27.823  17.175  -2.125  0.00  0.00    -0.450 OA
BRANCH   5   6
ATOM      6  C   UNL     1      26.919  17.357  -3.189  0.00  0.00    +0.240 C 
BRANCH   6   7
ATOM      7  C   UNL     1      26.467  16.102  -3.961  0.00  0.00    +0.100 C 
BRANCH   7   9
ATOM      8  N   UNL     1      26.383  14.262  -2.307  0.00  0.00    -0.134 NA
ATOM      9  C   UNL     1      25.728  15.189  -3.069  0.00  0.00    +0.087 A 
ATOM     10  C   UNL     1      24.377  15.083  -2.842  0.00  0.00    +0.146 A 
ATOM     11  N   UNL     1      24.250  14.060  -1.927  0.00  0.00    -0.155 N 
ATOM     12  C   UNL     1      23.041  13.543  -1.375  0.00  0.00    +0.416 C 
ATOM     13  N   UNL     1      23.117  12.541  -0.491  0.00  0.00    +0.041 NA
ATOM     14  C   UNL     1      21.946  12.103  -0.034  0.00  0.00    +0.339 C 
ATOM     15  C   UNL     1      21.964  10.973   0.948  0.00  0.00    +0.149 C 
ATOM     16  N   UNL     1      20.761  12.592  -0.399  0.00  0.00    +0.007 NA
ATOM     17  C   UNL     1      20.796  13.572  -1.288  0.00  0.00    +0.386 C 
ATOM     18  N   UNL     1      19.591  14.098  -1.701  0.00  0.00    -0.296 N 
ATOM     19  H   UNL     1      18.868  13.918  -1.017  0.00  0.00    +0.148 HD
ATOM     20  H   UNL     1      19.697  15.048  -2.028  0.00  0.00    +0.148 HD
ATOM     21  N   UNL     1      21.896  14.101  -1.793  0.00  0.00    -0.290 NA
ATOM     22  N   UNL     1      25.481  13.581  -1.610  0.00  0.00    -0.056 NA
ENDBRANCH   7   9
ENDBRANCH   6   7
ENDBRANCH   5   6
ENDBRANCH   1   5
BRANCH   2  23
ATOM     23  C   UNL     1      28.626  14.815  -0.102  0.00  0.00    +0.152 C 
BRANCH  23  24
ATOM     24  C   UNL     1      29.658  14.370   0.955  0.00  0.00    +0.193 C 
ATOM     25  O   UNL     1      29.807  12.940   0.812  0.00  0.00    -0.219 OA
BRANCH  24  26
ATOM     26  C   UNL     1      31.095  14.922   0.828  0.00  0.00    +0.212 C 
ATOM     27  O   UNL     1      31.162  16.267   1.331  0.00  0.00    -0.218 OA
BRANCH  26  28
ATOM     28  C   UNL     1      32.168  14.048   1.582  0.00  0.00    +0.171 C 
ATOM     29  O   UNL     1      32.557  14.614   2.830  0.00  0.00    -0.343 OA
ATOM     30  C   UNL     1      33.653  14.186   3.582  0.00  0.00    +0.220 C 
ATOM     31  C   UNL     1      34.933  14.105   2.731  0.00  0.00    +0.076 C 
ATOM     32  C   UNL     1      34.615  13.241   1.499  0.00  0.00    +0.177 C 
ATOM     33  O   UNL     1      35.778  13.100   0.696  0.00  0.00    -0.221 OA
ATOM     34  C   UNL     1      33.440  13.871   0.689  0.00  0.00    +0.155 C 
BRANCH  34  35
ATOM     35  N   UNL     1      33.139  13.056  -0.486  0.00  0.00    -0.202 NA
ATOM     36  C   UNL     1      33.105  13.404  -1.797  0.00  0.00    +0.242 C 
ATOM     37  C   UNL     1      33.058  12.306  -2.828  0.00  0.00    +0.096 C 
ATOM     38  O   UNL     1      33.115  14.593  -2.111  0.00  0.00    -0.273 OA
ENDBRANCH  34  35
BRANCH  30  39
ATOM     39  C   UNL     1      33.384  12.801   4.387  0.00  0.00    +0.391 C 
ATOM     40  O   UNL     1      34.594  12.425   4.846  0.00  0.00    -0.243 OA
ATOM     41  O   UNL     1      32.057  12.718   4.548  0.00  0.00    -0.243 OA
ENDBRANCH  30  39
ENDBRANCH  26  28
ENDBRANCH  24  26
ENDBRANCH  23  24
ENDBRANCH   2  23
TORSDOF 10
