REMARK VINA RESULT:    -6.510      0.000      0.000
REMARK INTER + INTRA:         -14.185
REMARK INTER:                 -12.449
REMARK INTRA:                  -1.736
REMARK UNBOUND:                -1.966
REMARK  Name = lig_assembled_17.pdb
REMARK  17 active torsions:
REMARK  status: ('A' for Active; 'I' for Inactive)
REMARK    1  A    between atoms: _2  and  _9
REMARK    2  A    between atoms: _3  and  _10
REMARK    3  A    between atoms: _3  and  _11
REMARK    4  A    between atoms: _3  and  _13
REMARK    5  A    between atoms: _5  and  _13
REMARK    6  A    between atoms: _6  and  _7
REMARK    7  A    between atoms: _6  and  _14
REMARK    8  A    between atoms: _9  and  _10
REMARK    9  A    between atoms: _11  and  _12
REMARK   10  A    between atoms: _14  and  _16
REMARK   11  A    between atoms: _15  and  _20
REMARK   12  A    between atoms: _16  and  _19
REMARK   13  A    between atoms: _24  and  _34
REMARK   14  A    between atoms: _26  and  _27
REMARK   15  A    between atoms: _28  and  _30
REMARK   16  A    between atoms: _30  and  _32
REMARK   17  A    between atoms: _32  and  _34
REMARK                            x       y       z     vdW  Elec       q    Type
REMARK                         _______ _______ _______ _____ _____    ______ ____
ROOT
ATOM      1  C   UNL     1      27.662  17.445  -1.566  0.00  0.00    +0.400 C 
ATOM      2  N   UNL     1      28.099  16.347  -0.863  0.00  0.00    -0.278 N 
ATOM      3  H   UNL     1      28.395  16.757   0.078  0.00  0.00    +0.152 HD
ATOM      4  O   UNL     1      27.539  18.508  -0.962  0.00  0.00    -0.226 OA
ENDROOT
BRANCH   2   5
ATOM      5  C   UNL     1      28.320  14.903  -0.821  0.00  0.00    +0.152 C 
BRANCH   5   6
ATOM      6  C   UNL     1      29.284  14.395   0.270  0.00  0.00    +0.193 C 
ATOM      7  O   UNL     1      29.415  12.969   0.076  0.00  0.00    -0.219 OA
BRANCH   6   8
ATOM      8  C   UNL     1      30.736  14.922   0.243  0.00  0.00    +0.212 C 
ATOM      9  O   UNL     1      30.785  16.282   0.706  0.00  0.00    -0.218 OA
BRANCH   8  10
ATOM     10  C   UNL     1      31.730  14.059   1.109  0.00  0.00    +0.171 C 
ATOM     11  O   UNL     1      31.957  14.616   2.400  0.00  0.00    -0.343 OA
ATOM     12  C   UNL     1      32.966  14.198   3.272  0.00  0.00    +0.220 C 
ATOM     13  C   UNL     1      34.338  14.152   2.577  0.00  0.00    +0.076 C 
ATOM     14  C   UNL     1      34.185  13.298   1.308  0.00  0.00    +0.177 C 
ATOM     15  O   UNL     1      35.438  13.189   0.647  0.00  0.00    -0.221 OA
ATOM     16  C   UNL     1      33.101  13.916   0.371  0.00  0.00    +0.155 C 
BRANCH  16  17
ATOM     17  N   UNL     1      32.958  13.111  -0.839  0.00  0.00    -0.202 NA
ATOM     18  C   UNL     1      33.172  13.449  -2.136  0.00  0.00    +0.242 C 
ATOM     19  C   UNL     1      33.236  12.347  -3.162  0.00  0.00    +0.096 C 
ATOM     20  O   UNL     1      33.310  14.632  -2.441  0.00  0.00    -0.273 OA
ENDBRANCH  16  17
BRANCH  12  21
ATOM     21  C   UNL     1      32.631  12.798   4.026  0.00  0.00    +0.391 C 
ATOM     22  O   UNL     1      33.810  12.383   4.528  0.00  0.00    -0.243 OA
ATOM     23  O   UNL     1      31.297  12.741   4.124  0.00  0.00    -0.243 OA
ENDBRANCH  12  21
ENDBRANCH   8  10
ENDBRANCH   6   8
ENDBRANCH   5   6
ENDBRANCH   2   5
BRANCH   1  24
ATOM     24  O   UNL     1      27.450  17.254  -2.826  0.00  0.00    -0.450 OA
BRANCH  24  25
ATOM     25  C   UNL     1      26.377  17.240  -3.739  0.00  0.00    +0.240 C 
BRANCH  25  26
ATOM     26  C   UNL     1      26.141  15.945  -4.539  0.00  0.00    +0.100 C 
BRANCH  26  28
ATOM     27  N   UNL     1      24.539  14.064  -4.471  0.00  0.00    -0.134 NA
ATOM     28  C   UNL     1      25.209  15.062  -3.815  0.00  0.00    +0.086 A 
ATOM     29  C   UNL     1      24.860  15.040  -2.483  0.00  0.00    +0.133 A 
ATOM     30  N   UNL     1      23.992  13.996  -2.392  0.00  0.00    -0.250 N 
ATOM     31  N   UNL     1      23.791  13.417  -3.589  0.00  0.00    -0.065 NA
BRANCH  30  32
ATOM     32  C   UNL     1      23.349  13.456  -1.211  0.00  0.00    +0.160 C 
BRANCH  32  33
ATOM     33  C   UNL     1      22.301  12.403  -1.600  0.00  0.00    +0.107 C 
BRANCH  33  34
ATOM     34  N   UNL     1      21.039  12.422  -0.820  0.00  0.00    -0.301 NA
BRANCH  34  35
ATOM     35  C   UNL     1      20.381  13.732  -1.010  0.00  0.00    +0.081 C 
ATOM     36  C   UNL     1      19.689  13.911  -2.358  0.00  0.00    +0.020 C 
ENDBRANCH  34  35
BRANCH  34  37
ATOM     37  C   UNL     1      21.224  12.062   0.598  0.00  0.00    +0.081 C 
ATOM     38  C   UNL     1      21.907  10.725   0.878  0.00  0.00    +0.020 C 
ENDBRANCH  34  37
ENDBRANCH  33  34
ENDBRANCH  32  33
ENDBRANCH  30  32
ENDBRANCH  26  28
ENDBRANCH  25  26
ENDBRANCH  24  25
ENDBRANCH   1  24
TORSDOF 15
