REMARK VINA RESULT:    -7.343      0.000      0.000
REMARK INTER + INTRA:         -15.148
REMARK INTER:                 -12.781
REMARK INTRA:                  -2.367
REMARK UNBOUND:                -1.794
REMARK  Name = lig_assembled_18.pdb
REMARK  14 active torsions:
REMARK  status: ('A' for Active; 'I' for Inactive)
REMARK    1  A    between atoms: _2  and  _9
REMARK    2  A    between atoms: _3  and  _11
REMARK    3  A    between atoms: _6  and  _7
REMARK    4  A    between atoms: _6  and  _16
REMARK    5  A    between atoms: _9  and  _10
REMARK    6  A    between atoms: _11  and  _12
REMARK    7  A    between atoms: _16  and  _18
REMARK    8  A    between atoms: _17  and  _22
REMARK    9  A    between atoms: _18  and  _21
REMARK   10  A    between atoms: _26  and  _36
REMARK   11  A    between atoms: _28  and  _29
REMARK   12  A    between atoms: _30  and  _32
REMARK   13  A    between atoms: _32  and  _34
REMARK   14  A    between atoms: _34  and  _36
REMARK                            x       y       z     vdW  Elec       q    Type
REMARK                         _______ _______ _______ _____ _____    ______ ____
ROOT
ATOM      1  C   UNL     1      27.571  17.367  -1.615  0.00  0.00    +0.400 C 
ATOM      2  N   UNL     1      28.038  16.286  -0.904  0.00  0.00    -0.278 N 
ATOM      3  H   UNL     1      28.435  16.728  -0.015  0.00  0.00    +0.152 HD
ATOM      4  O   UNL     1      27.538  18.459  -1.053  0.00  0.00    -0.226 OA
ENDROOT
BRANCH   2   5
ATOM      5  C   UNL     1      28.218  14.840  -0.814  0.00  0.00    +0.152 C 
BRANCH   5   6
ATOM      6  C   UNL     1      29.211  14.344   0.257  0.00  0.00    +0.193 C 
ATOM      7  O   UNL     1      29.336  12.916   0.078  0.00  0.00    -0.219 OA
BRANCH   6   8
ATOM      8  C   UNL     1      30.662  14.869   0.185  0.00  0.00    +0.212 C 
ATOM      9  O   UNL     1      30.723  16.236   0.622  0.00  0.00    -0.218 OA
BRANCH   8  10
ATOM     10  C   UNL     1      31.677  14.020   1.043  0.00  0.00    +0.171 C 
ATOM     11  O   UNL     1      31.903  14.578   2.333  0.00  0.00    -0.343 OA
ATOM     12  C   UNL     1      32.924  14.176   3.198  0.00  0.00    +0.220 C 
ATOM     13  C   UNL     1      34.292  14.155   2.494  0.00  0.00    +0.076 C 
ATOM     14  C   UNL     1      34.145  13.301   1.224  0.00  0.00    +0.177 C 
ATOM     15  O   UNL     1      35.395  13.215   0.554  0.00  0.00    -0.221 OA
ATOM     16  C   UNL     1      33.045  13.903   0.295  0.00  0.00    +0.155 C 
BRANCH  16  17
ATOM     17  N   UNL     1      32.908  13.099  -0.916  0.00  0.00    -0.202 NA
ATOM     18  C   UNL     1      33.159  13.427  -2.209  0.00  0.00    +0.242 C 
ATOM     19  C   UNL     1      33.216  12.321  -3.230  0.00  0.00    +0.096 C 
ATOM     20  O   UNL     1      33.333  14.605  -2.514  0.00  0.00    -0.273 OA
ENDBRANCH  16  17
BRANCH  12  21
ATOM     21  C   UNL     1      32.618  12.769   3.950  0.00  0.00    +0.391 C 
ATOM     22  O   UNL     1      33.812  12.358   4.419  0.00  0.00    -0.243 OA
ATOM     23  O   UNL     1      31.287  12.702   4.082  0.00  0.00    -0.243 OA
ENDBRANCH  12  21
ENDBRANCH   8  10
ENDBRANCH   6   8
ENDBRANCH   5   6
ENDBRANCH   2   5
BRANCH   1  24
ATOM     24  O   UNL     1      27.235  17.128  -2.840  0.00  0.00    -0.450 OA
BRANCH  24  25
ATOM     25  C   UNL     1      26.071  16.979  -3.618  0.00  0.00    +0.240 C 
BRANCH  25  26
ATOM     26  C   UNL     1      25.824  15.607  -4.273  0.00  0.00    +0.100 C 
BRANCH  26  28
ATOM     27  N   UNL     1      23.873  14.148  -4.734  0.00  0.00    -0.134 NA
ATOM     28  C   UNL     1      24.450  15.147  -3.995  0.00  0.00    +0.086 A 
ATOM     29  C   UNL     1      23.553  15.575  -3.043  0.00  0.00    +0.134 A 
ATOM     30  N   UNL     1      22.462  14.780  -3.234  0.00  0.00    -0.243 N 
ATOM     31  N   UNL     1      22.649  13.938  -4.266  0.00  0.00    -0.065 NA
BRANCH  30  32
ATOM     32  C   UNL     1      21.179  14.835  -2.573  0.00  0.00    +0.240 C 
BRANCH  32  33
ATOM     33  C   UNL     1      21.099  13.886  -1.401  0.00  0.00    +0.235 C 
ATOM     34  O   UNL     1      20.215  13.967  -0.550  0.00  0.00    -0.274 OA
ATOM     35  N   UNL     1      22.053  12.887  -1.387  0.00  0.00    -0.309 N 
ATOM     36  H   UNL     1      22.857  12.944  -1.998  0.00  0.00    +0.149 HD
BRANCH  35  37
ATOM     37  C   UNL     1      22.093  11.893  -0.335  0.00  0.00    +0.146 C 
BRANCH  37  38
ATOM     38  C   UNL     1      23.471  11.823   0.239  0.00  0.00    +0.007 A 
ATOM     39  S   UNL     1      24.790  12.568  -0.563  0.00  0.00    -0.100 S 
ATOM     40  C   UNL     1      25.903  12.008   0.610  0.00  0.00    +0.045 A 
ATOM     41  C   UNL     1      25.285  11.281   1.604  0.00  0.00    +0.008 A 
ATOM     42  C   UNL     1      23.880  11.181   1.393  0.00  0.00    +0.013 A 
ENDBRANCH  37  38
ENDBRANCH  35  37
ENDBRANCH  32  33
ENDBRANCH  30  32
ENDBRANCH  26  28
ENDBRANCH  25  26
ENDBRANCH  24  25
ENDBRANCH   1  24
TORSDOF 14
