REMARK VINA RESULT:    -6.548      0.000      0.000
REMARK INTER + INTRA:         -13.859
REMARK INTER:                 -12.214
REMARK INTRA:                  -1.645
REMARK UNBOUND:                -1.953
REMARK  Name = lig_assembled_13.pdb
REMARK  15 active torsions:
REMARK  status: ('A' for Active; 'I' for Inactive)
REMARK    1  A    between atoms: _2  and  _8
REMARK    2  A    between atoms: _4  and  _10
REMARK    3  A    between atoms: _5  and  _6
REMARK    4  A    between atoms: _5  and  _13
REMARK    5  A    between atoms: _8  and  _9
REMARK    6  A    between atoms: _9  and  _11
REMARK    7  A    between atoms: _10  and  _11
REMARK    8  A    between atoms: _13  and  _15
REMARK    9  A    between atoms: _14  and  _19
REMARK   10  A    between atoms: _15  and  _18
REMARK   11  A    between atoms: _23  and  _33
REMARK   12  A    between atoms: _25  and  _26
REMARK   13  A    between atoms: _27  and  _29
REMARK   14  A    between atoms: _29  and  _31
REMARK   15  A    between atoms: _31  and  _33
REMARK                            x       y       z     vdW  Elec       q    Type
REMARK                         _______ _______ _______ _____ _____    ______ ____
ROOT
ATOM      1  C   UNL     1      27.923  14.690  -1.242  0.00  0.00    +0.152 C 
ENDROOT
BRANCH   1   3
ATOM      2  C   UNL     1      27.632  17.403  -1.260  0.00  0.00    +0.400 C 
ATOM      3  N   UNL     1      27.894  16.106  -0.885  0.00  0.00    -0.278 N 
ATOM      4  H   UNL     1      28.205  16.201   0.133  0.00  0.00    +0.152 HD
ATOM      5  O   UNL     1      27.626  18.268  -0.387  0.00  0.00    -0.226 OA
BRANCH   2   6
ATOM      6  O   UNL     1      27.446  17.594  -2.524  0.00  0.00    -0.450 OA
BRANCH   6   7
ATOM      7  C   UNL     1      26.443  17.408  -3.496  0.00  0.00    +0.240 C 
BRANCH   7   8
ATOM      8  C   UNL     1      26.581  16.196  -4.437  0.00  0.00    +0.100 C 
BRANCH   8  10
ATOM      9  N   UNL     1      24.851  14.802  -5.527  0.00  0.00    -0.134 NA
ATOM     10  C   UNL     1      25.362  15.370  -4.392  0.00  0.00    +0.086 A 
ATOM     11  C   UNL     1      24.562  15.039  -3.324  0.00  0.00    +0.134 A 
ATOM     12  N   UNL     1      23.545  14.324  -3.884  0.00  0.00    -0.241 N 
ATOM     13  N   UNL     1      23.746  14.144  -5.200  0.00  0.00    -0.065 NA
BRANCH  12  14
ATOM     14  C   UNL     1      22.417  13.703  -3.227  0.00  0.00    +0.265 C 
BRANCH  14  15
ATOM     15  C   UNL     1      21.520  14.714  -2.572  0.00  0.00    +0.329 C 
ATOM     16  O   UNL     1      21.182  15.794  -3.033  0.00  0.00    -0.249 OA
BRANCH  15  17
ATOM     17  O   UNL     1      21.215  14.284  -1.310  0.00  0.00    -0.464 OA
BRANCH  17  18
ATOM     18  C   UNL     1      20.668  12.957  -1.241  0.00  0.00    +0.229 C 
ATOM     19  C   UNL     1      21.098  12.347   0.082  0.00  0.00    +0.048 C 
ENDBRANCH  17  18
ENDBRANCH  15  17
ENDBRANCH  14  15
ENDBRANCH  12  14
ENDBRANCH   8  10
ENDBRANCH   7   8
ENDBRANCH   6   7
ENDBRANCH   2   6
ENDBRANCH   1   3
BRANCH   1  20
ATOM     20  C   UNL     1      28.904  13.808  -0.442  0.00  0.00    +0.193 C 
ATOM     21  O   UNL     1      28.781  12.469  -0.969  0.00  0.00    -0.219 OA
BRANCH  20  22
ATOM     22  C   UNL     1      30.410  14.130  -0.556  0.00  0.00    +0.212 C 
ATOM     23  O   UNL     1      30.621  15.552  -0.548  0.00  0.00    -0.218 OA
BRANCH  22  24
ATOM     24  C   UNL     1      31.275  13.486   0.594  0.00  0.00    +0.171 C 
ATOM     25  O   UNL     1      30.906  13.957   1.886  0.00  0.00    -0.343 OA
ATOM     26  C   UNL     1      31.654  13.744   3.046  0.00  0.00    +0.220 C 
ATOM     27  C   UNL     1      33.130  14.134   2.853  0.00  0.00    +0.076 C 
ATOM     28  C   UNL     1      33.644  13.396   1.606  0.00  0.00    +0.177 C 
ATOM     29  O   UNL     1      35.019  13.691   1.404  0.00  0.00    -0.221 OA
ATOM     30  C   UNL     1      32.791  13.788   0.359  0.00  0.00    +0.155 C 
BRANCH  30  31
ATOM     31  N   UNL     1      33.281  13.094  -0.829  0.00  0.00    -0.202 NA
ATOM     32  C   UNL     1      33.669  13.596  -2.029  0.00  0.00    +0.242 C 
ATOM     33  C   UNL     1      34.409  12.689  -2.978  0.00  0.00    +0.096 C 
ATOM     34  O   UNL     1      33.413  14.765  -2.310  0.00  0.00    -0.273 OA
ENDBRANCH  30  31
BRANCH  26  35
ATOM     35  C   UNL     1      31.508  12.240   3.643  0.00  0.00    +0.391 C 
ATOM     36  O   UNL     1      32.162  12.269   4.821  0.00  0.00    -0.243 OA
ATOM     37  O   UNL     1      30.562  11.642   2.910  0.00  0.00    -0.243 OA
ENDBRANCH  26  35
ENDBRANCH  22  24
ENDBRANCH  20  22
ENDBRANCH   1  20
TORSDOF 14
