REMARK VINA RESULT:    -7.397      0.000      0.000
REMARK INTER + INTRA:         -14.321
REMARK INTER:                 -12.462
REMARK INTRA:                  -1.859
REMARK UNBOUND:                -2.168
REMARK  Name = lig_assembled_86.pdb
REMARK  12 active torsions:
REMARK  status: ('A' for Active; 'I' for Inactive)
REMARK    1  A    between atoms: _2  and  _9
REMARK    2  A    between atoms: _3  and  _12
REMARK    3  A    between atoms: _6  and  _7
REMARK    4  A    between atoms: _6  and  _16
REMARK    5  A    between atoms: _16  and  _18
REMARK    6  A    between atoms: _17  and  _22
REMARK    7  A    between atoms: _18  and  _21
REMARK    8  A    between atoms: _26  and  _36
REMARK    9  A    between atoms: _28  and  _29
REMARK   10  A    between atoms: _30  and  _32
REMARK   11  A    between atoms: _32  and  _34
REMARK   12  A    between atoms: _34  and  _36
REMARK                            x       y       z     vdW  Elec       q    Type
REMARK                         _______ _______ _______ _____ _____    ______ ____
ROOT
ATOM      1  C   UNL     1      27.827  17.261  -1.224  0.00  0.00    +0.400 C 
ATOM      2  N   UNL     1      28.002  15.984  -0.744  0.00  0.00    -0.278 N 
ATOM      3  H   UNL     1      28.215  16.137   0.292  0.00  0.00    +0.152 HD
ATOM      4  O   UNL     1      27.766  18.182  -0.413  0.00  0.00    -0.226 OA
ENDROOT
BRANCH   1   5
ATOM      5  O   UNL     1      27.772  17.373  -2.511  0.00  0.00    -0.450 OA
BRANCH   5   6
ATOM      6  C   UNL     1      26.809  17.448  -3.536  0.00  0.00    +0.240 C 
BRANCH   6   7
ATOM      7  C   UNL     1      26.490  16.154  -4.308  0.00  0.00    +0.100 C 
BRANCH   7   9
ATOM      8  N   UNL     1      24.970  15.524  -2.452  0.00  0.00    -0.134 NA
ATOM      9  C   UNL     1      25.247  15.549  -3.795  0.00  0.00    +0.086 A 
ATOM     10  C   UNL     1      24.208  14.959  -4.476  0.00  0.00    +0.134 A 
ATOM     11  N   UNL     1      23.318  14.630  -3.499  0.00  0.00    -0.248 N 
ATOM     12  N   UNL     1      23.790  14.942  -2.281  0.00  0.00    -0.065 NA
BRANCH  11  13
ATOM     13  C   UNL     1      22.004  14.028  -3.670  0.00  0.00    +0.112 C 
ATOM     14  C   UNL     1      22.024  12.513  -3.384  0.00  0.00    +0.045 C 
ATOM     15  C   UNL     1      20.881  12.015  -2.495  0.00  0.00    +0.059 C 
ATOM     16  C   UNL     1      21.128  12.371  -1.025  0.00  0.00    +0.020 C 
ATOM     17  C   UNL     1      20.398  13.696  -0.823  0.00  0.00    +0.020 C 
ATOM     18  C   UNL     1      19.853  14.049  -2.208  0.00  0.00    +0.059 C 
ATOM     19  N   UNL     1      19.620  12.711  -2.752  0.00  0.00    -0.299 NA
ATOM     20  C   UNL     1      19.100  12.644  -4.104  0.00  0.00    +0.105 C 
ATOM     21  C   UNL     1      20.873  14.858  -3.019  0.00  0.00    +0.045 C 
ENDBRANCH  11  13
ENDBRANCH   7   9
ENDBRANCH   6   7
ENDBRANCH   5   6
ENDBRANCH   1   5
BRANCH   2  22
ATOM     22  C   UNL     1      28.014  14.548  -1.006  0.00  0.00    +0.152 C 
BRANCH  22  23
ATOM     23  C   UNL     1      29.028  13.717  -0.194  0.00  0.00    +0.193 C 
ATOM     24  O   UNL     1      28.840  12.338  -0.581  0.00  0.00    -0.219 OA
BRANCH  23  25
ATOM     25  C   UNL     1      30.530  13.984  -0.438  0.00  0.00    +0.212 C 
ATOM     26  O   UNL     1      30.784  15.397  -0.500  0.00  0.00    -0.218 OA
BRANCH  25  27
ATOM     27  C   UNL     1      31.464  13.353   0.664  0.00  0.00    +0.171 C 
ATOM     28  O   UNL     1      31.110  13.761   1.981  0.00  0.00    -0.343 OA
ATOM     29  C   UNL     1      31.905  13.553   3.111  0.00  0.00    +0.220 C 
ATOM     30  C   UNL     1      33.350  14.030   2.888  0.00  0.00    +0.076 C 
ATOM     31  C   UNL     1      33.865  13.361   1.602  0.00  0.00    +0.177 C 
ATOM     32  O   UNL     1      35.215  13.738   1.370  0.00  0.00    -0.221 OA
ATOM     33  C   UNL     1      32.953  13.745   0.395  0.00  0.00    +0.155 C 
BRANCH  33  34
ATOM     34  N   UNL     1      33.443  13.117  -0.830  0.00  0.00    -0.202 NA
ATOM     35  C   UNL     1      33.780  13.680  -2.018  0.00  0.00    +0.242 C 
ATOM     36  C   UNL     1      34.535  12.842  -3.017  0.00  0.00    +0.096 C 
ATOM     37  O   UNL     1      33.467  14.846  -2.249  0.00  0.00    -0.273 OA
ENDBRANCH  33  34
BRANCH  29  38
ATOM     38  C   UNL     1      31.859  12.025   3.662  0.00  0.00    +0.391 C 
ATOM     39  O   UNL     1      32.885  11.938   4.531  0.00  0.00    -0.243 OA
ATOM     40  O   UNL     1      30.671  11.533   3.289  0.00  0.00    -0.243 OA
ENDBRANCH  29  38
ENDBRANCH  25  27
ENDBRANCH  23  25
ENDBRANCH  22  23
ENDBRANCH   2  22
TORSDOF 11
