REMARK VINA RESULT:    -8.235      0.000      0.000
REMARK INTER + INTRA:         -16.541
REMARK INTER:                 -14.806
REMARK INTRA:                  -1.735
REMARK UNBOUND:                -1.807
REMARK  Name = lig_assembled_75.pdb
REMARK  14 active torsions:
REMARK  status: ('A' for Active; 'I' for Inactive)
REMARK    1  A    between atoms: _2  and  _8
REMARK    2  A    between atoms: _5  and  _6
REMARK    3  A    between atoms: _5  and  _18
REMARK    4  A    between atoms: _10  and  _11
REMARK    5  A    between atoms: _12  and  _13
REMARK    6  A    between atoms: _13  and  _16
REMARK    7  A    between atoms: _18  and  _20
REMARK    8  A    between atoms: _19  and  _24
REMARK    9  A    between atoms: _20  and  _23
REMARK   10  A    between atoms: _28  and  _38
REMARK   11  A    between atoms: _30  and  _31
REMARK   12  A    between atoms: _32  and  _34
REMARK   13  A    between atoms: _34  and  _36
REMARK   14  A    between atoms: _36  and  _38
REMARK                            x       y       z     vdW  Elec       q    Type
REMARK                         _______ _______ _______ _____ _____    ______ ____
ROOT
ATOM      1  C   UNL     1      27.996  17.281  -0.802  0.00  0.00    +0.400 C 
ATOM      2  N   UNL     1      28.344  16.178  -0.058  0.00  0.00    -0.278 N 
ATOM      3  H   UNL     1      28.617  16.595   0.888  0.00  0.00    +0.152 HD
ATOM      4  O   UNL     1      27.898  18.361  -0.226  0.00  0.00    -0.226 OA
ENDROOT
BRANCH   2   5
ATOM      5  C   UNL     1      28.491  14.727   0.023  0.00  0.00    +0.152 C 
BRANCH   5   6
ATOM      6  C   UNL     1      29.600  14.208   0.961  0.00  0.00    +0.193 C 
ATOM      7  O   UNL     1      29.802  12.815   0.634  0.00  0.00    -0.219 OA
BRANCH   6   8
ATOM      8  C   UNL     1      31.003  14.841   0.830  0.00  0.00    +0.212 C 
ATOM      9  O   UNL     1      31.000  16.179   1.353  0.00  0.00    -0.218 OA
BRANCH   8  10
ATOM     10  C   UNL     1      32.131  14.017   1.559  0.00  0.00    +0.171 C 
ATOM     11  O   UNL     1      32.538  14.613   2.787  0.00  0.00    -0.343 OA
ATOM     12  C   UNL     1      33.672  14.235   3.508  0.00  0.00    +0.220 C 
ATOM     13  C   UNL     1      34.926  14.189   2.618  0.00  0.00    +0.076 C 
ATOM     14  C   UNL     1      34.602  13.297   1.408  0.00  0.00    +0.177 C 
ATOM     15  O   UNL     1      35.744  13.189   0.569  0.00  0.00    -0.221 OA
ATOM     16  C   UNL     1      33.379  13.874   0.628  0.00  0.00    +0.155 C 
BRANCH  16  17
ATOM     17  N   UNL     1      33.072  13.033  -0.527  0.00  0.00    -0.202 NA
ATOM     18  C   UNL     1      33.055  13.345  -1.847  0.00  0.00    +0.242 C 
ATOM     19  C   UNL     1      32.994  12.221  -2.848  0.00  0.00    +0.096 C 
ATOM     20  O   UNL     1      33.090  14.525  -2.193  0.00  0.00    -0.273 OA
ENDBRANCH  16  17
BRANCH  12  21
ATOM     21  C   UNL     1      33.480  12.852   4.339  0.00  0.00    +0.391 C 
ATOM     22  O   UNL     1      34.722  12.502   4.725  0.00  0.00    -0.243 OA
ATOM     23  O   UNL     1      32.168  12.746   4.583  0.00  0.00    -0.243 OA
ENDBRANCH  12  21
ENDBRANCH   8  10
ENDBRANCH   6   8
ENDBRANCH   5   6
ENDBRANCH   2   5
BRANCH   1  24
ATOM     24  O   UNL     1      27.832  17.073  -2.068  0.00  0.00    -0.450 OA
BRANCH  24  25
ATOM     25  C   UNL     1      26.917  17.386  -3.092  0.00  0.00    +0.240 C 
BRANCH  25  26
ATOM     26  C   UNL     1      26.689  16.328  -4.188  0.00  0.00    +0.100 C 
BRANCH  26  28
ATOM     27  N   UNL     1      24.767  14.963  -4.937  0.00  0.00    -0.134 NA
ATOM     28  C   UNL     1      25.446  15.579  -3.927  0.00  0.00    +0.086 A 
ATOM     29  C   UNL     1      24.779  15.368  -2.742  0.00  0.00    +0.139 A 
ATOM     30  N   UNL     1      23.683  14.609  -3.081  0.00  0.00    -0.220 N 
ATOM     31  N   UNL     1      23.696  14.377  -4.417  0.00  0.00    -0.061 NA
BRANCH  30  32
ATOM     32  C   UNL     1      22.640  14.128  -2.248  0.00  0.00    +0.068 A 
ATOM     33  C   UNL     1      22.906  13.085  -1.344  0.00  0.00    +0.035 A 
ATOM     34  C   UNL     1      21.884  12.541  -0.553  0.00  0.00    -0.023 A 
ATOM     35  C   UNL     1      20.602  13.100  -0.633  0.00  0.00    +0.008 A 
ATOM     36  C   UNL     1      20.337  14.151  -1.513  0.00  0.00    +0.003 A 
ATOM     37  C   UNL     1      21.348  14.661  -2.327  0.00  0.00    +0.028 A 
BRANCH  34  38
ATOM     38  C   UNL     1      22.111  11.419   0.371  0.00  0.00    +0.015 C 
ATOM     39  C   UNL     1      22.097  11.540   1.708  0.00  0.00    +0.092 C 
BRANCH  39  40
ATOM     40  C   UNL     1      22.389  10.364   2.551  0.00  0.00    +0.330 C 
ATOM     41  O   UNL     1      21.830   9.286   2.455  0.00  0.00    -0.246 OA
BRANCH  40  42
ATOM     42  O   UNL     1      23.367  10.615   3.444  0.00  0.00    -0.478 OA
ATOM     43  H   UNL     1      23.679  11.537   3.482  0.00  0.00    +0.295 HD
ENDBRANCH  40  42
ENDBRANCH  39  40
ENDBRANCH  34  38
ENDBRANCH  30  32
ENDBRANCH  26  28
ENDBRANCH  25  26
ENDBRANCH  24  25
ENDBRANCH   1  24
TORSDOF 14
