REMARK VINA RESULT:    -8.069      0.000      0.000
REMARK INTER + INTRA:         -18.978
REMARK INTER:                 -16.678
REMARK INTRA:                  -2.300
REMARK UNBOUND:                -3.125
REMARK  Name = lig_assembled_47.pdb
REMARK  17 active torsions:
REMARK  status: ('A' for Active; 'I' for Inactive)
REMARK    1  A    between atoms: _2  and  _8
REMARK    2  A    between atoms: _5  and  _6
REMARK    3  A    between atoms: _5  and  _25
REMARK    4  A    between atoms: _8  and  _9
REMARK    5  A    between atoms: _9  and  _10
REMARK    6  A    between atoms: _9  and  _11
REMARK    7  A    between atoms: _10  and  _23
REMARK    8  A    between atoms: _11  and  _12
REMARK    9  A    between atoms: _11  and  _18
REMARK   10  A    between atoms: _25  and  _27
REMARK   11  A    between atoms: _26  and  _31
REMARK   12  A    between atoms: _27  and  _30
REMARK   13  A    between atoms: _35  and  _45
REMARK   14  A    between atoms: _37  and  _38
REMARK   15  A    between atoms: _39  and  _41
REMARK   16  A    between atoms: _41  and  _43
REMARK   17  A    between atoms: _43  and  _45
REMARK                            x       y       z     vdW  Elec       q    Type
REMARK                         _______ _______ _______ _____ _____    ______ ____
ROOT
ATOM      1  C   UNL     1      26.909  16.390  -3.738  0.00  0.00    +0.100 C 
ENDROOT
BRANCH   1   3
ATOM      2  N   UNL     1      25.539  15.162  -5.406  0.00  0.00    -0.134 NA
ATOM      3  C   UNL     1      25.676  15.687  -4.147  0.00  0.00    +0.086 A 
ATOM      4  C   UNL     1      24.515  15.462  -3.441  0.00  0.00    +0.133 A 
ATOM      5  N   UNL     1      23.696  14.840  -4.339  0.00  0.00    -0.251 N 
ATOM      6  N   UNL     1      24.321  14.645  -5.511  0.00  0.00    -0.065 NA
BRANCH   5   7
ATOM      7  C   UNL     1      22.278  14.548  -4.205  0.00  0.00    +0.160 C 
BRANCH   7   8
ATOM      8  C   UNL     1      21.628  15.178  -2.969  0.00  0.00    +0.131 C 
BRANCH   8   9
ATOM      9  C   UNL     1      20.976  16.481  -3.409  0.00  0.00    +0.311 C 
ATOM     10  O   UNL     1      19.888  16.525  -3.962  0.00  0.00    -0.251 OA
BRANCH   9  11
ATOM     11  O   UNL     1      21.605  17.624  -3.064  0.00  0.00    -0.480 OA
ATOM     12  H   UNL     1      22.097  18.112  -3.745  0.00  0.00    +0.295 HD
ENDBRANCH   9  11
ENDBRANCH   8   9
BRANCH   8  13
ATOM     13  C   UNL     1      20.626  14.249  -2.214  0.00  0.00    +0.064 C 
BRANCH  13  14
ATOM     14  C   UNL     1      19.734  13.376  -3.098  0.00  0.00    -0.039 A 
ATOM     15  C   UNL     1      20.212  12.134  -3.562  0.00  0.00    +0.004 A 
ATOM     16  C   UNL     1      19.422  11.312  -4.372  0.00  0.00    +0.000 A 
ATOM     17  C   UNL     1      18.146  11.719  -4.748  0.00  0.00    +0.000 A 
ATOM     18  C   UNL     1      17.664  12.951  -4.317  0.00  0.00    +0.000 A 
ATOM     19  C   UNL     1      18.446  13.767  -3.491  0.00  0.00    +0.004 A 
ENDBRANCH  13  14
BRANCH  13  20
ATOM     20  C   UNL     1      21.360  13.449  -1.129  0.00  0.00    -0.039 A 
ATOM     21  C   UNL     1      22.722  13.139  -1.275  0.00  0.00    +0.004 A 
ATOM     22  C   UNL     1      23.352  12.270  -0.379  0.00  0.00    +0.000 A 
ATOM     23  C   UNL     1      22.641  11.721   0.686  0.00  0.00    +0.000 A 
ATOM     24  C   UNL     1      21.303  12.050   0.867  0.00  0.00    +0.000 A 
ATOM     25  C   UNL     1      20.669  12.906  -0.032  0.00  0.00    +0.004 A 
ENDBRANCH  13  20
ENDBRANCH   8  13
ENDBRANCH   7   8
ENDBRANCH   5   7
ENDBRANCH   1   3
BRANCH   1  26
ATOM     26  C   UNL     1      27.246  16.102  -2.262  0.00  0.00    +0.240 C 
BRANCH  26  27
ATOM     27  O   UNL     1      28.209  16.923  -1.643  0.00  0.00    -0.450 OA
BRANCH  27  28
ATOM     28  C   UNL     1      28.346  17.639  -0.577  0.00  0.00    +0.400 C 
ATOM     29  N   UNL     1      29.551  17.513   0.075  0.00  0.00    -0.278 N 
ATOM     30  H   UNL     1      29.532  18.311   0.786  0.00  0.00    +0.152 HD
ATOM     31  O   UNL     1      27.522  18.429  -0.122  0.00  0.00    -0.226 OA
BRANCH  29  32
ATOM     32  C   UNL     1      30.807  16.786   0.237  0.00  0.00    +0.152 C 
BRANCH  32  33
ATOM     33  C   UNL     1      30.728  15.252   0.092  0.00  0.00    +0.193 C 
ATOM     34  O   UNL     1      31.697  14.880  -0.913  0.00  0.00    -0.219 OA
BRANCH  33  35
ATOM     35  C   UNL     1      31.102  14.397   1.323  0.00  0.00    +0.212 C 
ATOM     36  O   UNL     1      31.365  15.239   2.458  0.00  0.00    -0.218 OA
BRANCH  35  37
ATOM     37  C   UNL     1      29.990  13.352   1.719  0.00  0.00    +0.171 C 
ATOM     38  O   UNL     1      28.683  13.918   1.722  0.00  0.00    -0.343 OA
ATOM     39  C   UNL     1      27.556  13.294   2.262  0.00  0.00    +0.220 C 
ATOM     40  C   UNL     1      27.811  12.798   3.696  0.00  0.00    +0.076 C 
ATOM     41  C   UNL     1      29.079  11.928   3.665  0.00  0.00    +0.177 C 
ATOM     42  O   UNL     1      29.339  11.410   4.962  0.00  0.00    -0.221 OA
ATOM     43  C   UNL     1      30.288  12.760   3.135  0.00  0.00    +0.155 C 
BRANCH  43  44
ATOM     44  N   UNL     1      31.497  11.940   3.111  0.00  0.00    -0.202 NA
ATOM     45  C   UNL     1      32.629  12.042   3.853  0.00  0.00    +0.242 C 
ATOM     46  C   UNL     1      33.601  10.891   3.835  0.00  0.00    +0.096 C 
ATOM     47  O   UNL     1      32.833  13.058   4.514  0.00  0.00    -0.273 OA
ENDBRANCH  43  44
BRANCH  39  48
ATOM     48  C   UNL     1      26.954  12.115   1.320  0.00  0.00    +0.391 C 
ATOM     49  O   UNL     1      26.079  11.457   2.104  0.00  0.00    -0.243 OA
ATOM     50  O   UNL     1      27.315  12.422   0.068  0.00  0.00    -0.243 OA
ENDBRANCH  39  48
ENDBRANCH  35  37
ENDBRANCH  33  35
ENDBRANCH  32  33
ENDBRANCH  29  32
ENDBRANCH  27  28
ENDBRANCH  26  27
ENDBRANCH   1  26
TORSDOF 17
