REMARK VINA RESULT:    -7.200      0.000      0.000
REMARK INTER + INTRA:         -16.053
REMARK INTER:                 -11.814
REMARK INTRA:                  -4.239
REMARK UNBOUND:                -2.540
REMARK  Name = lig_assembled_31.pdb
REMARK  15 active torsions:
REMARK  status: ('A' for Active; 'I' for Inactive)
REMARK    1  A    between atoms: _2  and  _10
REMARK    2  A    between atoms: _3  and  _11
REMARK    3  A    between atoms: _4  and  _13
REMARK    4  A    between atoms: _7  and  _8
REMARK    5  A    between atoms: _7  and  _19
REMARK    6  A    between atoms: _10  and  _11
REMARK    7  A    between atoms: _13  and  _14
REMARK    8  A    between atoms: _19  and  _21
REMARK    9  A    between atoms: _20  and  _25
REMARK   10  A    between atoms: _21  and  _24
REMARK   11  A    between atoms: _29  and  _39
REMARK   12  A    between atoms: _31  and  _32
REMARK   13  A    between atoms: _33  and  _35
REMARK   14  A    between atoms: _35  and  _37
REMARK   15  A    between atoms: _37  and  _39
REMARK                            x       y       z     vdW  Elec       q    Type
REMARK                         _______ _______ _______ _____ _____    ______ ____
ROOT
ATOM      1  C   UNL     1      29.210  12.103  -3.847  0.00  0.00    +0.400 C 
ATOM      2  N   UNL     1      28.631  12.479  -2.658  0.00  0.00    -0.278 N 
ATOM      3  H   UNL     1      27.704  12.915  -2.961  0.00  0.00    +0.152 HD
ATOM      4  O   UNL     1      28.530  12.166  -4.868  0.00  0.00    -0.226 OA
ENDROOT
BRANCH   2   5
ATOM      5  C   UNL     1      28.706  12.534  -1.200  0.00  0.00    +0.152 C 
BRANCH   5   6
ATOM      6  C   UNL     1      27.392  12.256  -0.441  0.00  0.00    +0.193 C 
ATOM      7  O   UNL     1      27.283  13.267   0.584  0.00  0.00    -0.219 OA
BRANCH   6   8
ATOM      8  C   UNL     1      26.071  12.366  -1.234  0.00  0.00    +0.212 C 
ATOM      9  O   UNL     1      26.055  11.421  -2.316  0.00  0.00    -0.218 OA
BRANCH   8  10
ATOM     10  C   UNL     1      24.789  12.136  -0.346  0.00  0.00    +0.171 C 
ATOM     11  O   UNL     1      24.774  10.855   0.274  0.00  0.00    -0.343 OA
ATOM     12  C   UNL     1      23.661  10.299   0.909  0.00  0.00    +0.220 C 
ATOM     13  C   UNL     1      22.408  10.358   0.019  0.00  0.00    +0.076 C 
ATOM     14  C   UNL     1      22.233  11.816  -0.437  0.00  0.00    +0.177 C 
ATOM     15  O   UNL     1      21.062  11.935  -1.233  0.00  0.00    -0.221 OA
ATOM     16  C   UNL     1      23.498  12.292  -1.215  0.00  0.00    +0.155 C 
BRANCH  16  17
ATOM     17  N   UNL     1      23.333  13.675  -1.656  0.00  0.00    -0.202 NA
ATOM     18  C   UNL     1      23.061  14.165  -2.892  0.00  0.00    +0.242 C 
ATOM     19  C   UNL     1      22.650  15.610  -3.014  0.00  0.00    +0.096 C 
ATOM     20  O   UNL     1      23.153  13.429  -3.872  0.00  0.00    -0.273 OA
ENDBRANCH  16  17
BRANCH  12  21
ATOM     21  C   UNL     1      23.377  10.924   2.382  0.00  0.00    +0.391 C 
ATOM     22  O   UNL     1      22.168  10.445   2.735  0.00  0.00    -0.243 OA
ATOM     23  O   UNL     1      24.547  11.416   2.807  0.00  0.00    -0.243 OA
ENDBRANCH  12  21
ENDBRANCH   8  10
ENDBRANCH   6   8
ENDBRANCH   5   6
ENDBRANCH   2   5
BRANCH   1  24
ATOM     24  O   UNL     1      30.450  11.743  -3.777  0.00  0.00    -0.450 OA
BRANCH  24  25
ATOM     25  C   UNL     1      31.704  12.127  -4.289  0.00  0.00    +0.240 C 
BRANCH  25  26
ATOM     26  C   UNL     1      32.908  12.080  -3.329  0.00  0.00    +0.100 C 
BRANCH  26  28
ATOM     27  N   UNL     1      32.838  14.322  -2.281  0.00  0.00    -0.134 NA
ATOM     28  C   UNL     1      32.678  12.967  -2.170  0.00  0.00    +0.086 A 
ATOM     29  C   UNL     1      32.298  12.662  -0.882  0.00  0.00    +0.133 A 
ATOM     30  N   UNL     1      32.256  13.875  -0.259  0.00  0.00    -0.250 N 
ATOM     31  N   UNL     1      32.574  14.870  -1.102  0.00  0.00    -0.065 NA
BRANCH  30  32
ATOM     32  C   UNL     1      31.927  14.159   1.123  0.00  0.00    +0.164 C 
BRANCH  32  33
ATOM     33  C   UNL     1      31.114  15.439   1.247  0.00  0.00    +0.129 C 
BRANCH  33  34
ATOM     34  N   UNL     1      29.753  15.345   0.737  0.00  0.00    -0.298 N 
ATOM     35  H   UNL     1      29.254  14.467   0.754  0.00  0.00    +0.150 HD
ATOM     36  C   UNL     1      29.318  16.308  -0.136  0.00  0.00    +0.300 C 
ATOM     37  O   UNL     1      29.991  17.295  -0.426  0.00  0.00    -0.253 OA
ATOM     38  N   UNL     1      28.069  16.095  -0.632  0.00  0.00    -0.292 N 
ATOM     39  H   UNL     1      27.535  15.263  -0.427  0.00  0.00    +0.151 HD
BRANCH  38  40
ATOM     40  C   UNL     1      27.519  17.058  -1.556  0.00  0.00    +0.180 C 
BRANCH  40  41
ATOM     41  C   UNL     1      26.988  16.444  -2.799  0.00  0.00    +0.122 A 
ATOM     42  O   UNL     1      26.906  15.083  -2.885  0.00  0.00    -0.466 OA
ATOM     43  C   UNL     1      26.391  14.797  -4.113  0.00  0.00    +0.195 A 
ATOM     44  C   UNL     1      26.143  15.952  -4.818  0.00  0.00    +0.041 A 
ATOM     45  C   UNL     1      26.529  17.016  -3.971  0.00  0.00    +0.046 A 
ENDBRANCH  40  41
ENDBRANCH  38  40
ENDBRANCH  33  34
ENDBRANCH  32  33
ENDBRANCH  30  32
ENDBRANCH  26  28
ENDBRANCH  25  26
ENDBRANCH  24  25
ENDBRANCH   1  24
TORSDOF 15
