REMARK VINA RESULT:    -7.231      0.000      0.000
REMARK INTER + INTRA:         -16.785
REMARK INTER:                 -13.906
REMARK INTRA:                  -2.879
REMARK UNBOUND:                -2.580
REMARK  Name = lig_assembled_90.pdb
REMARK  17 active torsions:
REMARK  status: ('A' for Active; 'I' for Inactive)
REMARK    1  A    between atoms: _2  and  _12
REMARK    2  A    between atoms: _3  and  _14
REMARK    3  A    between atoms: _4  and  _16
REMARK    4  A    between atoms: _9  and  _10
REMARK    5  A    between atoms: _9  and  _23
REMARK    6  A    between atoms: _12  and  _13
REMARK    7  A    between atoms: _14  and  _15
REMARK    8  A    between atoms: _15  and  _16
REMARK    9  A    between atoms: _15  and  _21
REMARK   10  A    between atoms: _23  and  _25
REMARK   11  A    between atoms: _24  and  _29
REMARK   12  A    between atoms: _25  and  _28
REMARK   13  A    between atoms: _33  and  _43
REMARK   14  A    between atoms: _35  and  _36
REMARK   15  A    between atoms: _37  and  _39
REMARK   16  A    between atoms: _39  and  _41
REMARK   17  A    between atoms: _41  and  _43
REMARK                            x       y       z     vdW  Elec       q    Type
REMARK                         _______ _______ _______ _____ _____    ______ ____
ROOT
ATOM      1  C   UNL     1      28.928  15.321  -0.048  0.00  0.00    +0.240 C 
ENDROOT
BRANCH   1   2
ATOM      2  O   UNL     1      28.723  16.404  -0.925  0.00  0.00    -0.450 OA
BRANCH   2   3
ATOM      3  C   UNL     1      27.800  17.254  -1.234  0.00  0.00    +0.400 C 
ATOM      4  N   UNL     1      26.786  16.771  -2.027  0.00  0.00    -0.278 N 
ATOM      5  H   UNL     1      26.055  17.549  -1.996  0.00  0.00    +0.152 HD
ATOM      6  O   UNL     1      27.737  18.423  -0.862  0.00  0.00    -0.226 OA
BRANCH   4   7
ATOM      7  C   UNL     1      26.279  15.702  -2.885  0.00  0.00    +0.152 C 
BRANCH   7   8
ATOM      8  C   UNL     1      25.040  14.944  -2.365  0.00  0.00    +0.193 C 
ATOM      9  O   UNL     1      23.966  15.220  -3.290  0.00  0.00    -0.219 OA
BRANCH   8  10
ATOM     10  C   UNL     1      25.117  13.402  -2.311  0.00  0.00    +0.212 C 
ATOM     11  O   UNL     1      26.383  12.944  -2.813  0.00  0.00    -0.218 OA
BRANCH  10  12
ATOM     12  C   UNL     1      24.908  12.817  -0.862  0.00  0.00    +0.171 C 
ATOM     13  O   UNL     1      25.956  11.935  -0.471  0.00  0.00    -0.343 OA
ATOM     14  C   UNL     1      25.905  11.098   0.645  0.00  0.00    +0.220 C 
ATOM     15  C   UNL     1      24.611  10.266   0.677  0.00  0.00    +0.076 C 
ATOM     16  C   UNL     1      23.431  11.242   0.546  0.00  0.00    +0.177 C 
ATOM     17  O   UNL     1      22.205  10.527   0.610  0.00  0.00    -0.221 OA
ATOM     18  C   UNL     1      23.546  12.052  -0.783  0.00  0.00    +0.155 C 
BRANCH  18  19
ATOM     19  N   UNL     1      22.423  12.975  -0.914  0.00  0.00    -0.202 NA
ATOM     20  C   UNL     1      21.442  13.021  -1.851  0.00  0.00    +0.242 C 
ATOM     21  C   UNL     1      20.240  13.891  -1.586  0.00  0.00    +0.096 C 
ATOM     22  O   UNL     1      21.553  12.359  -2.880  0.00  0.00    -0.273 OA
ENDBRANCH  18  19
BRANCH  14  23
ATOM     23  C   UNL     1      26.149  11.876   2.050  0.00  0.00    +0.391 C 
ATOM     24  O   UNL     1      25.606  11.077   2.989  0.00  0.00    -0.243 OA
ATOM     25  O   UNL     1      27.039  12.841   1.788  0.00  0.00    -0.243 OA
ENDBRANCH  14  23
ENDBRANCH  10  12
ENDBRANCH   8  10
ENDBRANCH   7   8
ENDBRANCH   4   7
ENDBRANCH   2   3
ENDBRANCH   1   2
BRANCH   1  26
ATOM     26  C   UNL     1      29.259  13.952  -0.674  0.00  0.00    +0.100 C 
BRANCH  26  28
ATOM     27  N   UNL     1      31.143  13.196  -2.099  0.00  0.00    -0.134 NA
ATOM     28  C   UNL     1      30.699  13.864  -0.987  0.00  0.00    +0.086 A 
ATOM     29  C   UNL     1      31.781  14.372  -0.306  0.00  0.00    +0.134 A 
ATOM     30  N   UNL     1      32.851  14.000  -1.063  0.00  0.00    -0.243 N 
ATOM     31  N   UNL     1      32.467  13.277  -2.130  0.00  0.00    -0.065 NA
BRANCH  30  32
ATOM     32  C   UNL     1      34.254  14.197  -0.786  0.00  0.00    +0.240 C 
BRANCH  32  33
ATOM     33  C   UNL     1      34.658  13.535   0.512  0.00  0.00    +0.235 C 
ATOM     34  O   UNL     1      34.736  12.314   0.637  0.00  0.00    -0.274 OA
ATOM     35  N   UNL     1      34.989  14.402   1.536  0.00  0.00    -0.311 N 
ATOM     36  H   UNL     1      34.656  15.361   1.489  0.00  0.00    +0.149 HD
BRANCH  35  37
ATOM     37  C   UNL     1      35.313  13.889   2.860  0.00  0.00    +0.137 C 
BRANCH  37  38
ATOM     38  C   UNL     1      34.210  14.232   3.873  0.00  0.00    +0.151 C 
BRANCH  38  39
ATOM     39  O   UNL     1      34.003  15.650   3.864  0.00  0.00    -0.388 OA
ATOM     40  H   UNL     1      34.103  15.991   4.775  0.00  0.00    +0.210 HD
ENDBRANCH  38  39
BRANCH  38  41
ATOM     41  C   UNL     1      32.908  13.479   3.569  0.00  0.00    +0.162 C 
BRANCH  41  42
ATOM     42  N   UNL     1      32.323  12.877   4.759  0.00  0.00    -0.269 N 
ATOM     43  C   UNL     1      33.046  12.621   5.904  0.00  0.00    +0.113 A 
ATOM     44  C   UNL     1      32.168  12.019   6.773  0.00  0.00    +0.137 A 
ATOM     45  N   UNL     1      30.930  11.893   6.199  0.00  0.00    -0.172 NA
ATOM     46  C   UNL     1      31.047  12.428   4.994  0.00  0.00    +0.450 A 
ATOM     47  N   UNL     1      29.941  12.497   4.070  0.00  0.00    +0.120 N 
ATOM     48  O   UNL     1      30.115  13.111   3.008  0.00  0.00    +0.045 OA
ATOM     49  O   UNL     1      28.891  11.928   4.396  0.00  0.00    -0.573 OA
ENDBRANCH  41  42
ENDBRANCH  38  41
ENDBRANCH  37  38
ENDBRANCH  35  37
ENDBRANCH  32  33
ENDBRANCH  30  32
ENDBRANCH  26  28
ENDBRANCH   1  26
TORSDOF 17
