REMARK VINA RESULT:    -8.566      0.000      0.000
REMARK INTER + INTRA:         -15.837
REMARK INTER:                 -13.885
REMARK INTRA:                  -1.952
REMARK UNBOUND:                -1.762
REMARK  Name = lig_assembled_25.pdb
REMARK  11 active torsions:
REMARK  status: ('A' for Active; 'I' for Inactive)
REMARK    1  A    between atoms: _2  and  _8
REMARK    2  A    between atoms: _5  and  _6
REMARK    3  A    between atoms: _5  and  _20
REMARK    4  A    between atoms: _20  and  _22
REMARK    5  A    between atoms: _21  and  _26
REMARK    6  A    between atoms: _22  and  _25
REMARK    7  A    between atoms: _30  and  _40
REMARK    8  A    between atoms: _32  and  _33
REMARK    9  A    between atoms: _34  and  _36
REMARK   10  A    between atoms: _36  and  _38
REMARK   11  A    between atoms: _38  and  _40
REMARK                            x       y       z     vdW  Elec       q    Type
REMARK                         _______ _______ _______ _____ _____    ______ ____
ROOT
ATOM      1  C   UNL     1      27.815  17.439  -1.193  0.00  0.00    +0.400 C 
ATOM      2  N   UNL     1      28.218  16.299  -0.537  0.00  0.00    -0.278 N 
ATOM      3  H   UNL     1      28.317  16.619   0.477  0.00  0.00    +0.152 HD
ATOM      4  O   UNL     1      27.504  18.416  -0.517  0.00  0.00    -0.226 OA
ENDROOT
BRANCH   1   5
ATOM      5  O   UNL     1      27.834  17.379  -2.484  0.00  0.00    -0.450 OA
BRANCH   5   6
ATOM      6  C   UNL     1      26.936  17.421  -3.568  0.00  0.00    +0.240 C 
BRANCH   6   7
ATOM      7  C   UNL     1      26.690  16.109  -4.339  0.00  0.00    +0.100 C 
BRANCH   7   9
ATOM      8  N   UNL     1      24.835  14.498  -4.589  0.00  0.00    -0.134 NA
ATOM      9  C   UNL     1      25.487  15.428  -3.825  0.00  0.00    +0.086 A 
ATOM     10  C   UNL     1      24.823  15.573  -2.627  0.00  0.00    +0.134 A 
ATOM     11  N   UNL     1      23.762  14.717  -2.727  0.00  0.00    -0.240 N 
ATOM     12  N   UNL     1      23.783  14.064  -3.910  0.00  0.00    -0.065 NA
BRANCH  11  13
ATOM     13  C   UNL     1      22.646  14.504  -1.820  0.00  0.00    +0.170 C 
ATOM     14  C   UNL     1      22.628  13.096  -1.240  0.00  0.00    -0.011 A 
ATOM     15  C   UNL     1      21.386  12.481  -1.509  0.00  0.00    -0.012 A 
ATOM     16  C   UNL     1      20.559  13.399  -2.266  0.00  0.00    -0.012 A 
ATOM     17  C   UNL     1      19.260  13.264  -2.726  0.00  0.00    +0.009 A 
ATOM     18  C   UNL     1      18.684  14.337  -3.413  0.00  0.00    +0.001 A 
ATOM     19  C   UNL     1      19.405  15.521  -3.636  0.00  0.00    +0.000 A 
ATOM     20  C   UNL     1      20.716  15.660  -3.174  0.00  0.00    +0.006 A 
ATOM     21  C   UNL     1      21.126  11.197  -1.057  0.00  0.00    +0.009 A 
ATOM     22  C   UNL     1      22.119  10.534  -0.330  0.00  0.00    +0.001 A 
ATOM     23  C   UNL     1      23.352  11.152  -0.062  0.00  0.00    +0.000 A 
ATOM     24  C   UNL     1      23.616  12.446  -0.514  0.00  0.00    +0.006 A 
ATOM     25  C   UNL     1      21.283  14.592  -2.493  0.00  0.00    -0.011 A 
ENDBRANCH  11  13
ENDBRANCH   7   9
ENDBRANCH   6   7
ENDBRANCH   5   6
ENDBRANCH   1   5
BRANCH   2  26
ATOM     26  C   UNL     1      28.549  14.878  -0.602  0.00  0.00    +0.152 C 
BRANCH  26  27
ATOM     27  C   UNL     1      29.524  14.358   0.474  0.00  0.00    +0.193 C 
ATOM     28  O   UNL     1      29.709  12.948   0.220  0.00  0.00    -0.219 OA
BRANCH  27  29
ATOM     29  C   UNL     1      30.955  14.939   0.483  0.00  0.00    +0.212 C 
ATOM     30  O   UNL     1      30.955  16.266   1.033  0.00  0.00    -0.218 OA
BRANCH  29  31
ATOM     31  C   UNL     1      31.982  14.058   1.293  0.00  0.00    +0.171 C 
ATOM     32  O   UNL     1      32.300  14.616   2.563  0.00  0.00    -0.343 OA
ATOM     33  C   UNL     1      33.350  14.181   3.375  0.00  0.00    +0.220 C 
ATOM     34  C   UNL     1      34.676  14.101   2.598  0.00  0.00    +0.076 C 
ATOM     35  C   UNL     1      34.427  13.244   1.346  0.00  0.00    +0.177 C 
ATOM     36  O   UNL     1      35.634  13.104   0.611  0.00  0.00    -0.221 OA
ATOM     37  C   UNL     1      33.302  13.881   0.473  0.00  0.00    +0.155 C 
BRANCH  37  38
ATOM     38  N   UNL     1      33.067  13.073  -0.721  0.00  0.00    -0.202 NA
ATOM     39  C   UNL     1      33.129  13.423  -2.031  0.00  0.00    +0.242 C 
ATOM     40  C   UNL     1      33.132  12.327  -3.065  0.00  0.00    +0.096 C 
ATOM     41  O   UNL     1      33.182  14.611  -2.341  0.00  0.00    -0.273 OA
ENDBRANCH  37  38
BRANCH  33  42
ATOM     42  C   UNL     1      33.031  12.793   4.157  0.00  0.00    +0.391 C 
ATOM     43  O   UNL     1      34.219  12.391   4.649  0.00  0.00    -0.243 OA
ATOM     44  O   UNL     1      31.699  12.733   4.276  0.00  0.00    -0.243 OA
ENDBRANCH  33  42
ENDBRANCH  29  31
ENDBRANCH  27  29
ENDBRANCH  26  27
ENDBRANCH   2  26
TORSDOF 11
