REMARK VINA RESULT:    -7.349      0.000      0.000
REMARK INTER + INTRA:         -15.100
REMARK INTER:                 -13.188
REMARK INTRA:                  -1.912
REMARK UNBOUND:                -2.596
REMARK  Name = lig_assembled_4.pdb
REMARK  14 active torsions:
REMARK  status: ('A' for Active; 'I' for Inactive)
REMARK    1  A    between atoms: _2  and  _8
REMARK    2  A    between atoms: _5  and  _6
REMARK    3  A    between atoms: _5  and  _16
REMARK    4  A    between atoms: _9  and  _10
REMARK    5  A    between atoms: _10  and  _11
REMARK    6  A    between atoms: _10  and  _12
REMARK    7  A    between atoms: _16  and  _18
REMARK    8  A    between atoms: _17  and  _22
REMARK    9  A    between atoms: _18  and  _21
REMARK   10  A    between atoms: _26  and  _36
REMARK   11  A    between atoms: _28  and  _29
REMARK   12  A    between atoms: _30  and  _32
REMARK   13  A    between atoms: _32  and  _34
REMARK   14  A    between atoms: _34  and  _36
REMARK                            x       y       z     vdW  Elec       q    Type
REMARK                         _______ _______ _______ _____ _____    ______ ____
ROOT
ATOM      1  C   UNL     1      27.877  17.199  -0.783  0.00  0.00    +0.400 C 
ATOM      2  N   UNL     1      28.328  16.087  -0.112  0.00  0.00    -0.278 N 
ATOM      3  H   UNL     1      28.614  16.473   0.843  0.00  0.00    +0.152 HD
ATOM      4  O   UNL     1      27.734  18.240  -0.147  0.00  0.00    -0.226 OA
ENDROOT
BRANCH   2   5
ATOM      5  C   UNL     1      28.573  14.647  -0.114  0.00  0.00    +0.152 C 
BRANCH   5   6
ATOM      6  C   UNL     1      29.665  14.142   0.851  0.00  0.00    +0.193 C 
ATOM      7  O   UNL     1      29.836  12.732   0.583  0.00  0.00    -0.219 OA
BRANCH   6   8
ATOM      8  C   UNL     1      31.082  14.737   0.703  0.00  0.00    +0.212 C 
ATOM      9  O   UNL     1      31.098  16.108   1.133  0.00  0.00    -0.218 OA
BRANCH   8  10
ATOM     10  C   UNL     1      32.181  13.943   1.508  0.00  0.00    +0.171 C 
ATOM     11  O   UNL     1      32.520  14.574   2.739  0.00  0.00    -0.343 OA
ATOM     12  C   UNL     1      33.620  14.226   3.526  0.00  0.00    +0.220 C 
ATOM     13  C   UNL     1      34.917  14.172   2.700  0.00  0.00    +0.076 C 
ATOM     14  C   UNL     1      34.663  13.248   1.498  0.00  0.00    +0.177 C 
ATOM     15  O   UNL     1      35.846  13.131   0.721  0.00  0.00    -0.221 OA
ATOM     16  C   UNL     1      33.475  13.791   0.644  0.00  0.00    +0.155 C 
BRANCH  16  17
ATOM     17  N   UNL     1      33.234  12.919  -0.503  0.00  0.00    -0.202 NA
ATOM     18  C   UNL     1      33.181  13.220  -1.825  0.00  0.00    +0.242 C 
ATOM     19  C   UNL     1      33.212  12.088  -2.819  0.00  0.00    +0.096 C 
ATOM     20  O   UNL     1      33.111  14.396  -2.179  0.00  0.00    -0.273 OA
ENDBRANCH  16  17
BRANCH  12  21
ATOM     21  C   UNL     1      33.400  12.862   4.380  0.00  0.00    +0.391 C 
ATOM     22  O   UNL     1      34.621  12.546   4.852  0.00  0.00    -0.243 OA
ATOM     23  O   UNL     1      32.077  12.737   4.543  0.00  0.00    -0.243 OA
ENDBRANCH  12  21
ENDBRANCH   8  10
ENDBRANCH   6   8
ENDBRANCH   5   6
ENDBRANCH   2   5
BRANCH   1  24
ATOM     24  O   UNL     1      27.673  17.045  -2.050  0.00  0.00    -0.450 OA
BRANCH  24  25
ATOM     25  C   UNL     1      26.728  17.404  -3.031  0.00  0.00    +0.240 C 
BRANCH  25  26
ATOM     26  C   UNL     1      26.480  16.406  -4.178  0.00  0.00    +0.100 C 
BRANCH  26  28
ATOM     27  N   UNL     1      25.000  14.496  -4.678  0.00  0.00    -0.134 NA
ATOM     28  C   UNL     1      25.495  15.385  -3.775  0.00  0.00    +0.086 A 
ATOM     29  C   UNL     1      24.902  15.165  -2.553  0.00  0.00    +0.139 A 
ATOM     30  N   UNL     1      23.942  14.202  -2.793  0.00  0.00    -0.220 N 
ATOM     31  N   UNL     1      24.077  13.765  -4.064  0.00  0.00    -0.061 NA
BRANCH  30  32
ATOM     32  C   UNL     1      22.938  13.733  -1.893  0.00  0.00    +0.070 A 
ATOM     33  C   UNL     1      23.159  12.696  -0.947  0.00  0.00    -0.019 A 
ATOM     34  C   UNL     1      22.068  12.307  -0.137  0.00  0.00    +0.006 A 
ATOM     35  C   UNL     1      20.809  12.898  -0.256  0.00  0.00    +0.000 A 
ATOM     36  C   UNL     1      20.607  13.913  -1.177  0.00  0.00    +0.002 A 
ATOM     37  C   UNL     1      21.660  14.328  -1.990  0.00  0.00    +0.028 A 
BRANCH  33  38
ATOM     38  C   UNL     1      24.494  11.972  -0.759  0.00  0.00    +0.015 C 
ATOM     39  C   UNL     1      24.709  10.755  -1.672  0.00  0.00    +0.012 C 
ATOM     40  C   UNL     1      24.662  11.557   0.706  0.00  0.00    +0.012 C 
ENDBRANCH  33  38
ENDBRANCH  30  32
ENDBRANCH  26  28
ENDBRANCH  25  26
ENDBRANCH  24  25
ENDBRANCH   1  24
TORSDOF 12
