REMARK VINA RESULT:    -6.211      0.000      0.000
REMARK INTER + INTRA:         -13.260
REMARK INTER:                 -11.796
REMARK INTRA:                  -1.464
REMARK UNBOUND:                -2.511
REMARK  Name = lig_assembled_1.pdb
REMARK  13 active torsions:
REMARK  status: ('A' for Active; 'I' for Inactive)
REMARK    1  A    between atoms: _2  and  _8
REMARK    2  A    between atoms: _4  and  _8
REMARK    3  A    between atoms: _4  and  _9
REMARK    4  A    between atoms: _5  and  _6
REMARK    5  A    between atoms: _5  and  _10
REMARK    6  A    between atoms: _10  and  _12
REMARK    7  A    between atoms: _11  and  _16
REMARK    8  A    between atoms: _12  and  _15
REMARK    9  A    between atoms: _20  and  _30
REMARK   10  A    between atoms: _22  and  _23
REMARK   11  A    between atoms: _24  and  _26
REMARK   12  A    between atoms: _26  and  _28
REMARK   13  A    between atoms: _28  and  _30
REMARK                            x       y       z     vdW  Elec       q    Type
REMARK                         _______ _______ _______ _____ _____    ______ ____
ROOT
ATOM      1  C   UNL     1      30.009  14.200   0.144  0.00  0.00    +0.193 C 
ATOM      2  O   UNL     1      30.061  14.232  -1.300  0.00  0.00    -0.219 OA
ENDROOT
BRANCH   1   3
ATOM      3  C   UNL     1      31.284  14.949   0.592  0.00  0.00    +0.212 C 
ATOM      4  O   UNL     1      30.941  16.075   1.415  0.00  0.00    -0.218 OA
BRANCH   3   5
ATOM      5  C   UNL     1      32.298  14.036   1.381  0.00  0.00    +0.171 C 
ATOM      6  O   UNL     1      32.620  14.560   2.666  0.00  0.00    -0.343 OA
ATOM      7  C   UNL     1      33.664  14.093   3.468  0.00  0.00    +0.220 C 
ATOM      8  C   UNL     1      34.990  14.016   2.692  0.00  0.00    +0.076 C 
ATOM      9  C   UNL     1      34.734  13.193   1.419  0.00  0.00    +0.177 C 
ATOM     10  O   UNL     1      35.941  13.057   0.682  0.00  0.00    -0.221 OA
ATOM     11  C   UNL     1      33.618  13.864   0.560  0.00  0.00    +0.155 C 
BRANCH  11  12
ATOM     12  N   UNL     1      33.376  13.088  -0.654  0.00  0.00    -0.202 NA
ATOM     13  C   UNL     1      33.381  13.484  -1.952  0.00  0.00    +0.242 C 
ATOM     14  C   UNL     1      33.393  12.424  -3.023  0.00  0.00    +0.096 C 
ATOM     15  O   UNL     1      33.376  14.683  -2.222  0.00  0.00    -0.273 OA
ENDBRANCH  11  12
BRANCH   7  16
ATOM     16  C   UNL     1      33.328  12.691   4.216  0.00  0.00    +0.391 C 
ATOM     17  O   UNL     1      34.506  12.273   4.717  0.00  0.00    -0.243 OA
ATOM     18  O   UNL     1      31.994  12.634   4.313  0.00  0.00    -0.243 OA
ENDBRANCH   7  16
ENDBRANCH   3   5
ENDBRANCH   1   3
BRANCH   1  19
ATOM     19  C   UNL     1      28.648  14.801   0.552  0.00  0.00    +0.152 C 
BRANCH  19  21
ATOM     20  C   UNL     1      28.023  17.124  -0.736  0.00  0.00    +0.400 C 
ATOM     21  N   UNL     1      28.430  16.201   0.199  0.00  0.00    -0.278 N 
ATOM     22  H   UNL     1      28.690  16.803   1.043  0.00  0.00    +0.152 HD
ATOM     23  O   UNL     1      27.878  18.289  -0.375  0.00  0.00    -0.226 OA
BRANCH  20  24
ATOM     24  O   UNL     1      27.860  16.670  -1.936  0.00  0.00    -0.450 OA
BRANCH  24  25
ATOM     25  C   UNL     1      27.009  16.859  -3.042  0.00  0.00    +0.240 C 
BRANCH  25  26
ATOM     26  C   UNL     1      26.664  15.622  -3.893  0.00  0.00    +0.100 C 
BRANCH  26  28
ATOM     27  N   UNL     1      24.610  14.680  -4.908  0.00  0.00    -0.134 NA
ATOM     28  C   UNL     1      25.207  15.396  -3.904  0.00  0.00    +0.086 A 
ATOM     29  C   UNL     1      24.242  15.809  -3.013  0.00  0.00    +0.133 A 
ATOM     30  N   UNL     1      23.082  15.319  -3.533  0.00  0.00    -0.249 N 
ATOM     31  N   UNL     1      23.305  14.644  -4.673  0.00  0.00    -0.065 NA
BRANCH  30  32
ATOM     32  C   UNL     1      21.744  15.444  -3.001  0.00  0.00    +0.173 C 
BRANCH  32  33
ATOM     33  C   UNL     1      20.942  16.547  -3.680  0.00  0.00    +0.179 C 
BRANCH  33  34
ATOM     34  O   UNL     1      21.433  17.837  -3.320  0.00  0.00    -0.393 OA
ATOM     35  H   UNL     1      21.766  18.253  -4.138  0.00  0.00    +0.209 HD
ENDBRANCH  33  34
ENDBRANCH  32  33
ENDBRANCH  30  32
ENDBRANCH  26  28
ENDBRANCH  25  26
ENDBRANCH  24  25
ENDBRANCH  20  24
ENDBRANCH  19  21
ENDBRANCH   1  19
TORSDOF 13
