REMARK VINA RESULT:    -7.711      0.000      0.000
REMARK INTER + INTRA:         -16.137
REMARK INTER:                 -14.182
REMARK INTRA:                  -1.955
REMARK UNBOUND:                -2.115
REMARK  Name = lig_assembled_26.pdb
REMARK  15 active torsions:
REMARK  status: ('A' for Active; 'I' for Inactive)
REMARK    1  A    between atoms: _2  and  _8
REMARK    2  A    between atoms: _5  and  _6
REMARK    3  A    between atoms: _5  and  _18
REMARK    4  A    between atoms: _8  and  _9
REMARK    5  A    between atoms: _8  and  _10
REMARK    6  A    between atoms: _10  and  _11
REMARK    7  A    between atoms: _11  and  _12
REMARK    8  A    between atoms: _18  and  _20
REMARK    9  A    between atoms: _19  and  _24
REMARK   10  A    between atoms: _20  and  _23
REMARK   11  A    between atoms: _28  and  _38
REMARK   12  A    between atoms: _30  and  _31
REMARK   13  A    between atoms: _32  and  _34
REMARK   14  A    between atoms: _34  and  _36
REMARK   15  A    between atoms: _36  and  _38
REMARK                            x       y       z     vdW  Elec       q    Type
REMARK                         _______ _______ _______ _____ _____    ______ ____
ROOT
ATOM      1  C   UNL     1      27.673  17.403  -1.212  0.00  0.00    +0.400 C 
ATOM      2  N   UNL     1      28.017  16.188  -0.668  0.00  0.00    -0.278 N 
ATOM      3  H   UNL     1      28.221  16.424   0.354  0.00  0.00    +0.152 HD
ATOM      4  O   UNL     1      27.504  18.352  -0.451  0.00  0.00    -0.226 OA
ENDROOT
BRANCH   2   5
ATOM      5  C   UNL     1      28.211  14.752  -0.852  0.00  0.00    +0.152 C 
BRANCH   5   6
ATOM      6  C   UNL     1      29.242  14.080   0.078  0.00  0.00    +0.193 C 
ATOM      7  O   UNL     1      29.046  12.654  -0.046  0.00  0.00    -0.219 OA
BRANCH   6   8
ATOM      8  C   UNL     1      30.738  14.293  -0.240  0.00  0.00    +0.212 C 
ATOM      9  O   UNL     1      31.057  15.694  -0.240  0.00  0.00    -0.218 OA
BRANCH   8  10
ATOM     10  C   UNL     1      31.702  13.557   0.767  0.00  0.00    +0.171 C 
ATOM     11  O   UNL     1      31.573  14.040   2.100  0.00  0.00    -0.343 OA
ATOM     12  C   UNL     1      32.463  13.743   3.136  0.00  0.00    +0.220 C 
ATOM     13  C   UNL     1      33.923  14.003   2.725  0.00  0.00    +0.076 C 
ATOM     14  C   UNL     1      34.177  13.240   1.414  0.00  0.00    +0.177 C 
ATOM     15  O   UNL     1      35.528  13.414   1.010  0.00  0.00    -0.221 OA
ATOM     16  C   UNL     1      33.188  13.725   0.309  0.00  0.00    +0.155 C 
BRANCH  16  17
ATOM     17  N   UNL     1      33.431  13.008  -0.940  0.00  0.00    -0.202 NA
ATOM     18  C   UNL     1      33.651  13.491  -2.189  0.00  0.00    +0.242 C 
ATOM     19  C   UNL     1      34.166  12.543  -3.241  0.00  0.00    +0.096 C 
ATOM     20  O   UNL     1      33.430  14.676  -2.430  0.00  0.00    -0.273 OA
ENDBRANCH  16  17
BRANCH  12  21
ATOM     21  C   UNL     1      32.270  12.250   3.746  0.00  0.00    +0.391 C 
ATOM     22  O   UNL     1      33.370  12.036   4.494  0.00  0.00    -0.243 OA
ATOM     23  O   UNL     1      30.990  11.925   3.530  0.00  0.00    -0.243 OA
ENDBRANCH  12  21
ENDBRANCH   8  10
ENDBRANCH   6   8
ENDBRANCH   5   6
ENDBRANCH   2   5
BRANCH   1  24
ATOM     24  O   UNL     1      27.589  17.435  -2.502  0.00  0.00    -0.450 OA
BRANCH  24  25
ATOM     25  C   UNL     1      26.606  17.382  -3.510  0.00  0.00    +0.240 C 
BRANCH  25  26
ATOM     26  C   UNL     1      26.333  16.015  -4.166  0.00  0.00    +0.100 C 
BRANCH  26  28
ATOM     27  N   UNL     1      25.224  14.107  -3.031  0.00  0.00    -0.134 NA
ATOM     28  C   UNL     1      25.159  15.374  -3.548  0.00  0.00    +0.086 A 
ATOM     29  C   UNL     1      23.887  15.866  -3.376  0.00  0.00    +0.134 A 
ATOM     30  N   UNL     1      23.211  14.847  -2.773  0.00  0.00    -0.248 N 
ATOM     31  N   UNL     1      24.028  13.800  -2.542  0.00  0.00    -0.065 NA
BRANCH  30  32
ATOM     32  C   UNL     1      21.832  14.795  -2.316  0.00  0.00    +0.113 C 
ATOM     33  C   UNL     1      20.842  15.572  -3.195  0.00  0.00    +0.033 C 
BRANCH  32  34
ATOM     34  C   UNL     1      21.348  13.358  -2.046  0.00  0.00    +0.106 C 
BRANCH  34  35
ATOM     35  C   UNL     1      20.841  13.132  -0.633  0.00  0.00    +0.165 C 
ATOM     36  O   UNL     1      20.052  13.902  -0.087  0.00  0.00    -0.292 OA
BRANCH  35  37
ATOM     37  C   UNL     1      21.349  11.957   0.134  0.00  0.00    +0.017 A 
ATOM     38  C   UNL     1      21.476  11.967   1.529  0.00  0.00    +0.011 A 
ATOM     39  C   UNL     1      21.918  10.824   2.200  0.00  0.00    +0.001 A 
ATOM     40  C   UNL     1      22.241   9.671   1.484  0.00  0.00    +0.000 A 
ATOM     41  C   UNL     1      22.129   9.658   0.097  0.00  0.00    +0.001 A 
ATOM     42  C   UNL     1      21.685  10.796  -0.578  0.00  0.00    +0.011 A 
ENDBRANCH  35  37
ENDBRANCH  34  35
ENDBRANCH  32  34
ENDBRANCH  30  32
ENDBRANCH  26  28
ENDBRANCH  25  26
ENDBRANCH  24  25
ENDBRANCH   1  24
TORSDOF 14
