REMARK VINA RESULT:    -7.458      0.000      0.000
REMARK INTER + INTRA:         -15.857
REMARK INTER:                 -13.941
REMARK INTRA:                  -1.916
REMARK UNBOUND:                -1.860
REMARK  Name = lig_assembled_37.pdb
REMARK  16 active torsions:
REMARK  status: ('A' for Active; 'I' for Inactive)
REMARK    1  A    between atoms: _2  and  _8
REMARK    2  A    between atoms: _5  and  _6
REMARK    3  A    between atoms: _5  and  _19
REMARK    4  A    between atoms: _8  and  _9
REMARK    5  A    between atoms: _8  and  _10
REMARK    6  A    between atoms: _10  and  _17
REMARK    7  A    between atoms: _11  and  _12
REMARK    8  A    between atoms: _11  and  _17
REMARK    9  A    between atoms: _19  and  _21
REMARK   10  A    between atoms: _20  and  _25
REMARK   11  A    between atoms: _21  and  _24
REMARK   12  A    between atoms: _29  and  _39
REMARK   13  A    between atoms: _31  and  _32
REMARK   14  A    between atoms: _33  and  _35
REMARK   15  A    between atoms: _35  and  _37
REMARK   16  A    between atoms: _37  and  _39
REMARK                            x       y       z     vdW  Elec       q    Type
REMARK                         _______ _______ _______ _____ _____    ______ ____
ROOT
ATOM      1  C   UNL     1      28.038  16.990  -0.644  0.00  0.00    +0.400 C 
ATOM      2  N   UNL     1      28.500  16.073   0.271  0.00  0.00    -0.278 N 
ATOM      3  H   UNL     1      28.834  16.682   1.084  0.00  0.00    +0.152 HD
ATOM      4  O   UNL     1      27.941  18.162  -0.290  0.00  0.00    -0.226 OA
ENDROOT
BRANCH   2   5
ATOM      5  C   UNL     1      28.720  14.674   0.628  0.00  0.00    +0.152 C 
BRANCH   5   6
ATOM      6  C   UNL     1      30.080  14.074   0.216  0.00  0.00    +0.193 C 
ATOM      7  O   UNL     1      30.117  14.082  -1.228  0.00  0.00    -0.219 OA
BRANCH   6   8
ATOM      8  C   UNL     1      31.356  14.836   0.638  0.00  0.00    +0.212 C 
ATOM      9  O   UNL     1      31.020  15.941   1.492  0.00  0.00    -0.218 OA
BRANCH   8  10
ATOM     10  C   UNL     1      32.409  13.927   1.380  0.00  0.00    +0.171 C 
ATOM     11  O   UNL     1      32.752  14.427   2.668  0.00  0.00    -0.343 OA
ATOM     12  C   UNL     1      33.825  13.964   3.433  0.00  0.00    +0.220 C 
ATOM     13  C   UNL     1      35.133  13.934   2.622  0.00  0.00    +0.076 C 
ATOM     14  C   UNL     1      34.862  13.135   1.336  0.00  0.00    +0.177 C 
ATOM     15  O   UNL     1      36.052  13.043   0.567  0.00  0.00    -0.221 OA
ATOM     16  C   UNL     1      33.710  13.803   0.522  0.00  0.00    +0.155 C 
BRANCH  16  17
ATOM     17  N   UNL     1      33.454  13.051  -0.704  0.00  0.00    -0.202 NA
ATOM     18  C   UNL     1      33.421  13.477  -1.992  0.00  0.00    +0.242 C 
ATOM     19  C   UNL     1      33.427  12.443  -3.088  0.00  0.00    +0.096 C 
ATOM     20  O   UNL     1      33.387  14.682  -2.233  0.00  0.00    -0.273 OA
ENDBRANCH  16  17
BRANCH  12  21
ATOM     21  C   UNL     1      33.538  12.537   4.154  0.00  0.00    +0.391 C 
ATOM     22  O   UNL     1      32.227  12.302   3.950  0.00  0.00    -0.243 OA
ATOM     23  O   UNL     1      34.738  12.001   4.406  0.00  0.00    -0.243 OA
ENDBRANCH  12  21
ENDBRANCH   8  10
ENDBRANCH   6   8
ENDBRANCH   5   6
ENDBRANCH   2   5
BRANCH   1  24
ATOM     24  O   UNL     1      27.776  16.523  -1.820  0.00  0.00    -0.450 OA
BRANCH  24  25
ATOM     25  C   UNL     1      26.744  16.559  -2.778  0.00  0.00    +0.240 C 
BRANCH  25  26
ATOM     26  C   UNL     1      26.389  15.239  -3.490  0.00  0.00    +0.100 C 
BRANCH  26  28
ATOM     27  N   UNL     1      24.402  14.646  -4.846  0.00  0.00    -0.134 NA
ATOM     28  C   UNL     1      24.931  15.135  -3.682  0.00  0.00    +0.086 A 
ATOM     29  C   UNL     1      23.904  15.466  -2.826  0.00  0.00    +0.134 A 
ATOM     30  N   UNL     1      22.775  15.183  -3.536  0.00  0.00    -0.238 N 
ATOM     31  N   UNL     1      23.080  14.672  -4.745  0.00  0.00    -0.065 NA
BRANCH  30  32
ATOM     32  C   UNL     1      21.385  15.296  -3.138  0.00  0.00    +0.214 C 
ATOM     33  C   UNL     1      20.719  16.514  -3.777  0.00  0.00    +0.045 C 
BRANCH  32  34
ATOM     34  C   UNL     1      20.615  14.040  -3.477  0.00  0.00    +0.332 C 
ATOM     35  O   UNL     1      19.877  13.930  -4.450  0.00  0.00    -0.248 OA
BRANCH  34  36
ATOM     36  O   UNL     1      20.847  13.060  -2.563  0.00  0.00    -0.458 OA
BRANCH  36  37
ATOM     37  C   UNL     1      20.590  13.402  -1.191  0.00  0.00    +0.267 C 
BRANCH  37  38
ATOM     38  C   UNL     1      21.508  12.620  -0.287  0.00  0.00    -0.010 A 
ATOM     39  C   UNL     1      22.827  12.345  -0.678  0.00  0.00    +0.007 A 
ATOM     40  C   UNL     1      23.686  11.645   0.170  0.00  0.00    +0.000 A 
ATOM     41  C   UNL     1      23.238  11.211   1.417  0.00  0.00    +0.000 A 
ATOM     42  C   UNL     1      21.927  11.472   1.813  0.00  0.00    +0.000 A 
ATOM     43  C   UNL     1      21.065  12.172   0.965  0.00  0.00    +0.007 A 
ENDBRANCH  37  38
ENDBRANCH  36  37
ENDBRANCH  34  36
ENDBRANCH  32  34
ENDBRANCH  30  32
ENDBRANCH  26  28
ENDBRANCH  25  26
ENDBRANCH  24  25
ENDBRANCH   1  24
TORSDOF 15
