REMARK VINA RESULT:    -7.169      0.000      0.000
REMARK INTER + INTRA:         -14.042
REMARK INTER:                 -12.368
REMARK INTRA:                  -1.674
REMARK UNBOUND:                -2.263
REMARK  Name = lig_assembled_52.pdb
REMARK  11 active torsions:
REMARK  status: ('A' for Active; 'I' for Inactive)
REMARK    1  A    between atoms: _2  and  _9
REMARK    2  A    between atoms: _6  and  _7
REMARK    3  A    between atoms: _6  and  _13
REMARK    4  A    between atoms: _13  and  _15
REMARK    5  A    between atoms: _14  and  _19
REMARK    6  A    between atoms: _15  and  _18
REMARK    7  A    between atoms: _23  and  _33
REMARK    8  A    between atoms: _25  and  _26
REMARK    9  A    between atoms: _27  and  _29
REMARK   10  A    between atoms: _29  and  _31
REMARK   11  A    between atoms: _31  and  _33
REMARK                            x       y       z     vdW  Elec       q    Type
REMARK                         _______ _______ _______ _____ _____    ______ ____
ROOT
ATOM      1  C   UNL     1      28.489  14.814  -0.207  0.00  0.00    +0.152 C 
ENDROOT
BRANCH   1   3
ATOM      2  C   UNL     1      27.898  17.346  -1.036  0.00  0.00    +0.400 C 
ATOM      3  N   UNL     1      28.274  16.257  -0.285  0.00  0.00    -0.278 N 
ATOM      4  H   UNL     1      28.492  16.679   0.672  0.00  0.00    +0.152 HD
ATOM      5  O   UNL     1      27.726  18.416  -0.458  0.00  0.00    -0.226 OA
BRANCH   2   6
ATOM      6  O   UNL     1      27.790  17.139  -2.307  0.00  0.00    -0.450 OA
BRANCH   6   7
ATOM      7  C   UNL     1      26.898  17.416  -3.362  0.00  0.00    +0.240 C 
BRANCH   7   8
ATOM      8  C   UNL     1      26.419  16.227  -4.218  0.00  0.00    +0.100 C 
BRANCH   8  10
ATOM      9  N   UNL     1      26.261  14.179  -2.840  0.00  0.00    -0.134 NA
ATOM     10  C   UNL     1      25.659  15.274  -3.389  0.00  0.00    +0.086 A 
ATOM     11  C   UNL     1      24.331  15.283  -3.027  0.00  0.00    +0.140 A 
ATOM     12  N   UNL     1      24.172  14.173  -2.230  0.00  0.00    -0.218 N 
ATOM     13  N   UNL     1      25.352  13.513  -2.143  0.00  0.00    -0.060 NA
BRANCH  12  14
ATOM     14  C   UNL     1      23.012  13.725  -1.563  0.00  0.00    +0.085 A 
ATOM     15  C   UNL     1      23.018  12.590  -0.747  0.00  0.00    +0.031 A 
ATOM     16  C   UNL     1      21.835  12.187  -0.133  0.00  0.00    +0.022 A 
ATOM     17  C   UNL     1      20.688  12.932  -0.353  0.00  0.00    +0.111 A 
ATOM     18  N   UNL     1      20.651  14.036  -1.128  0.00  0.00    -0.261 NA
ATOM     19  C   UNL     1      21.813  14.412  -1.718  0.00  0.00    +0.138 A 
ENDBRANCH  12  14
ENDBRANCH   8  10
ENDBRANCH   7   8
ENDBRANCH   6   7
ENDBRANCH   2   6
ENDBRANCH   1   3
BRANCH   1  20
ATOM     20  C   UNL     1      29.546  14.339   0.811  0.00  0.00    +0.193 C 
ATOM     21  O   UNL     1      29.703  12.917   0.614  0.00  0.00    -0.219 OA
BRANCH  20  22
ATOM     22  C   UNL     1      30.976  14.907   0.674  0.00  0.00    +0.212 C 
ATOM     23  O   UNL     1      31.024  16.265   1.140  0.00  0.00    -0.218 OA
BRANCH  22  24
ATOM     24  C   UNL     1      32.058  14.068   1.456  0.00  0.00    +0.171 C 
ATOM     25  O   UNL     1      32.410  14.656   2.704  0.00  0.00    -0.343 OA
ATOM     26  C   UNL     1      33.504  14.264   3.479  0.00  0.00    +0.220 C 
ATOM     27  C   UNL     1      34.799  14.207   2.651  0.00  0.00    +0.076 C 
ATOM     28  C   UNL     1      34.526  13.322   1.424  0.00  0.00    +0.177 C 
ATOM     29  O   UNL     1      35.706  13.204   0.642  0.00  0.00    -0.221 OA
ATOM     30  C   UNL     1      33.349  13.914   0.586  0.00  0.00    +0.155 C 
BRANCH  30  31
ATOM     31  N   UNL     1      33.090  13.080  -0.585  0.00  0.00    -0.202 NA
ATOM     32  C   UNL     1      33.140  13.397  -1.903  0.00  0.00    +0.242 C 
ATOM     33  C   UNL     1      33.117  12.276  -2.910  0.00  0.00    +0.096 C 
ATOM     34  O   UNL     1      33.203  14.577  -2.243  0.00  0.00    -0.273 OA
ENDBRANCH  30  31
BRANCH  26  35
ATOM     35  C   UNL     1      33.256  12.881   4.295  0.00  0.00    +0.391 C 
ATOM     36  O   UNL     1      34.458  12.561   4.812  0.00  0.00    -0.243 OA
ATOM     37  O   UNL     1      31.928  12.746   4.399  0.00  0.00    -0.243 OA
ENDBRANCH  26  35
ENDBRANCH  22  24
ENDBRANCH  20  22
ENDBRANCH   1  20
TORSDOF 11
