REMARK VINA RESULT:    -8.152      0.000      0.000
REMARK INTER + INTRA:         -16.659
REMARK INTER:                 -14.933
REMARK INTRA:                  -1.727
REMARK UNBOUND:                -1.120
REMARK  Name = lig_assembled_76.pdb
REMARK  16 active torsions:
REMARK  status: ('A' for Active; 'I' for Inactive)
REMARK    1  A    between atoms: _2  and  _8
REMARK    2  A    between atoms: _5  and  _6
REMARK    3  A    between atoms: _5  and  _18
REMARK    4  A    between atoms: _8  and  _9
REMARK    5  A    between atoms: _9  and  _10
REMARK    6  A    between atoms: _9  and  _17
REMARK    7  A    between atoms: _10  and  _11
REMARK    8  A    between atoms: _11  and  _12
REMARK    9  A    between atoms: _18  and  _20
REMARK   10  A    between atoms: _19  and  _24
REMARK   11  A    between atoms: _20  and  _23
REMARK   12  A    between atoms: _28  and  _38
REMARK   13  A    between atoms: _30  and  _31
REMARK   14  A    between atoms: _32  and  _34
REMARK   15  A    between atoms: _34  and  _36
REMARK   16  A    between atoms: _36  and  _38
REMARK                            x       y       z     vdW  Elec       q    Type
REMARK                         _______ _______ _______ _____ _____    ______ ____
ROOT
ATOM      1  C   UNL     1      27.942  17.253  -0.711  0.00  0.00    +0.400 C 
ATOM      2  N   UNL     1      28.388  16.171   0.010  0.00  0.00    -0.278 N 
ATOM      3  H   UNL     1      28.690  16.601   0.941  0.00  0.00    +0.152 HD
ATOM      4  O   UNL     1      27.819  18.327  -0.127  0.00  0.00    -0.226 OA
ENDROOT
BRANCH   1   5
ATOM      5  O   UNL     1      27.721  17.038  -1.966  0.00  0.00    -0.450 OA
BRANCH   5   6
ATOM      6  C   UNL     1      26.746  17.320  -2.942  0.00  0.00    +0.240 C 
BRANCH   6   7
ATOM      7  C   UNL     1      26.743  16.453  -4.216  0.00  0.00    +0.100 C 
BRANCH   7   9
ATOM      8  N   UNL     1      25.120  14.999  -5.399  0.00  0.00    -0.134 NA
ATOM      9  C   UNL     1      25.564  15.571  -4.234  0.00  0.00    +0.086 A 
ATOM     10  C   UNL     1      24.739  15.191  -3.200  0.00  0.00    +0.133 A 
ATOM     11  N   UNL     1      23.819  14.385  -3.799  0.00  0.00    -0.249 N 
ATOM     12  N   UNL     1      24.041  14.278  -5.119  0.00  0.00    -0.065 NA
BRANCH  11  13
ATOM     13  C   UNL     1      22.638  13.799  -3.206  0.00  0.00    +0.176 C 
BRANCH  13  14
ATOM     14  C   UNL     1      21.946  14.733  -2.209  0.00  0.00    +0.136 C 
BRANCH  14  15
ATOM     15  O   UNL     1      21.291  15.804  -2.906  0.00  0.00    -0.390 OA
ATOM     16  H   UNL     1      20.383  15.892  -2.572  0.00  0.00    +0.210 HD
ENDBRANCH  14  15
BRANCH  14  17
ATOM     17  C   UNL     1      20.879  14.011  -1.371  0.00  0.00    +0.038 C 
BRANCH  17  18
ATOM     18  C   UNL     1      20.871  12.495  -1.571  0.00  0.00    +0.038 C 
BRANCH  18  19
ATOM     19  C   UNL     1      21.310  11.757  -0.333  0.00  0.00    -0.047 A 
ATOM     20  C   UNL     1      21.194  12.359   0.928  0.00  0.00    +0.003 A 
ATOM     21  C   UNL     1      21.583  11.671   2.078  0.00  0.00    +0.000 A 
ATOM     22  C   UNL     1      22.096  10.380   1.977  0.00  0.00    +0.000 A 
ATOM     23  C   UNL     1      22.226   9.777   0.727  0.00  0.00    +0.000 A 
ATOM     24  C   UNL     1      21.838  10.463  -0.425  0.00  0.00    +0.003 A 
ENDBRANCH  18  19
ENDBRANCH  17  18
ENDBRANCH  14  17
ENDBRANCH  13  14
ENDBRANCH  11  13
ENDBRANCH   7   9
ENDBRANCH   6   7
ENDBRANCH   5   6
ENDBRANCH   1   5
BRANCH   2  25
ATOM     25  C   UNL     1      28.616  14.730   0.078  0.00  0.00    +0.152 C 
BRANCH  25  26
ATOM     26  C   UNL     1      30.026  14.284   0.516  0.00  0.00    +0.193 C 
ATOM     27  O   UNL     1      29.964  12.857   0.729  0.00  0.00    -0.219 OA
BRANCH  26  28
ATOM     28  C   UNL     1      31.181  14.473  -0.493  0.00  0.00    +0.212 C 
ATOM     29  O   UNL     1      31.612  15.844  -0.511  0.00  0.00    -0.218 OA
BRANCH  28  30
ATOM     30  C   UNL     1      32.428  13.557  -0.193  0.00  0.00    +0.171 C 
ATOM     31  O   UNL     1      33.112  13.935   0.997  0.00  0.00    -0.343 OA
ATOM     32  C   UNL     1      34.372  13.460   1.367  0.00  0.00    +0.220 C 
ATOM     33  C   UNL     1      35.393  13.599   0.224  0.00  0.00    +0.076 C 
ATOM     34  C   UNL     1      34.787  12.928  -1.020  0.00  0.00    +0.177 C 
ATOM     35  O   UNL     1      35.709  12.993  -2.099  0.00  0.00    -0.221 OA
ATOM     36  C   UNL     1      33.432  13.607  -1.391  0.00  0.00    +0.155 C 
BRANCH  36  37
ATOM     37  N   UNL     1      32.857  12.977  -2.577  0.00  0.00    -0.202 NA
ATOM     38  C   UNL     1      32.959  13.331  -3.883  0.00  0.00    +0.242 C 
ATOM     39  C   UNL     1      32.514  12.342  -4.929  0.00  0.00    +0.096 C 
ATOM     40  O   UNL     1      33.409  14.436  -4.180  0.00  0.00    -0.273 OA
ENDBRANCH  36  37
BRANCH  32  41
ATOM     41  C   UNL     1      34.344  11.948   1.962  0.00  0.00    +0.391 C 
ATOM     42  O   UNL     1      35.637  11.571   2.012  0.00  0.00    -0.243 OA
ATOM     43  O   UNL     1      33.112  11.766   2.451  0.00  0.00    -0.243 OA
ENDBRANCH  32  41
ENDBRANCH  28  30
ENDBRANCH  26  28
ENDBRANCH  25  26
ENDBRANCH   2  25
TORSDOF 16
