REMARK VINA RESULT:    -6.987      0.000      0.000
REMARK INTER + INTRA:         -14.041
REMARK INTER:                 -12.562
REMARK INTRA:                  -1.479
REMARK UNBOUND:                -1.336
REMARK  Name = lig_assembled_19.pdb
REMARK  15 active torsions:
REMARK  status: ('A' for Active; 'I' for Inactive)
REMARK    1  A    between atoms: _2  and  _8
REMARK    2  A    between atoms: _4  and  _10
REMARK    3  A    between atoms: _5  and  _6
REMARK    4  A    between atoms: _5  and  _13
REMARK    5  A    between atoms: _8  and  _9
REMARK    6  A    between atoms: _9  and  _12
REMARK    7  A    between atoms: _10  and  _12
REMARK    8  A    between atoms: _13  and  _15
REMARK    9  A    between atoms: _14  and  _19
REMARK   10  A    between atoms: _15  and  _18
REMARK   11  A    between atoms: _23  and  _33
REMARK   12  A    between atoms: _25  and  _26
REMARK   13  A    between atoms: _27  and  _29
REMARK   14  A    between atoms: _29  and  _31
REMARK   15  A    between atoms: _31  and  _33
REMARK                            x       y       z     vdW  Elec       q    Type
REMARK                         _______ _______ _______ _____ _____    ______ ____
ROOT
ATOM      1  C   UNL     1      28.600  14.750   0.091  0.00  0.00    +0.152 C 
ENDROOT
BRANCH   1   3
ATOM      2  C   UNL     1      27.904  17.271  -0.688  0.00  0.00    +0.400 C 
ATOM      3  N   UNL     1      28.359  16.189   0.029  0.00  0.00    -0.278 N 
ATOM      4  H   UNL     1      28.655  16.618   0.962  0.00  0.00    +0.152 HD
ATOM      5  O   UNL     1      27.770  18.341  -0.100  0.00  0.00    -0.226 OA
BRANCH   2   6
ATOM      6  O   UNL     1      27.687  17.058  -1.945  0.00  0.00    -0.450 OA
BRANCH   6   7
ATOM      7  C   UNL     1      26.731  17.369  -2.931  0.00  0.00    +0.240 C 
BRANCH   7   8
ATOM      8  C   UNL     1      26.761  16.548  -4.234  0.00  0.00    +0.100 C 
BRANCH   8  10
ATOM      9  N   UNL     1      25.272  15.026  -5.501  0.00  0.00    -0.134 NA
ATOM     10  C   UNL     1      25.536  15.738  -4.360  0.00  0.00    +0.086 A 
ATOM     11  C   UNL     1      24.509  15.546  -3.463  0.00  0.00    +0.133 A 
ATOM     12  N   UNL     1      23.651  14.719  -4.121  0.00  0.00    -0.248 N 
ATOM     13  N   UNL     1      24.111  14.402  -5.342  0.00  0.00    -0.065 NA
BRANCH  12  14
ATOM     14  C   UNL     1      22.394  14.184  -3.647  0.00  0.00    +0.186 C 
BRANCH  14  15
ATOM     15  C   UNL     1      22.068  14.669  -2.238  0.00  0.00    +0.255 C 
BRANCH  15  16
ATOM     16  O   UNL     1      22.139  13.607  -1.265  0.00  0.00    -0.463 OA
BRANCH  16  17
ATOM     17  C   UNL     1      20.984  13.321  -0.610  0.00  0.00    +0.304 C 
ATOM     18  O   UNL     1      19.953  13.973  -0.694  0.00  0.00    -0.251 OA
ATOM     19  C   UNL     1      21.127  12.074   0.208  0.00  0.00    +0.136 C 
ENDBRANCH  16  17
ENDBRANCH  15  16
ENDBRANCH  14  15
ENDBRANCH  12  14
ENDBRANCH   8  10
ENDBRANCH   7   8
ENDBRANCH   6   7
ENDBRANCH   2   6
ENDBRANCH   1   3
BRANCH   1  20
ATOM     20  C   UNL     1      29.687  14.285   1.081  0.00  0.00    +0.193 C 
ATOM     21  O   UNL     1      29.843  12.862   0.889  0.00  0.00    -0.219 OA
BRANCH  20  22
ATOM     22  C   UNL     1      31.111  14.856   0.899  0.00  0.00    +0.212 C 
ATOM     23  O   UNL     1      31.176  16.207   1.385  0.00  0.00    -0.218 OA
BRANCH  22  24
ATOM     24  C   UNL     1      32.222  14.006   1.625  0.00  0.00    +0.171 C 
ATOM     25  O   UNL     1      32.614  14.568   2.874  0.00  0.00    -0.343 OA
ATOM     26  C   UNL     1      33.734  14.164   3.603  0.00  0.00    +0.220 C 
ATOM     27  C   UNL     1      35.002  14.132   2.731  0.00  0.00    +0.076 C 
ATOM     28  C   UNL     1      34.690  13.274   1.494  0.00  0.00    +0.177 C 
ATOM     29  O   UNL     1      35.845  13.178   0.672  0.00  0.00    -0.221 OA
ATOM     30  C   UNL     1      33.484  13.878   0.710  0.00  0.00    +0.155 C 
BRANCH  30  31
ATOM     31  N   UNL     1      33.190  13.069  -0.470  0.00  0.00    -0.202 NA
ATOM     32  C   UNL     1      33.132  13.430  -1.777  0.00  0.00    +0.242 C 
ATOM     33  C   UNL     1      33.099  12.342  -2.819  0.00  0.00    +0.096 C 
ATOM     34  O   UNL     1      33.110  14.622  -2.078  0.00  0.00    -0.273 OA
ENDBRANCH  30  31
BRANCH  26  35
ATOM     35  C   UNL     1      33.519  12.762   4.396  0.00  0.00    +0.391 C 
ATOM     36  O   UNL     1      34.757  12.379   4.765  0.00  0.00    -0.243 OA
ATOM     37  O   UNL     1      32.207  12.674   4.642  0.00  0.00    -0.243 OA
ENDBRANCH  26  35
ENDBRANCH  22  24
ENDBRANCH  20  22
ENDBRANCH   1  20
TORSDOF 14
