REMARK VINA RESULT:    -6.844      0.000      0.000
REMARK INTER + INTRA:         -13.244
REMARK INTER:                 -10.720
REMARK INTRA:                  -2.524
REMARK UNBOUND:                -1.999
REMARK  Name = lig_assembled_57.pdb
REMARK  12 active torsions:
REMARK  status: ('A' for Active; 'I' for Inactive)
REMARK    1  A    between atoms: _2  and  _9
REMARK    2  A    between atoms: _3  and  _12
REMARK    3  A    between atoms: _6  and  _7
REMARK    4  A    between atoms: _6  and  _14
REMARK    5  A    between atoms: _14  and  _16
REMARK    6  A    between atoms: _15  and  _20
REMARK    7  A    between atoms: _16  and  _19
REMARK    8  A    between atoms: _24  and  _34
REMARK    9  A    between atoms: _26  and  _27
REMARK   10  A    between atoms: _28  and  _30
REMARK   11  A    between atoms: _30  and  _32
REMARK   12  A    between atoms: _32  and  _34
REMARK                            x       y       z     vdW  Elec       q    Type
REMARK                         _______ _______ _______ _____ _____    ______ ____
ROOT
ATOM      1  C   UNL     1      27.933  17.767  -0.802  0.00  0.00    +0.400 C 
ATOM      2  N   UNL     1      27.133  17.564  -1.901  0.00  0.00    -0.278 N 
ATOM      3  H   UNL     1      26.153  17.785  -1.538  0.00  0.00    +0.152 HD
ATOM      4  O   UNL     1      27.432  18.286   0.192  0.00  0.00    -0.226 OA
ENDROOT
BRANCH   1   5
ATOM      5  O   UNL     1      29.153  17.354  -0.913  0.00  0.00    -0.450 OA
BRANCH   5   6
ATOM      6  C   UNL     1      30.262  17.065  -0.095  0.00  0.00    +0.240 C 
BRANCH   6   7
ATOM      7  C   UNL     1      30.826  15.632  -0.140  0.00  0.00    +0.100 C 
BRANCH   7   9
ATOM      8  N   UNL     1      30.837  14.453   2.029  0.00  0.00    -0.134 NA
ATOM      9  C   UNL     1      30.173  14.802   0.887  0.00  0.00    +0.086 A 
ATOM     10  C   UNL     1      28.897  14.280   0.930  0.00  0.00    +0.134 A 
ATOM     11  N   UNL     1      28.815  13.700   2.161  0.00  0.00    -0.248 N 
ATOM     12  N   UNL     1      30.010  13.747   2.785  0.00  0.00    -0.065 NA
BRANCH  11  13
ATOM     13  C   UNL     1      27.678  13.137   2.879  0.00  0.00    +0.111 C 
ATOM     14  C   UNL     1      26.720  12.429   1.910  0.00  0.00    +0.042 C 
ATOM     15  C   UNL     1      27.310  11.097   1.451  0.00  0.00    +0.086 C 
ATOM     16  N   UNL     1      27.591  10.182   2.562  0.00  0.00    -0.305 NA
ATOM     17  C   UNL     1      28.444  10.789   3.586  0.00  0.00    +0.086 C 
ATOM     18  C   UNL     1      26.377   9.589   3.113  0.00  0.00    +0.104 C 
ATOM     19  C   UNL     1      28.011  12.190   4.043  0.00  0.00    +0.042 C 
ENDBRANCH  11  13
ENDBRANCH   7   9
ENDBRANCH   6   7
ENDBRANCH   5   6
ENDBRANCH   1   5
BRANCH   2  20
ATOM     20  C   UNL     1      27.026  17.206  -3.313  0.00  0.00    +0.152 C 
BRANCH  20  21
ATOM     21  C   UNL     1      26.040  16.069  -3.653  0.00  0.00    +0.193 C 
ATOM     22  O   UNL     1      25.978  15.990  -5.094  0.00  0.00    -0.219 OA
BRANCH  21  23
ATOM     23  C   UNL     1      26.416  14.639  -3.204  0.00  0.00    +0.212 C 
ATOM     24  O   UNL     1      27.288  14.684  -2.064  0.00  0.00    -0.218 OA
BRANCH  23  25
ATOM     25  C   UNL     1      25.166  13.748  -2.848  0.00  0.00    +0.171 C 
ATOM     26  O   UNL     1      24.208  14.441  -2.054  0.00  0.00    -0.343 OA
ATOM     27  C   UNL     1      23.137  13.829  -1.399  0.00  0.00    +0.220 C 
ATOM     28  C   UNL     1      23.594  12.621  -0.562  0.00  0.00    +0.076 C 
ATOM     29  C   UNL     1      24.401  11.696  -1.488  0.00  0.00    +0.177 C 
ATOM     30  O   UNL     1      24.815  10.541  -0.772  0.00  0.00    -0.221 OA
ATOM     31  C   UNL     1      25.623  12.463  -2.083  0.00  0.00    +0.155 C 
BRANCH  31  32
ATOM     32  N   UNL     1      26.395  11.585  -2.958  0.00  0.00    -0.202 NA
ATOM     33  C   UNL     1      27.657  11.106  -2.812  0.00  0.00    +0.242 C 
ATOM     34  C   UNL     1      28.106   9.985  -3.712  0.00  0.00    +0.096 C 
ATOM     35  O   UNL     1      28.396  11.592  -1.957  0.00  0.00    -0.273 OA
ENDBRANCH  31  32
BRANCH  27  36
ATOM     36  C   UNL     1      21.910  13.438  -2.390  0.00  0.00    +0.391 C 
ATOM     37  O   UNL     1      21.138  12.598  -1.672  0.00  0.00    -0.243 OA
ATOM     38  O   UNL     1      21.963  14.309  -3.405  0.00  0.00    -0.243 OA
ENDBRANCH  27  36
ENDBRANCH  23  25
ENDBRANCH  21  23
ENDBRANCH  20  21
ENDBRANCH   2  20
TORSDOF 11
