REMARK VINA RESULT:    -7.474      0.000      0.000
REMARK INTER + INTRA:         -14.617
REMARK INTER:                 -12.900
REMARK INTRA:                  -1.716
REMARK UNBOUND:                -1.681
REMARK  Name = lig_assembled_59.pdb
REMARK  13 active torsions:
REMARK  status: ('A' for Active; 'I' for Inactive)
REMARK    1  A    between atoms: _2  and  _9
REMARK    2  A    between atoms: _6  and  _7
REMARK    3  A    between atoms: _6  and  _15
REMARK    4  A    between atoms: _12  and  _13
REMARK    5  A    between atoms: _13  and  _14
REMARK    6  A    between atoms: _15  and  _17
REMARK    7  A    between atoms: _16  and  _21
REMARK    8  A    between atoms: _17  and  _20
REMARK    9  A    between atoms: _25  and  _35
REMARK   10  A    between atoms: _27  and  _28
REMARK   11  A    between atoms: _29  and  _31
REMARK   12  A    between atoms: _31  and  _33
REMARK   13  A    between atoms: _33  and  _35
REMARK                            x       y       z     vdW  Elec       q    Type
REMARK                         _______ _______ _______ _____ _____    ______ ____
ROOT
ATOM      1  C   UNL     1      27.985  17.186  -0.834  0.00  0.00    +0.400 C 
ATOM      2  N   UNL     1      28.360  16.095  -0.087  0.00  0.00    -0.278 N 
ATOM      3  H   UNL     1      28.616  16.520   0.860  0.00  0.00    +0.152 HD
ATOM      4  O   UNL     1      27.854  18.264  -0.259  0.00  0.00    -0.226 OA
ENDROOT
BRANCH   1   5
ATOM      5  O   UNL     1      27.834  16.973  -2.100  0.00  0.00    -0.450 OA
BRANCH   5   6
ATOM      6  C   UNL     1      26.977  17.350  -3.152  0.00  0.00    +0.240 C 
BRANCH   6   7
ATOM      7  C   UNL     1      26.417  16.230  -4.049  0.00  0.00    +0.100 C 
BRANCH   7   9
ATOM      8  N   UNL     1      24.020  15.824  -3.601  0.00  0.00    -0.134 NA
ATOM      9  C   UNL     1      25.329  15.514  -3.356  0.00  0.00    +0.087 A 
ATOM     10  C   UNL     1      25.387  14.505  -2.425  0.00  0.00    +0.141 A 
ATOM     11  N   UNL     1      24.072  14.227  -2.124  0.00  0.00    -0.202 N 
ATOM     12  N   UNL     1      23.261  15.036  -2.852  0.00  0.00    -0.059 NA
BRANCH  11  13
ATOM     13  C   UNL     1      23.583  13.266  -1.199  0.00  0.00    +0.156 A 
ATOM     14  C   UNL     1      22.206  13.131  -1.028  0.00  0.00    +0.048 A 
ATOM     15  C   UNL     1      21.734  12.217  -0.086  0.00  0.00    +0.011 A 
ATOM     16  C   UNL     1      22.636  11.453   0.657  0.00  0.00    -0.004 A 
ATOM     17  C   UNL     1      23.991  11.655   0.417  0.00  0.00    +0.119 A 
ATOM     18  N   UNL     1      24.484  12.530  -0.493  0.00  0.00    -0.236 NA
BRANCH  16  19
ATOM     19  C   UNL     1      22.153  10.531   1.739  0.00  0.00    +0.192 C 
BRANCH  19  20
ATOM     20  O   UNL     1      21.542  11.252   2.798  0.00  0.00    -0.390 OA
ATOM     21  H   UNL     1      20.924  11.884   2.392  0.00  0.00    +0.210 HD
ENDBRANCH  19  20
ENDBRANCH  16  19
ENDBRANCH  11  13
ENDBRANCH   7   9
ENDBRANCH   6   7
ENDBRANCH   5   6
ENDBRANCH   1   5
BRANCH   2  22
ATOM     22  C   UNL     1      28.548  14.649  -0.004  0.00  0.00    +0.152 C 
BRANCH  22  23
ATOM     23  C   UNL     1      29.655  14.161   0.953  0.00  0.00    +0.193 C 
ATOM     24  O   UNL     1      29.858  12.758   0.672  0.00  0.00    -0.219 OA
BRANCH  23  25
ATOM     25  C   UNL     1      31.057  14.791   0.804  0.00  0.00    +0.212 C 
ATOM     26  O   UNL     1      31.061  16.133   1.316  0.00  0.00    -0.218 OA
BRANCH  25  27
ATOM     27  C   UNL     1      32.191  13.971   1.531  0.00  0.00    +0.171 C 
ATOM     28  O   UNL     1      32.581  14.555   2.769  0.00  0.00    -0.343 OA
ATOM     29  C   UNL     1      33.715  14.182   3.494  0.00  0.00    +0.220 C 
ATOM     30  C   UNL     1      34.976  14.164   2.612  0.00  0.00    +0.076 C 
ATOM     31  C   UNL     1      34.671  13.285   1.388  0.00  0.00    +0.177 C 
ATOM     32  O   UNL     1      35.821  13.201   0.557  0.00  0.00    -0.221 OA
ATOM     33  C   UNL     1      33.447  13.856   0.607  0.00  0.00    +0.155 C 
BRANCH  33  34
ATOM     34  N   UNL     1      33.159  13.027  -0.561  0.00  0.00    -0.202 NA
ATOM     35  C   UNL     1      33.133  13.361  -1.876  0.00  0.00    +0.242 C 
ATOM     36  C   UNL     1      33.098  12.251  -2.895  0.00  0.00    +0.096 C 
ATOM     37  O   UNL     1      33.139  14.546  -2.203  0.00  0.00    -0.273 OA
ENDBRANCH  33  34
BRANCH  29  38
ATOM     38  C   UNL     1      33.534  12.785   4.305  0.00  0.00    +0.391 C 
ATOM     39  O   UNL     1      34.774  12.462   4.722  0.00  0.00    -0.243 OA
ATOM     40  O   UNL     1      32.218  12.645   4.510  0.00  0.00    -0.243 OA
ENDBRANCH  29  38
ENDBRANCH  25  27
ENDBRANCH  23  25
ENDBRANCH  22  23
ENDBRANCH   2  22
TORSDOF 13
