REMARK VINA RESULT:    -7.382      0.000      0.000
REMARK INTER + INTRA:         -15.535
REMARK INTER:                 -13.768
REMARK INTRA:                  -1.767
REMARK UNBOUND:                -2.327
REMARK  Name = lig_assembled_68.pdb
REMARK  14 active torsions:
REMARK  status: ('A' for Active; 'I' for Inactive)
REMARK    1  A    between atoms: _2  and  _8
REMARK    2  A    between atoms: _5  and  _6
REMARK    3  A    between atoms: _5  and  _16
REMARK    4  A    between atoms: _8  and  _9
REMARK    5  A    between atoms: _9  and  _10
REMARK    6  A    between atoms: _9  and  _15
REMARK    7  A    between atoms: _16  and  _18
REMARK    8  A    between atoms: _17  and  _22
REMARK    9  A    between atoms: _18  and  _21
REMARK   10  A    between atoms: _26  and  _36
REMARK   11  A    between atoms: _28  and  _29
REMARK   12  A    between atoms: _30  and  _32
REMARK   13  A    between atoms: _32  and  _34
REMARK   14  A    between atoms: _34  and  _36
REMARK                            x       y       z     vdW  Elec       q    Type
REMARK                         _______ _______ _______ _____ _____    ______ ____
ROOT
ATOM      1  C   UNL     1      28.810  17.023  -0.500  0.00  0.00    +0.400 C 
ATOM      2  N   UNL     1      28.988  15.907   0.285  0.00  0.00    -0.278 N 
ATOM      3  H   UNL     1      29.670  16.240   1.037  0.00  0.00    +0.152 HD
ATOM      4  O   UNL     1      29.269  18.091  -0.100  0.00  0.00    -0.226 OA
ENDROOT
BRANCH   2   5
ATOM      5  C   UNL     1      28.658  14.510   0.553  0.00  0.00    +0.152 C 
BRANCH   5   6
ATOM      6  C   UNL     1      29.849  13.575   0.845  0.00  0.00    +0.193 C 
ATOM      7  O   UNL     1      30.056  12.782  -0.344  0.00  0.00    -0.219 OA
BRANCH   6   8
ATOM      8  C   UNL     1      31.222  14.229   1.116  0.00  0.00    +0.212 C 
ATOM      9  O   UNL     1      31.131  15.150   2.216  0.00  0.00    -0.218 OA
BRANCH   8  10
ATOM     10  C   UNL     1      32.361  13.185   1.426  0.00  0.00    +0.171 C 
ATOM     11  O   UNL     1      32.687  13.124   2.811  0.00  0.00    -0.343 OA
ATOM     12  C   UNL     1      33.810  12.474   3.328  0.00  0.00    +0.220 C 
ATOM     13  C   UNL     1      35.099  12.897   2.602  0.00  0.00    +0.076 C 
ATOM     14  C   UNL     1      34.870  12.692   1.096  0.00  0.00    +0.177 C 
ATOM     15  O   UNL     1      36.049  13.031   0.379  0.00  0.00    -0.221 OA
ATOM     16  C   UNL     1      33.652  13.541   0.617  0.00  0.00    +0.155 C 
BRANCH  16  17
ATOM     17  N   UNL     1      33.435  13.355  -0.815  0.00  0.00    -0.202 NA
ATOM     18  C   UNL     1      33.411  14.271  -1.816  0.00  0.00    +0.242 C 
ATOM     19  C   UNL     1      33.461  13.779  -3.239  0.00  0.00    +0.096 C 
ATOM     20  O   UNL     1      33.350  15.468  -1.542  0.00  0.00    -0.273 OA
ENDBRANCH  16  17
BRANCH  12  21
ATOM     21  C   UNL     1      33.656  10.858   3.379  0.00  0.00    +0.391 C 
ATOM     22  O   UNL     1      34.890  10.400   3.667  0.00  0.00    -0.243 OA
ATOM     23  O   UNL     1      32.340  10.613   3.418  0.00  0.00    -0.243 OA
ENDBRANCH  12  21
ENDBRANCH   8  10
ENDBRANCH   6   8
ENDBRANCH   5   6
ENDBRANCH   2   5
BRANCH   1  24
ATOM     24  O   UNL     1      28.192  16.828  -1.618  0.00  0.00    -0.450 OA
BRANCH  24  25
ATOM     25  C   UNL     1      27.185  17.427  -2.400  0.00  0.00    +0.240 C 
BRANCH  25  26
ATOM     26  C   UNL     1      27.133  17.059  -3.895  0.00  0.00    +0.100 C 
BRANCH  26  28
ATOM     27  N   UNL     1      25.871  15.514  -5.367  0.00  0.00    -0.134 NA
ATOM     28  C   UNL     1      25.990  16.172  -4.169  0.00  0.00    +0.086 A 
ATOM     29  C   UNL     1      24.912  15.855  -3.375  0.00  0.00    +0.133 A 
ATOM     30  N   UNL     1      24.179  14.997  -4.140  0.00  0.00    -0.249 N 
ATOM     31  N   UNL     1      24.752  14.802  -5.341  0.00  0.00    -0.065 NA
BRANCH  30  32
ATOM     32  C   UNL     1      22.890  14.414  -3.833  0.00  0.00    +0.181 C 
BRANCH  32  33
ATOM     33  C   UNL     1      22.374  14.847  -2.454  0.00  0.00    +0.166 C 
BRANCH  33  34
ATOM     34  C   UNL     1      22.257  13.714  -1.445  0.00  0.00    -0.017 A 
ATOM     35  C   UNL     1      23.422  13.027  -1.058  0.00  0.00    +0.006 A 
ATOM     36  C   UNL     1      23.365  11.998  -0.115  0.00  0.00    +0.000 A 
ATOM     37  C   UNL     1      22.148  11.644   0.459  0.00  0.00    +0.000 A 
ATOM     38  C   UNL     1      20.989  12.325   0.102  0.00  0.00    +0.000 A 
ATOM     39  C   UNL     1      21.043  13.357  -0.840  0.00  0.00    +0.006 A 
ENDBRANCH  33  34
BRANCH  33  40
ATOM     40  O   UNL     1      21.078  15.438  -2.606  0.00  0.00    -0.385 OA
ATOM     41  H   UNL     1      21.065  15.928  -3.445  0.00  0.00    +0.210 HD
ENDBRANCH  33  40
ENDBRANCH  32  33
ENDBRANCH  30  32
ENDBRANCH  26  28
ENDBRANCH  25  26
ENDBRANCH  24  25
ENDBRANCH   1  24
TORSDOF 14
