REMARK VINA RESULT:    -6.640      0.000      0.000
REMARK INTER + INTRA:         -14.270
REMARK INTER:                 -12.760
REMARK INTRA:                  -1.511
REMARK UNBOUND:                -1.808
REMARK  Name = lig_assembled_43.pdb
REMARK  15 active torsions:
REMARK  status: ('A' for Active; 'I' for Inactive)
REMARK    1  A    between atoms: _2  and  _8
REMARK    2  A    between atoms: _5  and  _6
REMARK    3  A    between atoms: _5  and  _13
REMARK    4  A    between atoms: _8  and  _9
REMARK    5  A    between atoms: _9  and  _10
REMARK    6  A    between atoms: _10  and  _11
REMARK    7  A    between atoms: _11  and  _12
REMARK    8  A    between atoms: _13  and  _15
REMARK    9  A    between atoms: _14  and  _19
REMARK   10  A    between atoms: _15  and  _18
REMARK   11  A    between atoms: _23  and  _33
REMARK   12  A    between atoms: _25  and  _26
REMARK   13  A    between atoms: _27  and  _29
REMARK   14  A    between atoms: _29  and  _31
REMARK   15  A    between atoms: _31  and  _33
REMARK                            x       y       z     vdW  Elec       q    Type
REMARK                         _______ _______ _______ _____ _____    ______ ____
ROOT
ATOM      1  C   UNL     1      28.293  14.878  -0.596  0.00  0.00    +0.152 C 
ENDROOT
BRANCH   1   3
ATOM      2  C   UNL     1      27.528  17.346  -1.474  0.00  0.00    +0.400 C 
ATOM      3  N   UNL     1      28.200  16.310  -0.868  0.00  0.00    -0.278 N 
ATOM      4  H   UNL     1      29.008  16.799  -0.368  0.00  0.00    +0.152 HD
ATOM      5  O   UNL     1      27.851  18.495  -1.183  0.00  0.00    -0.226 OA
BRANCH   2   6
ATOM      6  O   UNL     1      26.625  17.001  -2.332  0.00  0.00    -0.450 OA
BRANCH   6   7
ATOM      7  C   UNL     1      26.409  17.026  -3.724  0.00  0.00    +0.240 C 
BRANCH   7   8
ATOM      8  C   UNL     1      26.085  15.688  -4.417  0.00  0.00    +0.100 C 
BRANCH   8  10
ATOM      9  N   UNL     1      25.227  14.396  -2.487  0.00  0.00    -0.134 NA
ATOM     10  C   UNL     1      25.001  14.990  -3.702  0.00  0.00    +0.086 A 
ATOM     11  C   UNL     1      23.686  14.798  -4.058  0.00  0.00    +0.133 A 
ATOM     12  N   UNL     1      23.168  14.078  -3.025  0.00  0.00    -0.251 N 
ATOM     13  N   UNL     1      24.093  13.839  -2.081  0.00  0.00    -0.065 NA
BRANCH  12  14
ATOM     14  C   UNL     1      21.824  13.562  -2.882  0.00  0.00    +0.145 C 
BRANCH  14  15
ATOM     15  C   UNL     1      21.009  14.390  -1.894  0.00  0.00    +0.024 C 
BRANCH  15  16
ATOM     16  C   UNL     1      20.624  13.587  -0.651  0.00  0.00    +0.006 C 
BRANCH  16  17
ATOM     17  C   UNL     1      21.111  12.141  -0.774  0.00  0.00    +0.026 C 
BRANCH  17  18
ATOM     18  C   UNL     1      21.964  11.734   0.392  0.00  0.00    -0.034 C 
ATOM     19  C   UNL     1      21.550  11.766   1.666  0.00  0.00    +0.004 C 
ENDBRANCH  17  18
ENDBRANCH  16  17
ENDBRANCH  15  16
ENDBRANCH  14  15
ENDBRANCH  12  14
ENDBRANCH   8  10
ENDBRANCH   7   8
ENDBRANCH   6   7
ENDBRANCH   2   6
ENDBRANCH   1   3
BRANCH   1  20
ATOM     20  C   UNL     1      29.297  14.458   0.498  0.00  0.00    +0.193 C 
ATOM     21  O   UNL     1      29.412  13.020   0.426  0.00  0.00    -0.219 OA
BRANCH  20  22
ATOM     22  C   UNL     1      30.749  14.968   0.370  0.00  0.00    +0.212 C 
ATOM     23  O   UNL     1      30.846  16.326   0.829  0.00  0.00    -0.218 OA
BRANCH  22  24
ATOM     24  C   UNL     1      31.791  14.092   1.164  0.00  0.00    +0.171 C 
ATOM     25  O   UNL     1      32.089  14.627   2.449  0.00  0.00    -0.343 OA
ATOM     26  C   UNL     1      33.145  14.196   3.256  0.00  0.00    +0.220 C 
ATOM     27  C   UNL     1      34.476  14.165   2.486  0.00  0.00    +0.076 C 
ATOM     28  C   UNL     1      34.254  13.333   1.212  0.00  0.00    +0.177 C 
ATOM     29  O   UNL     1      35.468  13.238   0.480  0.00  0.00    -0.221 OA
ATOM     30  C   UNL     1      33.119  13.965   0.348  0.00  0.00    +0.155 C 
BRANCH  30  31
ATOM     31  N   UNL     1      32.909  13.181  -0.867  0.00  0.00    -0.202 NA
ATOM     32  C   UNL     1      33.144  13.509  -2.163  0.00  0.00    +0.242 C 
ATOM     33  C   UNL     1      33.118  12.412  -3.194  0.00  0.00    +0.096 C 
ATOM     34  O   UNL     1      33.371  14.680  -2.461  0.00  0.00    -0.273 OA
ENDBRANCH  30  31
BRANCH  26  35
ATOM     35  C   UNL     1      32.854  12.783   4.003  0.00  0.00    +0.391 C 
ATOM     36  O   UNL     1      34.053  12.383   4.469  0.00  0.00    -0.243 OA
ATOM     37  O   UNL     1      31.525  12.702   4.136  0.00  0.00    -0.243 OA
ENDBRANCH  26  35
ENDBRANCH  22  24
ENDBRANCH  20  22
ENDBRANCH   1  20
TORSDOF 15
