REMARK VINA RESULT:    -7.735      0.000      0.000
REMARK INTER + INTRA:         -14.516
REMARK INTER:                 -12.965
REMARK INTRA:                  -1.551
REMARK UNBOUND:                -1.808
REMARK  Name = lig_assembled_8.pdb
REMARK  11 active torsions:
REMARK  status: ('A' for Active; 'I' for Inactive)
REMARK    1  A    between atoms: _2  and  _8
REMARK    2  A    between atoms: _5  and  _6
REMARK    3  A    between atoms: _5  and  _13
REMARK    4  A    between atoms: _13  and  _15
REMARK    5  A    between atoms: _14  and  _19
REMARK    6  A    between atoms: _15  and  _18
REMARK    7  A    between atoms: _23  and  _33
REMARK    8  A    between atoms: _25  and  _26
REMARK    9  A    between atoms: _27  and  _29
REMARK   10  A    between atoms: _29  and  _31
REMARK   11  A    between atoms: _31  and  _33
REMARK                            x       y       z     vdW  Elec       q    Type
REMARK                         _______ _______ _______ _____ _____    ______ ____
ROOT
ATOM      1  C   UNL     1      27.755  17.409  -1.211  0.00  0.00    +0.400 C 
ATOM      2  N   UNL     1      28.223  16.324  -0.508  0.00  0.00    -0.278 N 
ATOM      3  H   UNL     1      28.473  16.737   0.446  0.00  0.00    +0.152 HD
ATOM      4  O   UNL     1      27.565  18.458  -0.601  0.00  0.00    -0.226 OA
ENDROOT
BRANCH   1   5
ATOM      5  O   UNL     1      27.587  17.223  -2.480  0.00  0.00    -0.450 OA
BRANCH   5   6
ATOM      6  C   UNL     1      26.578  17.355  -3.454  0.00  0.00    +0.240 C 
BRANCH   6   7
ATOM      7  C   UNL     1      26.374  16.181  -4.430  0.00  0.00    +0.100 C 
BRANCH   7   9
ATOM      8  N   UNL     1      24.444  14.737  -4.960  0.00  0.00    -0.134 NA
ATOM      9  C   UNL     1      25.198  15.386  -4.033  0.00  0.00    +0.086 A 
ATOM     10  C   UNL     1      24.672  15.144  -2.785  0.00  0.00    +0.139 A 
ATOM     11  N   UNL     1      23.588  14.310  -2.994  0.00  0.00    -0.219 N 
ATOM     12  N   UNL     1      23.474  14.097  -4.324  0.00  0.00    -0.061 NA
BRANCH  11  13
ATOM     13  C   UNL     1      22.719  13.732  -2.018  0.00  0.00    +0.081 A 
ATOM     14  C   UNL     1      21.401  14.234  -1.920  0.00  0.00    +0.029 A 
ATOM     15  C   UNL     1      20.498  13.739  -0.975  0.00  0.00    +0.002 A 
ATOM     16  C   UNL     1      20.885  12.731  -0.107  0.00  0.00    +0.001 A 
ATOM     17  C   UNL     1      22.176  12.214  -0.190  0.00  0.00    +0.017 A 
ATOM     18  C   UNL     1      23.099  12.700  -1.136  0.00  0.00    +0.043 A 
ATOM     19 BR   UNL     1      24.794  11.834  -1.059  0.00  0.00    -0.048 Br
ENDBRANCH  11  13
ENDBRANCH   7   9
ENDBRANCH   6   7
ENDBRANCH   5   6
ENDBRANCH   1   5
BRANCH   2  20
ATOM     20  C   UNL     1      28.510  14.892  -0.475  0.00  0.00    +0.152 C 
BRANCH  20  21
ATOM     21  C   UNL     1      29.512  14.425   0.601  0.00  0.00    +0.193 C 
ATOM     22  O   UNL     1      29.614  12.989   0.478  0.00  0.00    -0.219 OA
BRANCH  21  23
ATOM     23  C   UNL     1      30.969  14.926   0.486  0.00  0.00    +0.212 C 
ATOM     24  O   UNL     1      31.068  16.288   0.931  0.00  0.00    -0.218 OA
BRANCH  23  25
ATOM     25  C   UNL     1      31.995  14.053   1.305  0.00  0.00    +0.171 C 
ATOM     26  O   UNL     1      32.274  14.598   2.590  0.00  0.00    -0.343 OA
ATOM     27  C   UNL     1      33.316  14.171   3.418  0.00  0.00    +0.220 C 
ATOM     28  C   UNL     1      34.659  14.129   2.669  0.00  0.00    +0.076 C 
ATOM     29  C   UNL     1      34.455  13.287   1.399  0.00  0.00    +0.177 C 
ATOM     30  O   UNL     1      35.680  13.183   0.688  0.00  0.00    -0.221 OA
ATOM     31  C   UNL     1      33.336  13.915   0.511  0.00  0.00    +0.155 C 
BRANCH  31  32
ATOM     32  N   UNL     1      33.143  13.122  -0.700  0.00  0.00    -0.202 NA
ATOM     33  C   UNL     1      33.242  13.489  -2.003  0.00  0.00    +0.242 C 
ATOM     34  C   UNL     1      33.284  12.406  -3.050  0.00  0.00    +0.096 C 
ATOM     35  O   UNL     1      33.296  14.682  -2.295  0.00  0.00    -0.273 OA
ENDBRANCH  31  32
BRANCH  27  36
ATOM     36  C   UNL     1      33.008  12.765   4.172  0.00  0.00    +0.391 C 
ATOM     37  O   UNL     1      34.192  12.381   4.687  0.00  0.00    -0.243 OA
ATOM     38  O   UNL     1      31.675  12.674   4.256  0.00  0.00    -0.243 OA
ENDBRANCH  27  36
ENDBRANCH  23  25
ENDBRANCH  21  23
ENDBRANCH  20  21
ENDBRANCH   2  20
TORSDOF 11
