REMARK VINA RESULT:    -6.269      0.000      0.000
REMARK INTER + INTRA:         -13.885
REMARK INTER:                 -12.140
REMARK INTRA:                  -1.745
REMARK UNBOUND:                -3.035
REMARK  Name = lig_assembled_22.pdb
REMARK  15 active torsions:
REMARK  status: ('A' for Active; 'I' for Inactive)
REMARK    1  A    between atoms: _2  and  _8
REMARK    2  A    between atoms: _4  and  _8
REMARK    3  A    between atoms: _4  and  _11
REMARK    4  A    between atoms: _5  and  _6
REMARK    5  A    between atoms: _5  and  _13
REMARK    6  A    between atoms: _8  and  _9
REMARK    7  A    between atoms: _8  and  _10
REMARK    8  A    between atoms: _13  and  _15
REMARK    9  A    between atoms: _14  and  _19
REMARK   10  A    between atoms: _15  and  _18
REMARK   11  A    between atoms: _23  and  _33
REMARK   12  A    between atoms: _25  and  _26
REMARK   13  A    between atoms: _27  and  _29
REMARK   14  A    between atoms: _29  and  _31
REMARK   15  A    between atoms: _31  and  _33
REMARK                            x       y       z     vdW  Elec       q    Type
REMARK                         _______ _______ _______ _____ _____    ______ ____
ROOT
ATOM      1  C   UNL     1      28.018  17.163  -1.039  0.00  0.00    +0.400 C 
ATOM      2  N   UNL     1      28.511  16.253  -0.134  0.00  0.00    -0.278 N 
ATOM      3  H   UNL     1      29.090  16.856   0.533  0.00  0.00    +0.152 HD
ATOM      4  O   UNL     1      28.172  18.359  -0.801  0.00  0.00    -0.226 OA
ENDROOT
BRANCH   1   5
ATOM      5  O   UNL     1      27.457  16.661  -2.089  0.00  0.00    -0.450 OA
BRANCH   5   6
ATOM      6  C   UNL     1      26.716  17.083  -3.210  0.00  0.00    +0.240 C 
BRANCH   6   7
ATOM      7  C   UNL     1      26.622  16.117  -4.406  0.00  0.00    +0.100 C 
BRANCH   7   9
ATOM      8  N   UNL     1      24.903  14.752  -5.537  0.00  0.00    -0.134 NA
ATOM      9  C   UNL     1      25.289  15.487  -4.452  0.00  0.00    +0.086 A 
ATOM     10  C   UNL     1      24.266  15.499  -3.530  0.00  0.00    +0.135 A 
ATOM     11  N   UNL     1      23.280  14.752  -4.112  0.00  0.00    -0.235 N 
ATOM     12  N   UNL     1      23.674  14.310  -5.321  0.00  0.00    -0.064 NA
BRANCH  11  13
ATOM     13  C   UNL     1      21.943  14.426  -3.612  0.00  0.00    +0.155 C 
ATOM     14  C   UNL     1      21.878  14.442  -2.069  0.00  0.00    +0.048 C 
ATOM     15  C   UNL     1      21.564  13.015  -4.101  0.00  0.00    +0.048 C 
BRANCH  13  16
ATOM     16  C   UNL     1      20.920  15.441  -4.128  0.00  0.00    +0.332 C 
ATOM     17  O   UNL     1      20.001  15.894  -3.457  0.00  0.00    -0.248 OA
BRANCH  16  18
ATOM     18  O   UNL     1      21.090  15.832  -5.414  0.00  0.00    -0.479 OA
ATOM     19  H   UNL     1      21.858  15.453  -5.887  0.00  0.00    +0.295 HD
ENDBRANCH  16  18
ENDBRANCH  13  16
ENDBRANCH  11  13
ENDBRANCH   7   9
ENDBRANCH   6   7
ENDBRANCH   5   6
ENDBRANCH   1   5
BRANCH   2  20
ATOM     20  C   UNL     1      28.584  14.868   0.323  0.00  0.00    +0.152 C 
BRANCH  20  21
ATOM     21  C   UNL     1      29.913  14.132   0.053  0.00  0.00    +0.193 C 
ATOM     22  O   UNL     1      29.994  13.934  -1.376  0.00  0.00    -0.219 OA
BRANCH  21  23
ATOM     23  C   UNL     1      31.223  14.866   0.415  0.00  0.00    +0.212 C 
ATOM     24  O   UNL     1      30.944  16.023   1.219  0.00  0.00    -0.218 OA
BRANCH  23  25
ATOM     25  C   UNL     1      32.257  13.956   1.182  0.00  0.00    +0.171 C 
ATOM     26  O   UNL     1      32.589  14.469   2.468  0.00  0.00    -0.343 OA
ATOM     27  C   UNL     1      33.647  14.004   3.252  0.00  0.00    +0.220 C 
ATOM     28  C   UNL     1      34.964  13.950   2.459  0.00  0.00    +0.076 C 
ATOM     29  C   UNL     1      34.701  13.138   1.180  0.00  0.00    +0.177 C 
ATOM     30  O   UNL     1      35.900  13.023   0.428  0.00  0.00    -0.221 OA
ATOM     31  C   UNL     1      33.568  13.807   0.342  0.00  0.00    +0.155 C 
BRANCH  31  32
ATOM     32  N   UNL     1      33.319  13.042  -0.877  0.00  0.00    -0.202 NA
ATOM     33  C   UNL     1      33.346  13.443  -2.173  0.00  0.00    +0.242 C 
ATOM     34  C   UNL     1      33.343  12.388  -3.249  0.00  0.00    +0.096 C 
ATOM     35  O   UNL     1      33.372  14.643  -2.438  0.00  0.00    -0.273 OA
ENDBRANCH  31  32
BRANCH  27  36
ATOM     36  C   UNL     1      33.335  12.590   3.988  0.00  0.00    +0.391 C 
ATOM     37  O   UNL     1      34.545  12.053   4.238  0.00  0.00    -0.243 OA
ATOM     38  O   UNL     1      32.042  12.630   4.334  0.00  0.00    -0.243 OA
ENDBRANCH  27  36
ENDBRANCH  23  25
ENDBRANCH  21  23
ENDBRANCH  20  21
ENDBRANCH   2  20
TORSDOF 13
