REMARK VINA RESULT:    -7.142      0.000      0.000
REMARK INTER + INTRA:         -16.104
REMARK INTER:                 -13.929
REMARK INTRA:                  -2.175
REMARK UNBOUND:                -3.117
REMARK  Name = lig_assembled_9.pdb
REMARK  15 active torsions:
REMARK  status: ('A' for Active; 'I' for Inactive)
REMARK    1  A    between atoms: _2  and  _8
REMARK    2  A    between atoms: _5  and  _6
REMARK    3  A    between atoms: _5  and  _18
REMARK    4  A    between atoms: _10  and  _11
REMARK    5  A    between atoms: _11  and  _16
REMARK    6  A    between atoms: _12  and  _13
REMARK    7  A    between atoms: _12  and  _16
REMARK    8  A    between atoms: _18  and  _20
REMARK    9  A    between atoms: _19  and  _24
REMARK   10  A    between atoms: _20  and  _23
REMARK   11  A    between atoms: _28  and  _38
REMARK   12  A    between atoms: _30  and  _31
REMARK   13  A    between atoms: _32  and  _34
REMARK   14  A    between atoms: _34  and  _36
REMARK   15  A    between atoms: _36  and  _38
REMARK                            x       y       z     vdW  Elec       q    Type
REMARK                         _______ _______ _______ _____ _____    ______ ____
ROOT
ATOM      1  C   UNL     1      27.918  17.339  -1.174  0.00  0.00    +0.400 C 
ATOM      2  N   UNL     1      28.238  16.205  -0.465  0.00  0.00    -0.278 N 
ATOM      3  H   UNL     1      28.544  16.585   0.485  0.00  0.00    +0.152 HD
ATOM      4  O   UNL     1      27.873  18.407  -0.569  0.00  0.00    -0.226 OA
ENDROOT
BRANCH   2   5
ATOM      5  C   UNL     1      28.330  14.748  -0.425  0.00  0.00    +0.152 C 
BRANCH   5   6
ATOM      6  C   UNL     1      29.426  14.161   0.489  0.00  0.00    +0.193 C 
ATOM      7  O   UNL     1      29.649  12.803   0.051  0.00  0.00    -0.219 OA
BRANCH   6   8
ATOM      8  C   UNL     1      30.824  14.816   0.440  0.00  0.00    +0.212 C 
ATOM      9  O   UNL     1      30.760  16.171   0.914  0.00  0.00    -0.218 OA
BRANCH   8  10
ATOM     10  C   UNL     1      31.908  14.039   1.280  0.00  0.00    +0.171 C 
ATOM     11  O   UNL     1      32.225  14.693   2.504  0.00  0.00    -0.343 OA
ATOM     12  C   UNL     1      33.311  14.361   3.317  0.00  0.00    +0.220 C 
ATOM     13  C   UNL     1      34.623  14.292   2.516  0.00  0.00    +0.076 C 
ATOM     14  C   UNL     1      34.390  13.344   1.327  0.00  0.00    +0.177 C 
ATOM     15  O   UNL     1      35.587  13.212   0.574  0.00  0.00    -0.221 OA
ATOM     16  C   UNL     1      33.217  13.870   0.442  0.00  0.00    +0.155 C 
BRANCH  16  17
ATOM     17  N   UNL     1      32.997  12.976  -0.692  0.00  0.00    -0.202 NA
ATOM     18  C   UNL     1      33.071  13.229  -2.023  0.00  0.00    +0.242 C 
ATOM     19  C   UNL     1      33.087  12.060  -2.973  0.00  0.00    +0.096 C 
ATOM     20  O   UNL     1      33.123  14.391  -2.419  0.00  0.00    -0.273 OA
ENDBRANCH  16  17
BRANCH  12  21
ATOM     21  C   UNL     1      33.075  13.014   4.194  0.00  0.00    +0.391 C 
ATOM     22  O   UNL     1      34.221  12.842   4.881  0.00  0.00    -0.243 OA
ATOM     23  O   UNL     1      31.762  12.762   4.139  0.00  0.00    -0.243 OA
ENDBRANCH  12  21
ENDBRANCH   8  10
ENDBRANCH   6   8
ENDBRANCH   5   6
ENDBRANCH   2   5
BRANCH   1  24
ATOM     24  O   UNL     1      27.723  17.171  -2.441  0.00  0.00    -0.450 OA
BRANCH  24  25
ATOM     25  C   UNL     1      26.722  17.393  -3.406  0.00  0.00    +0.240 C 
BRANCH  25  26
ATOM     26  C   UNL     1      26.316  16.203  -4.297  0.00  0.00    +0.100 C 
BRANCH  26  28
ATOM     27  N   UNL     1      26.235  14.015  -3.143  0.00  0.00    -0.134 NA
ATOM     28  C   UNL     1      25.619  15.181  -3.495  0.00  0.00    +0.086 A 
ATOM     29  C   UNL     1      24.344  15.189  -2.981  0.00  0.00    +0.139 A 
ATOM     30  N   UNL     1      24.236  14.009  -2.279  0.00  0.00    -0.220 N 
ATOM     31  N   UNL     1      25.386  13.305  -2.411  0.00  0.00    -0.061 NA
BRANCH  30  32
ATOM     32  C   UNL     1      23.153  13.541  -1.493  0.00  0.00    +0.068 A 
ATOM     33  C   UNL     1      23.342  12.509  -0.564  0.00  0.00    +0.042 A 
ATOM     34  C   UNL     1      22.260  12.027   0.190  0.00  0.00    +0.061 A 
ATOM     35  C   UNL     1      20.989  12.585   0.013  0.00  0.00    +0.015 A 
ATOM     36  C   UNL     1      20.800  13.623  -0.902  0.00  0.00    +0.003 A 
ATOM     37  C   UNL     1      21.877  14.101  -1.652  0.00  0.00    +0.028 A 
BRANCH  34  38
ATOM     38  C   UNL     1      22.430  10.976   1.227  0.00  0.00    +0.339 C 
ATOM     39  O   UNL     1      21.652  10.801   2.150  0.00  0.00    -0.245 OA
BRANCH  38  40
ATOM     40  O   UNL     1      23.610  10.333   1.039  0.00  0.00    -0.461 OA
BRANCH  40  41
ATOM     41  C   UNL     1      24.397  10.129   2.220  0.00  0.00    +0.229 C 
ATOM     42  C   UNL     1      25.197  11.394   2.474  0.00  0.00    +0.048 C 
ENDBRANCH  40  41
ENDBRANCH  38  40
ENDBRANCH  34  38
ENDBRANCH  30  32
ENDBRANCH  26  28
ENDBRANCH  25  26
ENDBRANCH  24  25
ENDBRANCH   1  24
TORSDOF 14
