REMARK VINA RESULT:    -7.883      0.000      0.000
REMARK INTER + INTRA:         -14.576
REMARK INTER:                 -12.969
REMARK INTRA:                  -1.607
REMARK UNBOUND:                -1.624
REMARK  Name = lig_assembled_3.pdb
REMARK  11 active torsions:
REMARK  status: ('A' for Active; 'I' for Inactive)
REMARK    1  A    between atoms: _2  and  _8
REMARK    2  A    between atoms: _5  and  _6
REMARK    3  A    between atoms: _5  and  _13
REMARK    4  A    between atoms: _13  and  _15
REMARK    5  A    between atoms: _14  and  _19
REMARK    6  A    between atoms: _15  and  _18
REMARK    7  A    between atoms: _23  and  _33
REMARK    8  A    between atoms: _25  and  _26
REMARK    9  A    between atoms: _27  and  _29
REMARK   10  A    between atoms: _29  and  _31
REMARK   11  A    between atoms: _31  and  _33
REMARK                            x       y       z     vdW  Elec       q    Type
REMARK                         _______ _______ _______ _____ _____    ______ ____
ROOT
ATOM      1  C   UNL     1      28.577  14.852  -0.165  0.00  0.00    +0.152 C 
ENDROOT
BRANCH   1   3
ATOM      2  C   UNL     1      27.813  17.389  -0.817  0.00  0.00    +0.400 C 
ATOM      3  N   UNL     1      28.277  16.281  -0.147  0.00  0.00    -0.278 N 
ATOM      4  H   UNL     1      28.506  16.658   0.826  0.00  0.00    +0.152 HD
ATOM      5  O   UNL     1      27.602  18.411  -0.169  0.00  0.00    -0.226 OA
BRANCH   2   6
ATOM      6  O   UNL     1      27.670  17.252  -2.094  0.00  0.00    -0.450 OA
BRANCH   6   7
ATOM      7  C   UNL     1      26.760  17.603  -3.111  0.00  0.00    +0.240 C 
BRANCH   7   8
ATOM      8  C   UNL     1      26.316  16.492  -4.081  0.00  0.00    +0.100 C 
BRANCH   8  10
ATOM      9  N   UNL     1      26.234  14.243  -3.054  0.00  0.00    -0.134 NA
ATOM     10  C   UNL     1      25.614  15.422  -3.348  0.00  0.00    +0.086 A 
ATOM     11  C   UNL     1      24.331  15.392  -2.852  0.00  0.00    +0.139 A 
ATOM     12  N   UNL     1      24.217  14.169  -2.230  0.00  0.00    -0.220 N 
ATOM     13  N   UNL     1      25.379  13.485  -2.381  0.00  0.00    -0.061 NA
BRANCH  12  14
ATOM     14  C   UNL     1      23.117  13.636  -1.510  0.00  0.00    +0.067 A 
ATOM     15  C   UNL     1      23.285  12.551  -0.638  0.00  0.00    +0.028 A 
ATOM     16  C   UNL     1      22.182  12.022   0.039  0.00  0.00    +0.002 A 
ATOM     17  C   UNL     1      20.915  12.570  -0.146  0.00  0.00    +0.000 A 
ATOM     18  C   UNL     1      20.744  13.655  -1.005  0.00  0.00    +0.002 A 
ATOM     19  C   UNL     1      21.839  14.191  -1.686  0.00  0.00    +0.028 A 
ENDBRANCH  12  14
ENDBRANCH   8  10
ENDBRANCH   7   8
ENDBRANCH   6   7
ENDBRANCH   2   6
ENDBRANCH   1   3
BRANCH   1  20
ATOM     20  C   UNL     1      29.614  14.362   0.866  0.00  0.00    +0.193 C 
ATOM     21  O   UNL     1      29.780  12.944   0.647  0.00  0.00    -0.219 OA
BRANCH  20  22
ATOM     22  C   UNL     1      31.045  14.937   0.771  0.00  0.00    +0.212 C 
ATOM     23  O   UNL     1      31.076  16.289   1.254  0.00  0.00    -0.218 OA
BRANCH  22  24
ATOM     24  C   UNL     1      32.111  14.092   1.567  0.00  0.00    +0.171 C 
ATOM     25  O   UNL     1      32.494  14.708   2.792  0.00  0.00    -0.343 OA
ATOM     26  C   UNL     1      33.584  14.309   3.568  0.00  0.00    +0.220 C 
ATOM     27  C   UNL     1      34.869  14.190   2.729  0.00  0.00    +0.076 C 
ATOM     28  C   UNL     1      34.557  13.277   1.533  0.00  0.00    +0.177 C 
ATOM     29  O   UNL     1      35.725  13.101   0.743  0.00  0.00    -0.221 OA
ATOM     30  C   UNL     1      33.388  13.875   0.690  0.00  0.00    +0.155 C 
BRANCH  30  31
ATOM     31  N   UNL     1      33.093  13.013  -0.452  0.00  0.00    -0.202 NA
ATOM     32  C   UNL     1      33.058  13.309  -1.776  0.00  0.00    +0.242 C 
ATOM     33  C   UNL     1      33.018  12.171  -2.763  0.00  0.00    +0.096 C 
ATOM     34  O   UNL     1      33.062  14.484  -2.137  0.00  0.00    -0.273 OA
ENDBRANCH  30  31
BRANCH  26  35
ATOM     35  C   UNL     1      33.307  12.960   4.429  0.00  0.00    +0.391 C 
ATOM     36  O   UNL     1      34.449  12.740   5.109  0.00  0.00    -0.243 OA
ATOM     37  O   UNL     1      31.985  12.752   4.376  0.00  0.00    -0.243 OA
ENDBRANCH  26  35
ENDBRANCH  22  24
ENDBRANCH  20  22
ENDBRANCH   1  20
TORSDOF 11
