REMARK VINA RESULT:    -7.376      0.000      0.000
REMARK INTER + INTRA:         -14.694
REMARK INTER:                 -12.943
REMARK INTRA:                  -1.750
REMARK UNBOUND:                -2.144
REMARK  Name = lig_assembled_63.pdb
REMARK  12 active torsions:
REMARK  status: ('A' for Active; 'I' for Inactive)
REMARK    1  A    between atoms: _2  and  _10
REMARK    2  A    between atoms: _6  and  _14
REMARK    3  A    between atoms: _7  and  _8
REMARK    4  A    between atoms: _7  and  _15
REMARK    5  A    between atoms: _15  and  _17
REMARK    6  A    between atoms: _16  and  _21
REMARK    7  A    between atoms: _17  and  _20
REMARK    8  A    between atoms: _25  and  _35
REMARK    9  A    between atoms: _27  and  _28
REMARK   10  A    between atoms: _29  and  _31
REMARK   11  A    between atoms: _31  and  _33
REMARK   12  A    between atoms: _33  and  _35
REMARK                            x       y       z     vdW  Elec       q    Type
REMARK                         _______ _______ _______ _____ _____    ______ ____
ROOT
ATOM      1  C   UNL     1      27.695  17.476  -1.227  0.00  0.00    +0.400 C 
ATOM      2  N   UNL     1      28.187  16.324  -0.660  0.00  0.00    -0.278 N 
ATOM      3  H   UNL     1      28.475  16.636   0.321  0.00  0.00    +0.152 HD
ATOM      4  O   UNL     1      27.532  18.455  -0.503  0.00  0.00    -0.226 OA
ENDROOT
BRANCH   2   5
ATOM      5  C   UNL     1      28.471  14.898  -0.787  0.00  0.00    +0.152 C 
BRANCH   5   6
ATOM      6  C   UNL     1      29.455  14.306   0.243  0.00  0.00    +0.193 C 
ATOM      7  O   UNL     1      29.632  12.915  -0.104  0.00  0.00    -0.219 OA
BRANCH   6   8
ATOM      8  C   UNL     1      30.888  14.881   0.275  0.00  0.00    +0.212 C 
ATOM      9  O   UNL     1      30.877  16.228   0.773  0.00  0.00    -0.218 OA
BRANCH   8  10
ATOM     10  C   UNL     1      31.883  14.028   1.151  0.00  0.00    +0.171 C 
ATOM     11  O   UNL     1      32.121  14.606   2.430  0.00  0.00    -0.343 OA
ATOM     12  C   UNL     1      33.132  14.199   3.304  0.00  0.00    +0.220 C 
ATOM     13  C   UNL     1      34.500  14.134   2.603  0.00  0.00    +0.076 C 
ATOM     14  C   UNL     1      34.336  13.259   1.349  0.00  0.00    +0.177 C 
ATOM     15  O   UNL     1      35.584  13.133   0.683  0.00  0.00    -0.221 OA
ATOM     16  C   UNL     1      33.250  13.866   0.408  0.00  0.00    +0.155 C 
BRANCH  16  17
ATOM     17  N   UNL     1      33.096  13.040  -0.787  0.00  0.00    -0.202 NA
ATOM     18  C   UNL     1      33.262  13.366  -2.094  0.00  0.00    +0.242 C 
ATOM     19  C   UNL     1      33.329  12.253  -3.107  0.00  0.00    +0.096 C 
ATOM     20  O   UNL     1      33.354  14.549  -2.419  0.00  0.00    -0.273 OA
ENDBRANCH  16  17
BRANCH  12  21
ATOM     21  C   UNL     1      32.795  12.815   4.084  0.00  0.00    +0.391 C 
ATOM     22  O   UNL     1      33.970  12.417   4.610  0.00  0.00    -0.243 OA
ATOM     23  O   UNL     1      31.460  12.752   4.167  0.00  0.00    -0.243 OA
ENDBRANCH  12  21
ENDBRANCH   8  10
ENDBRANCH   6   8
ENDBRANCH   5   6
ENDBRANCH   2   5
BRANCH   1  24
ATOM     24  O   UNL     1      27.477  17.424  -2.500  0.00  0.00    -0.450 OA
BRANCH  24  25
ATOM     25  C   UNL     1      26.392  17.351  -3.396  0.00  0.00    +0.240 C 
BRANCH  25  26
ATOM     26  C   UNL     1      26.351  16.154  -4.366  0.00  0.00    +0.100 C 
BRANCH  26  28
ATOM     27  N   UNL     1      24.958  14.149  -4.750  0.00  0.00    -0.134 NA
ATOM     28  C   UNL     1      25.335  15.176  -3.934  0.00  0.00    +0.087 A 
ATOM     29  C   UNL     1      24.619  15.101  -2.763  0.00  0.00    +0.141 A 
ATOM     30  N   UNL     1      23.778  14.019  -2.927  0.00  0.00    -0.201 N 
ATOM     31  N   UNL     1      24.019  13.450  -4.127  0.00  0.00    -0.059 NA
BRANCH  30  32
ATOM     32  C   UNL     1      22.764  13.587  -2.020  0.00  0.00    +0.173 A 
ATOM     33  C   UNL     1      21.508  14.197  -1.958  0.00  0.00    +0.096 A 
ATOM     34  C   UNL     1      20.622  13.756  -0.961  0.00  0.00    +0.024 A 
ATOM     35  C   UNL     1      20.984  12.732  -0.092  0.00  0.00    +0.021 A 
ATOM     36  C   UNL     1      22.229  12.159  -0.249  0.00  0.00    +0.113 A 
ATOM     37  N   UNL     1      23.120  12.562  -1.181  0.00  0.00    -0.235 NA
BRANCH  33  38
ATOM     38  C   UNL     1      21.036  15.224  -2.838  0.00  0.00    +0.103 C 
ATOM     39  N   UNL     1      20.748  16.102  -3.542  0.00  0.00    -0.191 NA
ENDBRANCH  33  38
ENDBRANCH  30  32
ENDBRANCH  26  28
ENDBRANCH  25  26
ENDBRANCH  24  25
ENDBRANCH   1  24
TORSDOF 12
