REMARK VINA RESULT:    -8.123      0.000      0.000
REMARK INTER + INTRA:         -15.016
REMARK INTER:                 -12.938
REMARK INTRA:                  -2.078
REMARK UNBOUND:                -1.669
REMARK  Name = lig_assembled_70.pdb
REMARK  11 active torsions:
REMARK  status: ('A' for Active; 'I' for Inactive)
REMARK    1  A    between atoms: _2  and  _9
REMARK    2  A    between atoms: _6  and  _7
REMARK    3  A    between atoms: _6  and  _17
REMARK    4  A    between atoms: _17  and  _19
REMARK    5  A    between atoms: _18  and  _23
REMARK    6  A    between atoms: _19  and  _22
REMARK    7  A    between atoms: _27  and  _37
REMARK    8  A    between atoms: _29  and  _30
REMARK    9  A    between atoms: _31  and  _33
REMARK   10  A    between atoms: _33  and  _35
REMARK   11  A    between atoms: _35  and  _37
REMARK                            x       y       z     vdW  Elec       q    Type
REMARK                         _______ _______ _______ _____ _____    ______ ____
ROOT
ATOM      1  C   UNL     1      27.854  17.413  -1.203  0.00  0.00    +0.400 C 
ATOM      2  N   UNL     1      28.234  16.264  -0.551  0.00  0.00    -0.278 N 
ATOM      3  H   UNL     1      28.463  16.603   0.436  0.00  0.00    +0.152 HD
ATOM      4  O   UNL     1      27.692  18.431  -0.534  0.00  0.00    -0.226 OA
ENDROOT
BRANCH   1   5
ATOM      5  O   UNL     1      27.733  17.316  -2.486  0.00  0.00    -0.450 OA
BRANCH   5   6
ATOM      6  C   UNL     1      26.727  17.370  -3.471  0.00  0.00    +0.240 C 
BRANCH   6   7
ATOM      7  C   UNL     1      26.551  16.135  -4.375  0.00  0.00    +0.100 C 
BRANCH   7   9
ATOM      8  N   UNL     1      26.707  13.757  -3.692  0.00  0.00    -0.134 NA
ATOM      9  C   UNL     1      26.101  14.975  -3.583  0.00  0.00    +0.086 A 
ATOM     10  C   UNL     1      25.083  14.888  -2.662  0.00  0.00    +0.140 A 
ATOM     11  N   UNL     1      25.113  13.586  -2.220  0.00  0.00    -0.218 N 
ATOM     12  N   UNL     1      26.096  12.917  -2.865  0.00  0.00    -0.060 NA
BRANCH  11  13
ATOM     13  C   UNL     1      24.304  12.977  -1.239  0.00  0.00    +0.086 A 
ATOM     14  C   UNL     1      22.923  13.022  -1.339  0.00  0.00    +0.139 A 
ATOM     15  N   UNL     1      22.084  12.420  -0.457  0.00  0.00    -0.253 NA
ATOM     16  C   UNL     1      22.624  11.733   0.568  0.00  0.00    +0.071 A 
ATOM     17  C   UNL     1      24.019  11.646   0.759  0.00  0.00    +0.002 A 
ATOM     18  C   UNL     1      24.545  10.919   1.842  0.00  0.00    +0.010 A 
ATOM     19  C   UNL     1      23.696  10.259   2.724  0.00  0.00    +0.001 A 
ATOM     20  C   UNL     1      22.322  10.334   2.536  0.00  0.00    +0.002 A 
ATOM     21  C   UNL     1      21.801  11.072   1.469  0.00  0.00    +0.028 A 
ATOM     22  C   UNL     1      24.857  12.289  -0.159  0.00  0.00    +0.039 A 
ENDBRANCH  11  13
ENDBRANCH   7   9
ENDBRANCH   6   7
ENDBRANCH   5   6
ENDBRANCH   1   5
BRANCH   2  23
ATOM     23  C   UNL     1      28.445  14.819  -0.598  0.00  0.00    +0.152 C 
BRANCH  23  24
ATOM     24  C   UNL     1      29.474  14.250   0.400  0.00  0.00    +0.193 C 
ATOM     25  O   UNL     1      29.660  12.859   0.057  0.00  0.00    -0.219 OA
BRANCH  24  26
ATOM     26  C   UNL     1      30.899  14.847   0.375  0.00  0.00    +0.212 C 
ATOM     27  O   UNL     1      30.888  16.193   0.877  0.00  0.00    -0.218 OA
BRANCH  26  28
ATOM     28  C   UNL     1      31.942  14.007   1.207  0.00  0.00    +0.171 C 
ATOM     29  O   UNL     1      32.256  14.609   2.458  0.00  0.00    -0.343 OA
ATOM     30  C   UNL     1      33.317  14.215   3.278  0.00  0.00    +0.220 C 
ATOM     31  C   UNL     1      34.640  14.131   2.498  0.00  0.00    +0.076 C 
ATOM     32  C   UNL     1      34.400  13.232   1.274  0.00  0.00    +0.177 C 
ATOM     33  O   UNL     1      35.606  13.089   0.538  0.00  0.00    -0.221 OA
ATOM     34  C   UNL     1      33.261  13.825   0.387  0.00  0.00    +0.155 C 
BRANCH  34  35
ATOM     35  N   UNL     1      33.035  12.978  -0.781  0.00  0.00    -0.202 NA
ATOM     36  C   UNL     1      33.107  13.283  -2.101  0.00  0.00    +0.242 C 
ATOM     37  C   UNL     1      33.116  12.152  -3.097  0.00  0.00    +0.096 C 
ATOM     38  O   UNL     1      33.163  14.460  -2.451  0.00  0.00    -0.273 OA
ENDBRANCH  34  35
BRANCH  30  39
ATOM     39  C   UNL     1      33.023  12.847   4.104  0.00  0.00    +0.391 C 
ATOM     40  O   UNL     1      34.219  12.478   4.602  0.00  0.00    -0.243 OA
ATOM     41  O   UNL     1      31.692  12.770   4.230  0.00  0.00    -0.243 OA
ENDBRANCH  30  39
ENDBRANCH  26  28
ENDBRANCH  24  26
ENDBRANCH  23  24
ENDBRANCH   2  23
TORSDOF 11
