REMARK VINA RESULT:    -6.546      0.000      0.000
REMARK INTER + INTRA:         -14.506
REMARK INTER:                 -11.908
REMARK INTRA:                  -2.598
REMARK UNBOUND:                -1.837
REMARK  Name = lig_assembled_45.pdb
REMARK  19 active torsions:
REMARK  status: ('A' for Active; 'I' for Inactive)
REMARK    1  A    between atoms: _2  and  _9
REMARK    2  A    between atoms: _3  and  _11
REMARK    3  A    between atoms: _3  and  _12
REMARK    4  A    between atoms: _3  and  _13
REMARK    5  A    between atoms: _3  and  _15
REMARK    6  A    between atoms: _5  and  _15
REMARK    7  A    between atoms: _6  and  _7
REMARK    8  A    between atoms: _6  and  _16
REMARK    9  A    between atoms: _9  and  _10
REMARK   10  A    between atoms: _10  and  _11
REMARK   11  A    between atoms: _13  and  _14
REMARK   12  A    between atoms: _16  and  _18
REMARK   13  A    between atoms: _17  and  _22
REMARK   14  A    between atoms: _18  and  _21
REMARK   15  A    between atoms: _26  and  _36
REMARK   16  A    between atoms: _28  and  _29
REMARK   17  A    between atoms: _30  and  _32
REMARK   18  A    between atoms: _32  and  _34
REMARK   19  A    between atoms: _34  and  _36
REMARK                            x       y       z     vdW  Elec       q    Type
REMARK                         _______ _______ _______ _____ _____    ______ ____
ROOT
ATOM      1  C   UNL     1      28.192  16.919  -0.726  0.00  0.00    +0.400 C 
ATOM      2  N   UNL     1      28.360  15.659  -0.202  0.00  0.00    -0.278 N 
ATOM      3  H   UNL     1      28.728  15.848   0.783  0.00  0.00    +0.152 HD
ATOM      4  O   UNL     1      28.303  17.881   0.030  0.00  0.00    -0.226 OA
ENDROOT
BRANCH   2   5
ATOM      5  C   UNL     1      28.249  14.213  -0.378  0.00  0.00    +0.152 C 
BRANCH   5   6
ATOM      6  C   UNL     1      27.947  13.395   0.894  0.00  0.00    +0.193 C 
ATOM      7  O   UNL     1      28.447  12.060   0.658  0.00  0.00    -0.219 OA
BRANCH   6   8
ATOM      8  C   UNL     1      28.629  13.836   2.207  0.00  0.00    +0.212 C 
ATOM      9  O   UNL     1      27.658  13.965   3.258  0.00  0.00    -0.218 OA
BRANCH   8  10
ATOM     10  C   UNL     1      29.761  12.848   2.685  0.00  0.00    +0.171 C 
ATOM     11  O   UNL     1      29.548  12.370   4.009  0.00  0.00    -0.343 OA
ATOM     12  C   UNL     1      30.503  11.685   4.763  0.00  0.00    +0.220 C 
ATOM     13  C   UNL     1      31.850  12.428   4.787  0.00  0.00    +0.076 C 
ATOM     14  C   UNL     1      32.253  12.703   3.329  0.00  0.00    +0.177 C 
ATOM     15  O   UNL     1      33.515  13.355   3.293  0.00  0.00    -0.221 OA
ATOM     16  C   UNL     1      31.154  13.555   2.620  0.00  0.00    +0.155 C 
BRANCH  16  17
ATOM     17  N   UNL     1      31.536  13.825   1.236  0.00  0.00    -0.202 NA
ATOM     18  C   UNL     1      31.630  15.008   0.577  0.00  0.00    +0.242 C 
ATOM     19  C   UNL     1      32.330  15.029  -0.757  0.00  0.00    +0.096 C 
ATOM     20  O   UNL     1      31.149  16.022   1.078  0.00  0.00    -0.273 OA
ENDBRANCH  16  17
BRANCH  12  21
ATOM     21  C   UNL     1      30.685  10.132   4.321  0.00  0.00    +0.391 C 
ATOM     22  O   UNL     1      31.952   9.821   4.657  0.00  0.00    -0.243 OA
ATOM     23  O   UNL     1      29.452   9.670   4.078  0.00  0.00    -0.243 OA
ENDBRANCH  12  21
ENDBRANCH   8  10
ENDBRANCH   6   8
ENDBRANCH   5   6
ENDBRANCH   2   5
BRANCH   1  24
ATOM     24  O   UNL     1      27.959  16.970  -1.997  0.00  0.00    -0.450 OA
BRANCH  24  25
ATOM     25  C   UNL     1      26.869  16.907  -2.887  0.00  0.00    +0.240 C 
BRANCH  25  26
ATOM     26  C   UNL     1      26.616  15.569  -3.607  0.00  0.00    +0.100 C 
BRANCH  26  28
ATOM     27  N   UNL     1      24.630  14.765  -4.856  0.00  0.00    -0.134 NA
ATOM     28  C   UNL     1      25.168  15.320  -3.726  0.00  0.00    +0.086 A 
ATOM     29  C   UNL     1      24.158  15.568  -2.824  0.00  0.00    +0.133 A 
ATOM     30  N   UNL     1      23.041  15.139  -3.473  0.00  0.00    -0.251 N 
ATOM     31  N   UNL     1      23.318  14.664  -4.690  0.00  0.00    -0.065 NA
BRANCH  30  32
ATOM     32  C   UNL     1      21.677  15.180  -2.991  0.00  0.00    +0.150 C 
BRANCH  32  33
ATOM     33  C   UNL     1      21.455  14.310  -1.760  0.00  0.00    +0.074 C 
BRANCH  33  34
ATOM     34  C   UNL     1      21.387  12.794  -1.986  0.00  0.00    +0.134 C 
BRANCH  34  35
ATOM     35  N   UNL     1      22.474  11.901  -1.301  0.00  0.00    +0.241 N 
ATOM     36  C   UNL     1      23.044  10.928  -2.347  0.00  0.00    +0.192 C 
BRANCH  35  37
ATOM     37  C   UNL     1      21.724  11.070  -0.207  0.00  0.00    +0.129 C 
ATOM     38  C   UNL     1      21.393  11.861   1.053  0.00  0.00    +0.060 C 
ENDBRANCH  35  37
BRANCH  35  39
ATOM     39  C   UNL     1      23.637  12.678  -0.656  0.00  0.00    +0.129 C 
ATOM     40  C   UNL     1      25.000  12.369  -1.253  0.00  0.00    +0.060 C 
ENDBRANCH  35  39
ENDBRANCH  34  35
ENDBRANCH  33  34
ENDBRANCH  32  33
ENDBRANCH  30  32
ENDBRANCH  26  28
ENDBRANCH  25  26
ENDBRANCH  24  25
ENDBRANCH   1  24
TORSDOF 16
