REMARK VINA RESULT:    -8.009      0.000      0.000
REMARK INTER + INTRA:         -15.756
REMARK INTER:                 -14.015
REMARK INTRA:                  -1.741
REMARK UNBOUND:                -2.128
REMARK  Name = lig_assembled_0.pdb
REMARK  12 active torsions:
REMARK  status: ('A' for Active; 'I' for Inactive)
REMARK    1  A    between atoms: _2  and  _9
REMARK    2  A    between atoms: _6  and  _7
REMARK    3  A    between atoms: _6  and  _16
REMARK    4  A    between atoms: _10  and  _11
REMARK    5  A    between atoms: _16  and  _18
REMARK    6  A    between atoms: _17  and  _22
REMARK    7  A    between atoms: _18  and  _21
REMARK    8  A    between atoms: _26  and  _36
REMARK    9  A    between atoms: _28  and  _29
REMARK   10  A    between atoms: _30  and  _32
REMARK   11  A    between atoms: _32  and  _34
REMARK   12  A    between atoms: _34  and  _36
REMARK                            x       y       z     vdW  Elec       q    Type
REMARK                         _______ _______ _______ _____ _____    ______ ____
ROOT
ATOM      1  C   UNL     1      28.022  17.239  -0.737  0.00  0.00    +0.400 C 
ATOM      2  N   UNL     1      28.422  16.116  -0.051  0.00  0.00    -0.278 N 
ATOM      3  H   UNL     1      28.663  16.492   0.920  0.00  0.00    +0.152 HD
ATOM      4  O   UNL     1      27.863  18.279  -0.102  0.00  0.00    -0.226 OA
ENDROOT
BRANCH   2   5
ATOM      5  C   UNL     1      28.644  14.672  -0.051  0.00  0.00    +0.152 C 
BRANCH   5   6
ATOM      6  C   UNL     1      29.726  14.152   0.918  0.00  0.00    +0.193 C 
ATOM      7  O   UNL     1      29.937  12.760   0.595  0.00  0.00    -0.219 OA
BRANCH   6   8
ATOM      8  C   UNL     1      31.131  14.786   0.828  0.00  0.00    +0.212 C 
ATOM      9  O   UNL     1      31.116  16.118   1.366  0.00  0.00    -0.218 OA
BRANCH   8  10
ATOM     10  C   UNL     1      32.241  13.953   1.575  0.00  0.00    +0.171 C 
ATOM     11  O   UNL     1      32.637  14.548   2.807  0.00  0.00    -0.343 OA
ATOM     12  C   UNL     1      33.757  14.161   3.545  0.00  0.00    +0.220 C 
ATOM     13  C   UNL     1      35.023  14.101   2.672  0.00  0.00    +0.076 C 
ATOM     14  C   UNL     1      34.707  13.210   1.460  0.00  0.00    +0.177 C 
ATOM     15  O   UNL     1      35.860  13.088   0.638  0.00  0.00    -0.221 OA
ATOM     16  C   UNL     1      33.501  13.796   0.662  0.00  0.00    +0.155 C 
BRANCH  16  17
ATOM     17  N   UNL     1      33.202  12.955  -0.495  0.00  0.00    -0.202 NA
ATOM     18  C   UNL     1      33.116  13.286  -1.809  0.00  0.00    +0.242 C 
ATOM     19  C   UNL     1      33.086  12.175  -2.826  0.00  0.00    +0.096 C 
ATOM     20  O   UNL     1      33.066  14.470  -2.135  0.00  0.00    -0.273 OA
ENDBRANCH  16  17
BRANCH  12  21
ATOM     21  C   UNL     1      33.540  12.782   4.376  0.00  0.00    +0.391 C 
ATOM     22  O   UNL     1      34.781  12.378   4.711  0.00  0.00    -0.243 OA
ATOM     23  O   UNL     1      32.235  12.729   4.670  0.00  0.00    -0.243 OA
ENDBRANCH  12  21
ENDBRANCH   8  10
ENDBRANCH   6   8
ENDBRANCH   5   6
ENDBRANCH   2   5
BRANCH   1  24
ATOM     24  O   UNL     1      27.882  17.095  -2.013  0.00  0.00    -0.450 OA
BRANCH  24  25
ATOM     25  C   UNL     1      27.043  17.544  -3.053  0.00  0.00    +0.240 C 
BRANCH  25  26
ATOM     26  C   UNL     1      26.816  16.593  -4.243  0.00  0.00    +0.100 C 
BRANCH  26  28
ATOM     27  N   UNL     1      25.283  14.771  -4.886  0.00  0.00    -0.134 NA
ATOM     28  C   UNL     1      25.616  15.767  -4.018  0.00  0.00    +0.086 A 
ATOM     29  C   UNL     1      24.696  15.798  -2.993  0.00  0.00    +0.139 A 
ATOM     30  N   UNL     1      23.752  14.855  -3.329  0.00  0.00    -0.219 N 
ATOM     31  N   UNL     1      24.182  14.189  -4.437  0.00  0.00    -0.061 NA
BRANCH  30  32
ATOM     32  C   UNL     1      22.565  14.446  -2.658  0.00  0.00    +0.079 A 
ATOM     33  C   UNL     1      21.324  15.108  -2.745  0.00  0.00    +0.062 A 
ATOM     34  C   UNL     1      20.235  14.616  -1.992  0.00  0.00    +0.015 A 
ATOM     35  C   UNL     1      20.372  13.503  -1.160  0.00  0.00    +0.001 A 
ATOM     36  C   UNL     1      21.588  12.843  -1.087  0.00  0.00    +0.002 A 
ATOM     37  C   UNL     1      22.672  13.301  -1.836  0.00  0.00    +0.028 A 
BRANCH  33  38
ATOM     38  C   UNL     1      21.021  16.190  -3.724  0.00  0.00    +0.244 C 
ATOM     39  O   UNL     1      20.454  15.971  -4.784  0.00  0.00    -0.270 OA
ATOM     40  N   UNL     1      21.366  17.470  -3.382  0.00  0.00    -0.325 N 
ATOM     41  H   UNL     1      21.110  18.205  -4.030  0.00  0.00    +0.145 HD
ATOM     42  H   UNL     1      21.822  17.735  -2.521  0.00  0.00    +0.145 HD
ENDBRANCH  33  38
ENDBRANCH  30  32
ENDBRANCH  26  28
ENDBRANCH  25  26
ENDBRANCH  24  25
ENDBRANCH   1  24
TORSDOF 12
