REMARK VINA RESULT:    -6.897      0.000      0.000
REMARK INTER + INTRA:         -14.392
REMARK INTER:                 -12.839
REMARK INTRA:                  -1.553
REMARK UNBOUND:                -2.657
REMARK  Name = lig_assembled_46.pdb
REMARK  12 active torsions:
REMARK  status: ('A' for Active; 'I' for Inactive)
REMARK    1  A    between atoms: _2  and  _8
REMARK    2  A    between atoms: _5  and  _6
REMARK    3  A    between atoms: _5  and  _14
REMARK    4  A    between atoms: _8  and  _9
REMARK    5  A    between atoms: _14  and  _16
REMARK    6  A    between atoms: _15  and  _20
REMARK    7  A    between atoms: _16  and  _19
REMARK    8  A    between atoms: _24  and  _34
REMARK    9  A    between atoms: _26  and  _27
REMARK   10  A    between atoms: _28  and  _30
REMARK   11  A    between atoms: _30  and  _32
REMARK   12  A    between atoms: _32  and  _34
REMARK                            x       y       z     vdW  Elec       q    Type
REMARK                         _______ _______ _______ _____ _____    ______ ____
ROOT
ATOM      1  C   UNL     1      27.558  17.285  -1.631  0.00  0.00    +0.400 C 
ATOM      2  N   UNL     1      27.824  16.060  -1.065  0.00  0.00    -0.278 N 
ATOM      3  H   UNL     1      28.125  16.309  -0.070  0.00  0.00    +0.152 HD
ATOM      4  O   UNL     1      27.538  18.270  -0.898  0.00  0.00    -0.226 OA
ENDROOT
BRANCH   2   5
ATOM      5  C   UNL     1      27.864  14.607  -1.205  0.00  0.00    +0.152 C 
BRANCH   5   6
ATOM      6  C   UNL     1      28.816  13.859  -0.249  0.00  0.00    +0.193 C 
ATOM      7  O   UNL     1      28.654  12.449  -0.522  0.00  0.00    -0.219 OA
BRANCH   6   8
ATOM      8  C   UNL     1      30.332  14.110  -0.409  0.00  0.00    +0.212 C 
ATOM      9  O   UNL     1      30.607  15.520  -0.431  0.00  0.00    -0.218 OA
BRANCH   8  10
ATOM     10  C   UNL     1      31.198  13.445   0.729  0.00  0.00    +0.171 C 
ATOM     11  O   UNL     1      30.764  13.813   2.034  0.00  0.00    -0.343 OA
ATOM     12  C   UNL     1      31.488  13.570   3.203  0.00  0.00    +0.220 C 
ATOM     13  C   UNL     1      32.944  14.054   3.083  0.00  0.00    +0.076 C 
ATOM     14  C   UNL     1      33.537  13.425   1.811  0.00  0.00    +0.177 C 
ATOM     15  O   UNL     1      34.898  13.808   1.674  0.00  0.00    -0.221 OA
ATOM     16  C   UNL     1      32.700  13.845   0.563  0.00  0.00    +0.155 C 
BRANCH  16  17
ATOM     17  N   UNL     1      33.265  13.255  -0.648  0.00  0.00    -0.202 NA
ATOM     18  C   UNL     1      33.722  13.857  -1.775  0.00  0.00    +0.242 C 
ATOM     19  C   UNL     1      34.523  13.035  -2.751  0.00  0.00    +0.096 C 
ATOM     20  O   UNL     1      33.476  15.045  -1.972  0.00  0.00    -0.273 OA
ENDBRANCH  16  17
BRANCH  12  21
ATOM     21  C   UNL     1      31.411  12.027   3.703  0.00  0.00    +0.391 C 
ATOM     22  O   UNL     1      32.381  11.914   4.632  0.00  0.00    -0.243 OA
ATOM     23  O   UNL     1      30.251  11.546   3.241  0.00  0.00    -0.243 OA
ENDBRANCH  12  21
ENDBRANCH   8  10
ENDBRANCH   6   8
ENDBRANCH   5   6
ENDBRANCH   2   5
BRANCH   1  24
ATOM     24  O   UNL     1      27.381  17.283  -2.912  0.00  0.00    -0.450 OA
BRANCH  24  25
ATOM     25  C   UNL     1      26.338  17.130  -3.846  0.00  0.00    +0.240 C 
BRANCH  25  26
ATOM     26  C   UNL     1      26.066  15.712  -4.383  0.00  0.00    +0.100 C 
BRANCH  26  28
ATOM     27  N   UNL     1      24.023  14.417  -4.913  0.00  0.00    -0.134 NA
ATOM     28  C   UNL     1      24.671  15.318  -4.110  0.00  0.00    +0.086 A 
ATOM     29  C   UNL     1      23.830  15.692  -3.085  0.00  0.00    +0.134 A 
ATOM     30  N   UNL     1      22.707  14.941  -3.286  0.00  0.00    -0.247 N 
ATOM     31  N   UNL     1      22.824  14.186  -4.396  0.00  0.00    -0.065 NA
BRANCH  30  32
ATOM     32  C   UNL     1      21.620  14.707  -2.352  0.00  0.00    +0.180 C 
BRANCH  32  33
ATOM     33  C   UNL     1      21.884  13.582  -1.382  0.00  0.00    -0.026 A 
ATOM     34  C   UNL     1      23.180  13.079  -1.195  0.00  0.00    +0.005 A 
ATOM     35  C   UNL     1      23.430  12.104  -0.225  0.00  0.00    +0.000 A 
ATOM     36  C   UNL     1      22.389  11.624   0.568  0.00  0.00    +0.000 A 
ATOM     37  C   UNL     1      21.097  12.109   0.387  0.00  0.00    +0.000 A 
ATOM     38  C   UNL     1      20.844  13.084  -0.581  0.00  0.00    +0.005 A 
ENDBRANCH  32  33
ENDBRANCH  30  32
ENDBRANCH  26  28
ENDBRANCH  25  26
ENDBRANCH  24  25
ENDBRANCH   1  24
TORSDOF 12
