REMARK VINA RESULT:    -6.444      0.000      0.000
REMARK INTER + INTRA:         -13.628
REMARK INTER:                 -11.830
REMARK INTRA:                  -1.798
REMARK UNBOUND:                -2.287
REMARK  Name = lig_assembled_67.pdb
REMARK  13 active torsions:
REMARK  status: ('A' for Active; 'I' for Inactive)
REMARK    1  A    between atoms: _2  and  _8
REMARK    2  A    between atoms: _5  and  _6
REMARK    3  A    between atoms: _5  and  _14
REMARK    4  A    between atoms: _8  and  _9
REMARK    5  A    between atoms: _9  and  _10
REMARK    6  A    between atoms: _14  and  _16
REMARK    7  A    between atoms: _15  and  _20
REMARK    8  A    between atoms: _16  and  _19
REMARK    9  A    between atoms: _24  and  _34
REMARK   10  A    between atoms: _26  and  _27
REMARK   11  A    between atoms: _28  and  _30
REMARK   12  A    between atoms: _30  and  _32
REMARK   13  A    between atoms: _32  and  _34
REMARK                            x       y       z     vdW  Elec       q    Type
REMARK                         _______ _______ _______ _____ _____    ______ ____
ROOT
ATOM      1  C   UNL     1      27.625  17.431  -1.593  0.00  0.00    +0.400 C 
ATOM      2  N   UNL     1      28.021  16.282  -0.948  0.00  0.00    -0.278 N 
ATOM      3  H   UNL     1      28.288  16.626   0.028  0.00  0.00    +0.152 HD
ATOM      4  O   UNL     1      27.493  18.453  -0.925  0.00  0.00    -0.226 OA
ENDROOT
BRANCH   2   5
ATOM      5  C   UNL     1      28.223  14.836  -0.994  0.00  0.00    +0.152 C 
BRANCH   5   6
ATOM      6  C   UNL     1      29.178  14.250   0.066  0.00  0.00    +0.193 C 
ATOM      7  O   UNL     1      29.311  12.842  -0.229  0.00  0.00    -0.219 OA
BRANCH   6   8
ATOM      8  C   UNL     1      30.630  14.777   0.089  0.00  0.00    +0.212 C 
ATOM      9  O   UNL     1      30.659  16.150   0.512  0.00  0.00    -0.218 OA
BRANCH   8  10
ATOM     10  C   UNL     1      31.583  13.940   1.026  0.00  0.00    +0.171 C 
ATOM     11  O   UNL     1      31.762  14.544   2.303  0.00  0.00    -0.343 OA
ATOM     12  C   UNL     1      32.732  14.153   3.230  0.00  0.00    +0.220 C 
ATOM     13  C   UNL     1      34.130  14.074   2.593  0.00  0.00    +0.076 C 
ATOM     14  C   UNL     1      34.022  13.174   1.351  0.00  0.00    +0.177 C 
ATOM     15  O   UNL     1      35.300  13.033   0.746  0.00  0.00    -0.221 OA
ATOM     16  C   UNL     1      32.981  13.763   0.349  0.00  0.00    +0.155 C 
BRANCH  16  17
ATOM     17  N   UNL     1      32.881  12.914  -0.835  0.00  0.00    -0.202 NA
ATOM     18  C   UNL     1      33.057  13.227  -2.144  0.00  0.00    +0.242 C 
ATOM     19  C   UNL     1      33.185  12.102  -3.138  0.00  0.00    +0.096 C 
ATOM     20  O   UNL     1      33.108  14.407  -2.485  0.00  0.00    -0.273 OA
ENDBRANCH  16  17
BRANCH  12  21
ATOM     21  C   UNL     1      32.357  12.785   4.021  0.00  0.00    +0.391 C 
ATOM     22  O   UNL     1      33.506  12.395   4.606  0.00  0.00    -0.243 OA
ATOM     23  O   UNL     1      31.020  12.726   4.046  0.00  0.00    -0.243 OA
ENDBRANCH  12  21
ENDBRANCH   8  10
ENDBRANCH   6   8
ENDBRANCH   5   6
ENDBRANCH   2   5
BRANCH   1  24
ATOM     24  O   UNL     1      27.457  17.326  -2.870  0.00  0.00    -0.450 OA
BRANCH  24  25
ATOM     25  C   UNL     1      26.408  17.232  -3.805  0.00  0.00    +0.240 C 
BRANCH  25  26
ATOM     26  C   UNL     1      26.162  15.859  -4.461  0.00  0.00    +0.100 C 
BRANCH  26  28
ATOM     27  N   UNL     1      24.145  14.427  -4.519  0.00  0.00    -0.134 NA
ATOM     28  C   UNL     1      25.046  15.163  -3.794  0.00  0.00    +0.086 A 
ATOM     29  C   UNL     1      24.705  15.106  -2.462  0.00  0.00    +0.133 A 
ATOM     30  N   UNL     1      23.589  14.325  -2.442  0.00  0.00    -0.251 N 
ATOM     31  N   UNL     1      23.252  13.920  -3.677  0.00  0.00    -0.065 NA
BRANCH  30  32
ATOM     32  C   UNL     1      22.804  13.914  -1.299  0.00  0.00    +0.150 C 
BRANCH  32  33
ATOM     33  C   UNL     1      21.469  13.273  -1.672  0.00  0.00    +0.084 C 
BRANCH  33  34
ATOM     34  C   UNL     1      21.152  12.051  -0.822  0.00  0.00    +0.252 C 
ATOM     35  O   UNL     1      22.280  11.170  -0.785  0.00  0.00    -0.349 OA
ATOM     36  C   UNL     1      22.150  10.529   0.482  0.00  0.00    +0.191 C 
ATOM     37  C   UNL     1      21.611  11.622   1.371  0.00  0.00    +0.191 C 
ATOM     38  O   UNL     1      20.818  12.445   0.514  0.00  0.00    -0.349 OA
ENDBRANCH  33  34
ENDBRANCH  32  33
ENDBRANCH  30  32
ENDBRANCH  26  28
ENDBRANCH  25  26
ENDBRANCH  24  25
ENDBRANCH   1  24
TORSDOF 13
