REMARK VINA RESULT:    -7.006      0.000      0.000
REMARK INTER + INTRA:         -15.439
REMARK INTER:                 -13.190
REMARK INTRA:                  -2.249
REMARK UNBOUND:                -1.675
REMARK  Name = lig_assembled_33.pdb
REMARK  17 active torsions:
REMARK  status: ('A' for Active; 'I' for Inactive)
REMARK    1  A    between atoms: _2  and  _8
REMARK    2  A    between atoms: _4  and  _12
REMARK    3  A    between atoms: _4  and  _13
REMARK    4  A    between atoms: _5  and  _6
REMARK    5  A    between atoms: _5  and  _15
REMARK    6  A    between atoms: _8  and  _9
REMARK    7  A    between atoms: _9  and  _10
REMARK    8  A    between atoms: _10  and  _11
REMARK    9  A    between atoms: _11  and  _12
REMARK   10  A    between atoms: _15  and  _17
REMARK   11  A    between atoms: _16  and  _21
REMARK   12  A    between atoms: _17  and  _20
REMARK   13  A    between atoms: _25  and  _35
REMARK   14  A    between atoms: _27  and  _28
REMARK   15  A    between atoms: _29  and  _31
REMARK   16  A    between atoms: _31  and  _33
REMARK   17  A    between atoms: _33  and  _35
REMARK                            x       y       z     vdW  Elec       q    Type
REMARK                         _______ _______ _______ _____ _____    ______ ____
ROOT
ATOM      1  C   UNL     1      28.324  17.566  -0.497  0.00  0.00    +0.400 C 
ATOM      2  N   UNL     1      29.539  17.475   0.142  0.00  0.00    -0.278 N 
ATOM      3  H   UNL     1      29.524  18.302   0.820  0.00  0.00    +0.152 HD
ATOM      4  O   UNL     1      27.500  18.368  -0.063  0.00  0.00    -0.226 OA
ENDROOT
BRANCH   1   5
ATOM      5  O   UNL     1      28.178  16.805  -1.531  0.00  0.00    -0.450 OA
BRANCH   5   6
ATOM      6  C   UNL     1      27.183  16.450  -2.463  0.00  0.00    +0.240 C 
BRANCH   6   7
ATOM      7  C   UNL     1      26.845  14.953  -2.607  0.00  0.00    +0.100 C 
BRANCH   7   9
ATOM      8  N   UNL     1      24.534  15.778  -2.917  0.00  0.00    -0.134 NA
ATOM      9  C   UNL     1      25.384  14.753  -2.596  0.00  0.00    +0.086 A 
ATOM     10  C   UNL     1      24.644  13.631  -2.293  0.00  0.00    +0.133 A 
ATOM     11  N   UNL     1      23.354  14.038  -2.456  0.00  0.00    -0.251 N 
ATOM     12  N   UNL     1      23.290  15.332  -2.813  0.00  0.00    -0.065 NA
BRANCH  11  13
ATOM     13  C   UNL     1      22.141  13.266  -2.279  0.00  0.00    +0.145 C 
BRANCH  13  14
ATOM     14  C   UNL     1      21.016  14.099  -1.667  0.00  0.00    +0.023 C 
BRANCH  14  15
ATOM     15  C   UNL     1      20.483  13.501  -0.363  0.00  0.00    +0.002 C 
BRANCH  15  16
ATOM     16  C   UNL     1      21.133  12.138  -0.111  0.00  0.00    +0.011 C 
BRANCH  16  17
ATOM     17  C   UNL     1      21.471  11.905   1.359  0.00  0.00    +0.120 C 
BRANCH  17  18
ATOM     18  C   UNL     1      22.866  11.345   1.519  0.00  0.00    +0.305 C 
ATOM     19  O   UNL     1      23.597  10.994   0.606  0.00  0.00    -0.251 OA
BRANCH  18  20
ATOM     20  O   UNL     1      23.247  11.270   2.816  0.00  0.00    -0.481 OA
ATOM     21  H   UNL     1      22.745  10.617   3.337  0.00  0.00    +0.295 HD
ENDBRANCH  18  20
ENDBRANCH  17  18
ENDBRANCH  16  17
ENDBRANCH  15  16
ENDBRANCH  14  15
ENDBRANCH  13  14
ENDBRANCH  11  13
ENDBRANCH   7   9
ENDBRANCH   6   7
ENDBRANCH   5   6
ENDBRANCH   1   5
BRANCH   2  22
ATOM     22  C   UNL     1      30.803  16.765   0.316  0.00  0.00    +0.152 C 
BRANCH  22  23
ATOM     23  C   UNL     1      30.753  15.234   0.134  0.00  0.00    +0.193 C 
ATOM     24  O   UNL     1      31.722  14.905  -0.886  0.00  0.00    -0.219 OA
BRANCH  23  25
ATOM     25  C   UNL     1      31.152  14.357   1.341  0.00  0.00    +0.212 C 
ATOM     26  O   UNL     1      31.437  15.178   2.485  0.00  0.00    -0.218 OA
BRANCH  25  27
ATOM     27  C   UNL     1      30.049  13.303   1.739  0.00  0.00    +0.171 C 
ATOM     28  O   UNL     1      28.831  13.914   2.152  0.00  0.00    -0.343 OA
ATOM     29  C   UNL     1      27.784  13.237   2.782  0.00  0.00    +0.220 C 
ATOM     30  C   UNL     1      28.279  12.412   3.982  0.00  0.00    +0.076 C 
ATOM     31  C   UNL     1      29.424  11.514   3.486  0.00  0.00    +0.177 C 
ATOM     32  O   UNL     1      29.892  10.699   4.551  0.00  0.00    -0.221 OA
ATOM     33  C   UNL     1      30.573  12.387   2.893  0.00  0.00    +0.155 C 
BRANCH  33  34
ATOM     34  N   UNL     1      31.666  11.538   2.427  0.00  0.00    -0.202 NA
ATOM     35  C   UNL     1      32.971  11.520   2.801  0.00  0.00    +0.242 C 
ATOM     36  C   UNL     1      33.820  10.349   2.379  0.00  0.00    +0.096 C 
ATOM     37  O   UNL     1      33.425  12.448   3.468  0.00  0.00    -0.273 OA
ENDBRANCH  33  34
BRANCH  29  38
ATOM     38  C   UNL     1      26.892  12.337   1.765  0.00  0.00    +0.391 C 
ATOM     39  O   UNL     1      26.224  11.477   2.558  0.00  0.00    -0.243 OA
ATOM     40  O   UNL     1      26.921  12.971   0.587  0.00  0.00    -0.243 OA
ENDBRANCH  29  38
ENDBRANCH  25  27
ENDBRANCH  23  25
ENDBRANCH  22  23
ENDBRANCH   2  22
TORSDOF 17
