REMARK VINA RESULT:    -8.321      0.000      0.000
REMARK INTER + INTRA:         -14.737
REMARK INTER:                 -13.059
REMARK INTRA:                  -1.678
REMARK UNBOUND:                -1.064
REMARK  Name = lig_assembled_27.pdb
REMARK  11 active torsions:
REMARK  status: ('A' for Active; 'I' for Inactive)
REMARK    1  A    between atoms: _2  and  _8
REMARK    2  A    between atoms: _5  and  _6
REMARK    3  A    between atoms: _5  and  _13
REMARK    4  A    between atoms: _13  and  _15
REMARK    5  A    between atoms: _14  and  _19
REMARK    6  A    between atoms: _15  and  _18
REMARK    7  A    between atoms: _23  and  _33
REMARK    8  A    between atoms: _25  and  _26
REMARK    9  A    between atoms: _27  and  _29
REMARK   10  A    between atoms: _29  and  _31
REMARK   11  A    between atoms: _31  and  _33
REMARK                            x       y       z     vdW  Elec       q    Type
REMARK                         _______ _______ _______ _____ _____    ______ ____
ROOT
ATOM      1  C   UNL     1      27.973  17.262  -0.968  0.00  0.00    +0.400 C 
ATOM      2  N   UNL     1      28.387  16.211  -0.185  0.00  0.00    -0.278 N 
ATOM      3  H   UNL     1      28.678  16.682   0.729  0.00  0.00    +0.152 HD
ATOM      4  O   UNL     1      27.857  18.366  -0.441  0.00  0.00    -0.226 OA
ENDROOT
BRANCH   1   5
ATOM      5  O   UNL     1      27.773  16.987  -2.215  0.00  0.00    -0.450 OA
BRANCH   5   6
ATOM      6  C   UNL     1      26.935  17.384  -3.276  0.00  0.00    +0.240 C 
BRANCH   6   7
ATOM      7  C   UNL     1      26.376  16.280  -4.192  0.00  0.00    +0.100 C 
BRANCH   7   9
ATOM      8  N   UNL     1      26.227  14.094  -3.040  0.00  0.00    -0.134 NA
ATOM      9  C   UNL     1      25.645  15.276  -3.398  0.00  0.00    +0.086 A 
ATOM     10  C   UNL     1      24.363  15.313  -2.899  0.00  0.00    +0.139 A 
ATOM     11  N   UNL     1      24.205  14.121  -2.229  0.00  0.00    -0.220 N 
ATOM     12  N   UNL     1      25.348  13.398  -2.332  0.00  0.00    -0.061 NA
BRANCH  11  13
ATOM     13  C   UNL     1      23.074  13.644  -1.518  0.00  0.00    +0.068 A 
ATOM     14  C   UNL     1      21.828  14.265  -1.699  0.00  0.00    +0.028 A 
ATOM     15  C   UNL     1      20.707  13.807  -1.002  0.00  0.00    +0.003 A 
ATOM     16  C   UNL     1      20.822  12.731  -0.121  0.00  0.00    +0.020 A 
ATOM     17  C   UNL     1      22.058  12.115   0.056  0.00  0.00    +0.043 A 
ATOM     18 CL   UNL     1      22.200  10.786   1.141  0.00  0.00    -0.083 Cl
ATOM     19  C   UNL     1      23.186  12.561  -0.635  0.00  0.00    +0.047 A 
ENDBRANCH  11  13
ENDBRANCH   7   9
ENDBRANCH   6   7
ENDBRANCH   5   6
ENDBRANCH   1   5
BRANCH   2  20
ATOM     20  C   UNL     1      28.589  14.771  -0.040  0.00  0.00    +0.152 C 
BRANCH  20  21
ATOM     21  C   UNL     1      29.650  14.334   0.991  0.00  0.00    +0.193 C 
ATOM     22  O   UNL     1      29.816  12.908   0.837  0.00  0.00    -0.219 OA
BRANCH  21  23
ATOM     23  C   UNL     1      31.076  14.907   0.837  0.00  0.00    +0.212 C 
ATOM     24  O   UNL     1      31.133  16.253   1.336  0.00  0.00    -0.218 OA
BRANCH  23  25
ATOM     25  C   UNL     1      32.176  14.050   1.572  0.00  0.00    +0.171 C 
ATOM     26  O   UNL     1      32.611  14.645   2.790  0.00  0.00    -0.343 OA
ATOM     27  C   UNL     1      33.734  14.234   3.511  0.00  0.00    +0.220 C 
ATOM     28  C   UNL     1      34.981  14.130   2.616  0.00  0.00    +0.076 C 
ATOM     29  C   UNL     1      34.617  13.236   1.418  0.00  0.00    +0.177 C 
ATOM     30  O   UNL     1      35.750  13.074   0.577  0.00  0.00    -0.221 OA
ATOM     31  C   UNL     1      33.413  13.848   0.637  0.00  0.00    +0.155 C 
BRANCH  31  32
ATOM     32  N   UNL     1      33.069  13.006  -0.506  0.00  0.00    -0.202 NA
ATOM     33  C   UNL     1      33.031  13.310  -1.828  0.00  0.00    +0.242 C 
ATOM     34  C   UNL     1      32.932  12.180  -2.819  0.00  0.00    +0.096 C 
ATOM     35  O   UNL     1      33.080  14.486  -2.183  0.00  0.00    -0.273 OA
ENDBRANCH  31  32
BRANCH  27  36
ATOM     36  C   UNL     1      33.493  12.869   4.360  0.00  0.00    +0.391 C 
ATOM     37  O   UNL     1      34.718  12.507   4.789  0.00  0.00    -0.243 OA
ATOM     38  O   UNL     1      32.173  12.789   4.565  0.00  0.00    -0.243 OA
ENDBRANCH  27  36
ENDBRANCH  23  25
ENDBRANCH  21  23
ENDBRANCH  20  21
ENDBRANCH   2  20
TORSDOF 11
