REMARK VINA RESULT:    -8.502      0.000      0.000
REMARK INTER + INTRA:         -15.970
REMARK INTER:                 -13.974
REMARK INTRA:                  -1.996
REMARK UNBOUND:                -1.503
REMARK  Name = lig_assembled_89.pdb
REMARK  14 active torsions:
REMARK  status: ('A' for Active; 'I' for Inactive)
REMARK    1  A    between atoms: _2  and  _11
REMARK    2  A    between atoms: _5  and  _19
REMARK    3  A    between atoms: _8  and  _9
REMARK    4  A    between atoms: _8  and  _24
REMARK    5  A    between atoms: _19  and  _20
REMARK    6  A    between atoms: _19  and  _21
REMARK    7  A    between atoms: _24  and  _26
REMARK    8  A    between atoms: _25  and  _30
REMARK    9  A    between atoms: _26  and  _29
REMARK   10  A    between atoms: _34  and  _44
REMARK   11  A    between atoms: _36  and  _37
REMARK   12  A    between atoms: _38  and  _40
REMARK   13  A    between atoms: _40  and  _42
REMARK   14  A    between atoms: _42  and  _44
REMARK                            x       y       z     vdW  Elec       q    Type
REMARK                         _______ _______ _______ _____ _____    ______ ____
ROOT
ATOM      1  C   UNL     1      26.891  17.565  -3.012  0.00  0.00    +0.240 C 
ENDROOT
BRANCH   1   2
ATOM      2  C   UNL     1      26.704  16.633  -4.224  0.00  0.00    +0.100 C 
BRANCH   2   4
ATOM      3  N   UNL     1      25.179  14.818  -4.904  0.00  0.00    -0.134 NA
ATOM      4  C   UNL     1      25.712  15.589  -3.914  0.00  0.00    +0.087 A 
ATOM      5  C   UNL     1      25.187  15.193  -2.707  0.00  0.00    +0.141 A 
ATOM      6  N   UNL     1      24.342  14.142  -3.006  0.00  0.00    -0.200 N 
ATOM      7  N   UNL     1      24.357  13.942  -4.345  0.00  0.00    -0.059 NA
BRANCH   6   8
ATOM      8  C   UNL     1      23.646  13.337  -2.057  0.00  0.00    +0.186 A 
ATOM      9  C   UNL     1      24.136  12.605  -0.995  0.00  0.00    +0.158 A 
ATOM     10  C   UNL     1      25.458  12.285  -0.552  0.00  0.00    +0.280 A 
ATOM     11  O   UNL     1      26.432  12.357  -1.289  0.00  0.00    -0.265 OA
ATOM     12  N   UNL     1      25.554  11.849   0.786  0.00  0.00    -0.302 N 
ATOM     13  C   UNL     1      24.389  11.329   1.466  0.00  0.00    +0.069 A 
ATOM     14  C   UNL     1      24.469  10.631   2.680  0.00  0.00    +0.028 A 
ATOM     15  C   UNL     1      23.324  10.095   3.286  0.00  0.00    +0.002 A 
ATOM     16  C   UNL     1      22.073  10.255   2.699  0.00  0.00    +0.002 A 
ATOM     17  C   UNL     1      21.956  10.953   1.500  0.00  0.00    +0.028 A 
ATOM     18  C   UNL     1      23.107  11.473   0.891  0.00  0.00    +0.072 A 
ATOM     19  N   UNL     1      23.024  12.176  -0.322  0.00  0.00    -0.291 N 
ATOM     20  C   UNL     1      21.929  12.562  -1.052  0.00  0.00    +0.207 A 
ATOM     21  N   UNL     1      22.267  13.277  -2.103  0.00  0.00    -0.216 NA
BRANCH  12  22
ATOM     22  C   UNL     1      26.905  11.748   1.386  0.00  0.00    +0.085 C 
ATOM     23  C   UNL     1      27.429  10.304   1.498  0.00  0.00    +0.030 C 
ATOM     24  C   UNL     1      26.976  12.450   2.743  0.00  0.00    +0.030 C 
ENDBRANCH  12  22
ENDBRANCH   6   8
ENDBRANCH   2   4
ENDBRANCH   1   2
BRANCH   1  25
ATOM     25  O   UNL     1      27.833  17.184  -2.037  0.00  0.00    -0.450 OA
BRANCH  25  26
ATOM     26  C   UNL     1      28.028  17.299  -0.765  0.00  0.00    +0.400 C 
ATOM     27  N   UNL     1      28.446  16.158  -0.121  0.00  0.00    -0.278 N 
ATOM     28  H   UNL     1      28.731  16.511   0.847  0.00  0.00    +0.152 HD
ATOM     29  O   UNL     1      27.904  18.326  -0.102  0.00  0.00    -0.226 OA
BRANCH  27  30
ATOM     30  C   UNL     1      28.656  14.713  -0.160  0.00  0.00    +0.152 C 
BRANCH  30  31
ATOM     31  C   UNL     1      29.714  14.153   0.813  0.00  0.00    +0.193 C 
ATOM     32  O   UNL     1      29.958  12.785   0.419  0.00  0.00    -0.219 OA
BRANCH  31  33
ATOM     33  C   UNL     1      31.111  14.811   0.807  0.00  0.00    +0.212 C 
ATOM     34  O   UNL     1      31.048  16.129   1.377  0.00  0.00    -0.218 OA
BRANCH  33  35
ATOM     35  C   UNL     1      32.198  13.977   1.586  0.00  0.00    +0.171 C 
ATOM     36  O   UNL     1      32.565  14.577   2.824  0.00  0.00    -0.343 OA
ATOM     37  C   UNL     1      33.666  14.189   3.592  0.00  0.00    +0.220 C 
ATOM     38  C   UNL     1      34.952  14.118   2.751  0.00  0.00    +0.076 C 
ATOM     39  C   UNL     1      34.662  13.221   1.536  0.00  0.00    +0.177 C 
ATOM     40  O   UNL     1      35.834  13.089   0.744  0.00  0.00    -0.221 OA
ATOM     41  C   UNL     1      33.479  13.808   0.705  0.00  0.00    +0.155 C 
BRANCH  41  42
ATOM     42  N   UNL     1      33.204  12.963  -0.454  0.00  0.00    -0.202 NA
ATOM     43  C   UNL     1      33.141  13.289  -1.770  0.00  0.00    +0.242 C 
ATOM     44  C   UNL     1      33.134  12.174  -2.784  0.00  0.00    +0.096 C 
ATOM     45  O   UNL     1      33.092  14.471  -2.102  0.00  0.00    -0.273 OA
ENDBRANCH  41  42
BRANCH  37  46
ATOM     46  C   UNL     1      33.421  12.816   4.425  0.00  0.00    +0.391 C 
ATOM     47  O   UNL     1      34.642  12.452   4.862  0.00  0.00    -0.243 OA
ATOM     48  O   UNL     1      32.098  12.730   4.617  0.00  0.00    -0.243 OA
ENDBRANCH  37  46
ENDBRANCH  33  35
ENDBRANCH  31  33
ENDBRANCH  30  31
ENDBRANCH  27  30
ENDBRANCH  25  26
ENDBRANCH   1  25
TORSDOF 12
