REMARK SMILES CC(=O)N[C@@H]1[C@@H](O)C[C@](O)(C(=O)O)O[C@H]1C(O)[C@H](O)CNC(=O)OCc1cn([C@@H](CCC(=O)O)C(=O)O)nn1
REMARK SMILES IDX 24 1 22 2 21 3 23 5 20 6 18 7 16 8 15 9 9 10 8 11 14 12 6 13
REMARK SMILES IDX 5 14 10 15 11 17 12 18 13 19 7 21 4 23 2 24 1 26 3 27 17 28
REMARK SMILES IDX 19 30 25 32 26 33 27 34 39 35 28 36 38 37 29 38 30 39 31 40
REMARK SMILES IDX 32 41 33 42 34 43 35 45 36 46 37 47
REMARK H PARENT 21 4 10 16 13 20 7 22 4 25 17 29 19 31 34 44 37 48
REMARK Flexibility Score: inf
ROOT
ATOM      1  O   UNL     1       2.422  -0.296   0.423  1.00  0.00    -0.443 OA
ENDROOT
BRANCH   1   2
ATOM      2  C   UNL     1       1.028  -0.193   0.337  1.00  0.00     0.407 C 
ATOM      3  N   UNL     1       0.317  -0.507  -0.830  1.00  0.00    -0.319 N 
ATOM      4  H   UNL     1       0.917  -0.823  -1.663  1.00  0.00     0.167 HD
ATOM      5  O   UNL     1       0.436   0.195   1.357  1.00  0.00    -0.225 OA
BRANCH   3   6
ATOM      6  C   UNL     1      -1.104  -0.449  -1.022  1.00  0.00     0.154 C 
BRANCH   6   7
ATOM      7  C   UNL     1      -1.816  -1.404  -0.147  1.00  0.00     0.165 C 
BRANCH   7   8
ATOM      8  C   UNL     1      -3.276  -1.586  -0.518  1.00  0.00     0.176 C 
BRANCH   8   9
ATOM      9  C   UNL     1      -4.076  -0.331  -0.156  1.00  0.00     0.178 C 
ATOM     10  C   UNL     1      -4.930  -0.641   2.001  1.00  0.00     0.269 C 
ATOM     11  C   UNL     1      -5.960  -1.500   1.324  1.00  0.00     0.112 C 
ATOM     12  O   UNL     1      -4.045  -0.032   1.166  1.00  0.00    -0.332 OA
ATOM     13  C   UNL     1      -6.483  -0.979   0.034  1.00  0.00     0.145 C 
ATOM     14  C   UNL     1      -5.424  -0.335  -0.813  1.00  0.00     0.142 C 
BRANCH  10  15
ATOM     15  O   UNL     1      -4.209  -1.493   2.839  1.00  0.00    -0.357 OA
ATOM     16  H   UNL     1      -3.487  -1.024   3.306  1.00  0.00     0.214 HD
ENDBRANCH  10  15
BRANCH  10  17
ATOM     17  C   UNL     1      -5.602   0.365   2.861  1.00  0.00     0.364 C 
ATOM     18  O   UNL     1      -5.453   0.327   4.105  1.00  0.00    -0.246 OA
BRANCH  17  19
ATOM     19  O   UNL     1      -6.408   1.369   2.332  1.00  0.00    -0.477 OA
ATOM     20  H   UNL     1      -6.503   2.212   2.899  1.00  0.00     0.296 HD
ENDBRANCH  17  19
ENDBRANCH  10  17
BRANCH  13  21
ATOM     21  O   UNL     1      -7.034  -2.049  -0.669  1.00  0.00    -0.391 OA
ATOM     22  H   UNL     1      -7.729  -2.513  -0.131  1.00  0.00     0.211 HD
ENDBRANCH  13  21
BRANCH  14  23
ATOM     23  N   UNL     1      -5.747   1.013  -1.180  1.00  0.00    -0.348 N 
ATOM     24  C   UNL     1      -5.858   1.359  -2.550  1.00  0.00     0.217 C 
ATOM     25  H   UNL     1      -5.902   1.749  -0.431  1.00  0.00     0.163 HD
ATOM     26  C   UNL     1      -6.190   2.747  -2.932  1.00  0.00     0.114 C 
ATOM     27  O   UNL     1      -5.682   0.520  -3.475  1.00  0.00    -0.275 OA
ENDBRANCH  14  23
ENDBRANCH   8   9
BRANCH   8  28
ATOM     28  O   UNL     1      -3.374  -1.813  -1.877  1.00  0.00    -0.388 OA
ATOM     29  H   UNL     1      -3.230  -2.778  -2.047  1.00  0.00     0.211 HD
ENDBRANCH   8  28
ENDBRANCH   7   8
BRANCH   7  30
ATOM     30  O   UNL     1      -1.621  -1.169   1.175  1.00  0.00    -0.388 OA
ATOM     31  H   UNL     1      -1.720  -1.949   1.766  1.00  0.00     0.211 HD
ENDBRANCH   7  30
ENDBRANCH   6   7
ENDBRANCH   3   6
ENDBRANCH   1   2
BRANCH   1  32
ATOM     32  C   UNL     1       3.078   0.042   1.642  1.00  0.00     0.294 C 
BRANCH  32  33
ATOM     33  C   UNL     1       4.522  -0.127   1.555  1.00  0.00     0.120 A 
ATOM     34  C   UNL     1       5.458   0.754   1.085  1.00  0.00     0.139 A 
ATOM     35  N   UNL     1       5.218  -1.210   1.934  1.00  0.00    -0.132 NA
ATOM     36  N   UNL     1       6.681   0.214   1.180  1.00  0.00    -0.238 N 
ATOM     37  N   UNL     1       6.499  -0.984   1.702  1.00  0.00    -0.066 NA
BRANCH  36  38
ATOM     38  C   UNL     1       7.988   0.734   0.819  1.00  0.00     0.219 C 
BRANCH  38  39
ATOM     39  C   UNL     1       8.755  -0.278   0.050  1.00  0.00     0.051 C 
BRANCH  39  40
ATOM     40  C   UNL     1       8.115  -0.788  -1.186  1.00  0.00     0.125 C 
BRANCH  40  41
ATOM     41  C   UNL     1       7.828   0.249  -2.175  1.00  0.00     0.303 C 
ATOM     42  O   UNL     1       6.679   0.809  -2.241  1.00  0.00    -0.252 OA
BRANCH  41  43
ATOM     43  O   UNL     1       8.819   0.646  -3.076  1.00  0.00    -0.481 OA
ATOM     44  H   UNL     1       8.707   1.546  -3.521  1.00  0.00     0.296 HD
ENDBRANCH  41  43
ENDBRANCH  40  41
ENDBRANCH  39  40
ENDBRANCH  38  39
BRANCH  38  45
ATOM     45  C   UNL     1       7.955   2.090   0.299  1.00  0.00     0.328 C 
ATOM     46  O   UNL     1       8.565   2.505  -0.685  1.00  0.00    -0.250 OA
BRANCH  45  47
ATOM     47  O   UNL     1       7.153   3.016   0.993  1.00  0.00    -0.480 OA
ATOM     48  H   UNL     1       7.099   3.959   0.649  1.00  0.00     0.296 HD
ENDBRANCH  45  47
ENDBRANCH  38  45
ENDBRANCH  36  38
ENDBRANCH  32  33
ENDBRANCH   1  32
TORSDOF 21
