REMARK SMILES CC(=O)N[C@@H]1[C@@H](O)C[C@](O)(C(=O)O)O[C@H]1C(O)[C@H](O)CNC(=O)OCc1cn(C2CCCCC2)nn1
REMARK SMILES IDX 20 1 18 2 16 3 15 4 9 5 8 6 14 7 6 8 5 9 10 10 11 12 12 13
REMARK SMILES IDX 13 14 7 16 4 18 2 19 1 21 3 22 17 23 19 25 21 27 22 28 23 30
REMARK SMILES IDX 24 31 25 32 26 33 27 34 36 35 28 36 35 37 29 38 30 39 34 40
REMARK SMILES IDX 31 41 33 42 32 43
REMARK H PARENT 10 11 13 15 7 17 4 20 17 24 19 26 21 29
REMARK Flexibility Score: inf
ROOT
ATOM      1  C   UNL     1      -0.467   0.569   2.331  1.00  0.00     0.154 C 
ENDROOT
BRANCH   1   2
ATOM      2  C   UNL     1      -1.723  -0.082   1.771  1.00  0.00     0.165 C 
BRANCH   2   3
ATOM      3  C   UNL     1      -2.496   0.987   1.062  1.00  0.00     0.176 C 
BRANCH   3   4
ATOM      4  C   UNL     1      -3.539   0.482   0.089  1.00  0.00     0.178 C 
ATOM      5  C   UNL     1      -5.007   2.226  -0.498  1.00  0.00     0.269 C 
ATOM      6  C   UNL     1      -6.215   1.343  -0.234  1.00  0.00     0.112 C 
ATOM      7  O   UNL     1      -3.944   1.442  -0.797  1.00  0.00    -0.332 OA
ATOM      8  C   UNL     1      -5.942   0.365   0.878  1.00  0.00     0.145 C 
ATOM      9  C   UNL     1      -4.617  -0.347   0.695  1.00  0.00     0.142 C 
BRANCH   5  10
ATOM     10  O   UNL     1      -4.816   3.128   0.547  1.00  0.00    -0.357 OA
ATOM     11  H   UNL     1      -5.713   3.290   0.980  1.00  0.00     0.214 HD
ENDBRANCH   5  10
BRANCH   5  12
ATOM     12  C   UNL     1      -5.352   3.006  -1.719  1.00  0.00     0.364 C 
ATOM     13  O   UNL     1      -5.571   2.413  -2.799  1.00  0.00    -0.246 OA
BRANCH  12  14
ATOM     14  O   UNL     1      -5.430   4.367  -1.657  1.00  0.00    -0.477 OA
ATOM     15  H   UNL     1      -5.446   4.981  -2.462  1.00  0.00     0.296 HD
ENDBRANCH  12  14
ENDBRANCH   5  12
BRANCH   8  16
ATOM     16  O   UNL     1      -6.030   0.981   2.119  1.00  0.00    -0.391 OA
ATOM     17  H   UNL     1      -5.651   0.393   2.817  1.00  0.00     0.211 HD
ENDBRANCH   8  16
BRANCH   9  18
ATOM     18  N   UNL     1      -4.839  -1.573  -0.075  1.00  0.00    -0.348 N 
ATOM     19  C   UNL     1      -4.649  -2.814   0.568  1.00  0.00     0.217 C 
ATOM     20  H   UNL     1      -5.130  -1.548  -1.071  1.00  0.00     0.163 HD
ATOM     21  C   UNL     1      -4.851  -4.120  -0.133  1.00  0.00     0.114 C 
ATOM     22  O   UNL     1      -4.294  -2.906   1.786  1.00  0.00    -0.275 OA
ENDBRANCH   9  18
ENDBRANCH   3   4
BRANCH   3  23
ATOM     23  O   UNL     1      -2.906   2.001   1.887  1.00  0.00    -0.388 OA
ATOM     24  H   UNL     1      -3.020   1.712   2.847  1.00  0.00     0.211 HD
ENDBRANCH   3  23
ENDBRANCH   2   3
BRANCH   2  25
ATOM     25  O   UNL     1      -2.378  -0.698   2.810  1.00  0.00    -0.388 OA
ATOM     26  H   UNL     1      -1.950  -1.546   3.006  1.00  0.00     0.211 HD
ENDBRANCH   2  25
ENDBRANCH   1   2
BRANCH   1  27
ATOM     27  N   UNL     1       0.223   1.225   1.245  1.00  0.00    -0.319 N 
ATOM     28  C   UNL     1       0.733   0.579   0.092  1.00  0.00     0.407 C 
ATOM     29  H   UNL     1       0.385   2.279   1.268  1.00  0.00     0.167 HD
ATOM     30  O   UNL     1       0.596  -0.662  -0.030  1.00  0.00    -0.225 OA
BRANCH  28  31
ATOM     31  O   UNL     1       1.385   1.290  -0.911  1.00  0.00    -0.443 OA
BRANCH  31  32
ATOM     32  C   UNL     1       1.877   0.612  -2.039  1.00  0.00     0.294 C 
BRANCH  32  33
ATOM     33  C   UNL     1       2.873  -0.392  -1.581  1.00  0.00     0.120 A 
ATOM     34  C   UNL     1       4.241  -0.167  -1.378  1.00  0.00     0.138 A 
ATOM     35  N   UNL     1       2.712  -1.692  -1.270  1.00  0.00    -0.132 NA
ATOM     36  N   UNL     1       4.826  -1.305  -0.966  1.00  0.00    -0.249 N 
ATOM     37  N   UNL     1       3.870  -2.216  -0.911  1.00  0.00    -0.067 NA
BRANCH  36  38
ATOM     38  C   UNL     1       6.234  -1.495  -0.646  1.00  0.00     0.109 C 
ATOM     39  C   UNL     1       7.062  -0.523  -1.457  1.00  0.00     0.027 C 
ATOM     40  C   UNL     1       6.473  -1.207   0.819  1.00  0.00     0.027 C 
ATOM     41  C   UNL     1       7.553   0.635  -0.609  1.00  0.00     0.002 C 
ATOM     42  C   UNL     1       7.978  -1.187   1.022  1.00  0.00     0.002 C 
ATOM     43  C   UNL     1       8.482   0.128   0.461  1.00  0.00     0.000 C 
ENDBRANCH  36  38
ENDBRANCH  32  33
ENDBRANCH  31  32
ENDBRANCH  28  31
ENDBRANCH   1  27
TORSDOF 15
