REMARK SMILES CC(=O)N[C@@H]1[C@@H](O)C[C@](O)(C(=O)O)O[C@H]1C(O)[C@H](O)CNC(=O)OCc1cn(-c2cc(Cl)ccc2C(=O)N(C)C)nn1
REMARK SMILES IDX 21 1 22 2 23 3 20 5 18 6 16 7 15 8 9 9 8 10 14 11 6 12 5 13
REMARK SMILES IDX 10 14 11 16 12 17 13 18 7 20 4 22 2 23 1 25 3 26 17 27 19 29
REMARK SMILES IDX 24 31 25 32 26 33 27 34 42 35 28 36 41 37 29 38 30 39 35 40
REMARK SMILES IDX 31 41 34 42 32 43 33 44 36 45 37 46 38 47 39 48 40 49
REMARK H PARENT 21 4 10 15 13 19 7 21 4 24 17 28 19 30
REMARK Flexibility Score: inf
ROOT
ATOM      1  N   UNL     1      -0.808   0.080   1.559  1.00  0.00    -0.319 N 
ATOM      2  C   UNL     1      -0.067   0.456   0.428  1.00  0.00     0.407 C 
ATOM      3  O   UNL     1      -0.646   0.715  -0.646  1.00  0.00    -0.225 OA
ATOM      4  H   UNL     1      -0.313  -0.131   2.455  1.00  0.00     0.167 HD
ENDROOT
BRANCH   1   5
ATOM      5  C   UNL     1      -2.243  -0.030   1.543  1.00  0.00     0.154 C 
BRANCH   5   6
ATOM      6  C   UNL     1      -2.664  -1.084   0.551  1.00  0.00     0.165 C 
BRANCH   6   7
ATOM      7  C   UNL     1      -4.153  -1.320   0.552  1.00  0.00     0.176 C 
BRANCH   7   8
ATOM      8  C   UNL     1      -4.872  -0.171  -0.046  1.00  0.00     0.178 C 
ATOM      9  C   UNL     1      -5.261   2.089  -0.053  1.00  0.00     0.269 C 
ATOM     10  C   UNL     1      -5.884   1.732  -1.379  1.00  0.00     0.112 C 
ATOM     11  O   UNL     1      -4.825   1.010   0.675  1.00  0.00    -0.332 OA
ATOM     12  C   UNL     1      -6.817   0.569  -1.300  1.00  0.00     0.145 C 
ATOM     13  C   UNL     1      -6.352  -0.471  -0.285  1.00  0.00     0.142 C 
BRANCH   9  14
ATOM     14  O   UNL     1      -6.251   2.718   0.723  1.00  0.00    -0.357 OA
ATOM     15  H   UNL     1      -6.593   3.473   0.154  1.00  0.00     0.214 HD
ENDBRANCH   9  14
BRANCH   9  16
ATOM     16  C   UNL     1      -4.138   3.018  -0.219  1.00  0.00     0.364 C 
ATOM     17  O   UNL     1      -4.191   4.157   0.305  1.00  0.00    -0.246 OA
BRANCH  16  18
ATOM     18  O   UNL     1      -2.987   2.724  -0.933  1.00  0.00    -0.477 OA
ATOM     19  H   UNL     1      -2.581   3.492  -1.490  1.00  0.00     0.296 HD
ENDBRANCH  16  18
ENDBRANCH   9  16
BRANCH  12  20
ATOM     20  O   UNL     1      -8.097   1.051  -0.960  1.00  0.00    -0.391 OA
ATOM     21  H   UNL     1      -8.103   1.111   0.033  1.00  0.00     0.211 HD
ENDBRANCH  12  20
BRANCH  13  22
ATOM     22  N   UNL     1      -6.568  -1.804  -0.733  1.00  0.00    -0.348 N 
ATOM     23  C   UNL     1      -7.375  -2.692   0.022  1.00  0.00     0.217 C 
ATOM     24  H   UNL     1      -6.146  -2.155  -1.614  1.00  0.00     0.163 HD
ATOM     25  C   UNL     1      -7.574  -4.089  -0.493  1.00  0.00     0.114 C 
ATOM     26  O   UNL     1      -7.933  -2.387   1.091  1.00  0.00    -0.275 OA
ENDBRANCH  13  22
ENDBRANCH   7   8
BRANCH   7  27
ATOM     27  O   UNL     1      -4.564  -1.699   1.805  1.00  0.00    -0.388 OA
ATOM     28  H   UNL     1      -3.833  -2.274   2.197  1.00  0.00     0.211 HD
ENDBRANCH   7  27
ENDBRANCH   6   7
BRANCH   6  29
ATOM     29  O   UNL     1      -2.073  -2.334   0.914  1.00  0.00    -0.388 OA
ATOM     30  H   UNL     1      -1.865  -2.866   0.120  1.00  0.00     0.211 HD
ENDBRANCH   6  29
ENDBRANCH   5   6
ENDBRANCH   1   5
BRANCH   2  31
ATOM     31  O   UNL     1       1.320   0.563   0.423  1.00  0.00    -0.443 OA
BRANCH  31  32
ATOM     32  C   UNL     1       1.984   0.949  -0.764  1.00  0.00     0.294 C 
BRANCH  32  33
ATOM     33  C   UNL     1       3.439   1.003  -0.564  1.00  0.00     0.121 A 
ATOM     34  C   UNL     1       4.186   0.736   0.564  1.00  0.00     0.144 A 
ATOM     35  N   UNL     1       4.334   1.343  -1.507  1.00  0.00    -0.131 NA
ATOM     36  N   UNL     1       5.504   0.918   0.282  1.00  0.00    -0.219 N 
ATOM     37  N   UNL     1       5.545   1.283  -0.976  1.00  0.00    -0.062 NA
BRANCH  36  38
ATOM     38  C   UNL     1       6.615   0.753   1.152  1.00  0.00     0.081 A 
ATOM     39  C   UNL     1       6.432   0.645   2.523  1.00  0.00     0.049 A 
ATOM     40  C   UNL     1       7.883   0.701   0.622  1.00  0.00     0.065 A 
ATOM     41  C   UNL     1       7.491   0.485   3.381  1.00  0.00     0.043 A 
ATOM     42  C   UNL     1       8.975   0.540   1.458  1.00  0.00     0.017 A 
ATOM     43  Cl  UNL     1       7.271   0.347   5.123  1.00  0.00    -0.084 Cl
ATOM     44  C   UNL     1       8.756   0.435   2.831  1.00  0.00     0.021 A 
BRANCH  40  45
ATOM     45  C   UNL     1       8.058   0.814  -0.807  1.00  0.00     0.255 C 
ATOM     46  O   UNL     1       8.224   1.919  -1.397  1.00  0.00    -0.269 OA
ATOM     47  N   UNL     1       8.047  -0.349  -1.611  1.00  0.00    -0.345 N 
ATOM     48  C   UNL     1       7.861  -1.633  -0.981  1.00  0.00     0.146 C 
ATOM     49  C   UNL     1       8.219  -0.294  -3.055  1.00  0.00     0.146 C 
ENDBRANCH  40  45
ENDBRANCH  36  38
ENDBRANCH  32  33
ENDBRANCH  31  32
ENDBRANCH   2  31
TORSDOF 16
