REMARK SMILES CC(=O)N[C@@H]1[C@@H](O)C[C@](O)(C(=O)O)O[C@H]1C(O)[C@H](O)CNC(=O)OCc1cn(CCCCCCCCCCC(=O)O)nn1
REMARK SMILES IDX 29 1 28 2 26 3 27 4 43 5 42 6 25 7 24 8 22 9 21 10 23 12
REMARK SMILES IDX 20 13 18 14 16 15 15 16 9 17 8 18 14 19 6 20 5 21 10 22
REMARK SMILES IDX 11 24 12 25 13 26 7 28 4 30 2 31 1 33 3 34 17 35 19 37 30 39
REMARK SMILES IDX 31 40 32 41 33 42 34 43 35 44 36 45 37 46 38 47 39 48 40 49
REMARK SMILES IDX 41 50
REMARK H PARENT 21 11 10 23 13 27 7 29 4 32 17 36 19 38 41 51
REMARK Flexibility Score: inf
ROOT
ATOM      1  C   UNL     1       3.283  -0.261   2.058  1.00  0.00     0.146 C 
ENDROOT
BRANCH   1   2
ATOM      2  N   UNL     1       2.747   1.060   1.875  1.00  0.00    -0.252 N 
ATOM      3  C   UNL     1       1.456   2.818   1.638  1.00  0.00     0.120 A 
ATOM      4  C   UNL     1       1.445   1.463   1.832  1.00  0.00     0.138 A 
ATOM      5  N   UNL     1       2.748   3.206   1.569  1.00  0.00    -0.132 NA
ATOM      6  N   UNL     1       3.486   2.139   1.714  1.00  0.00    -0.067 NA
BRANCH   3   7
ATOM      7  C   UNL     1       0.254   3.671   1.528  1.00  0.00     0.294 C 
BRANCH   7   8
ATOM      8  O   UNL     1      -0.915   2.882   1.483  1.00  0.00    -0.443 OA
BRANCH   8   9
ATOM      9  C   UNL     1      -1.108   1.958   0.465  1.00  0.00     0.407 C 
ATOM     10  N   UNL     1      -2.276   1.152   0.401  1.00  0.00    -0.319 N 
ATOM     11  H   UNL     1      -3.018   1.240   1.128  1.00  0.00     0.167 HD
ATOM     12  O   UNL     1      -0.199   1.847  -0.428  1.00  0.00    -0.225 OA
BRANCH  10  13
ATOM     13  C   UNL     1      -2.435   0.214  -0.665  1.00  0.00     0.154 C 
BRANCH  13  14
ATOM     14  C   UNL     1      -3.734  -0.558  -0.574  1.00  0.00     0.165 C 
BRANCH  14  15
ATOM     15  C   UNL     1      -4.897   0.386  -0.622  1.00  0.00     0.176 C 
BRANCH  15  16
ATOM     16  C   UNL     1      -6.194  -0.387  -0.515  1.00  0.00     0.178 C 
ATOM     17  C   UNL     1      -7.385  -2.064  -1.582  1.00  0.00     0.269 C 
ATOM     18  C   UNL     1      -8.564  -1.422  -0.886  1.00  0.00     0.112 C 
ATOM     19  O   UNL     1      -6.260  -1.255  -1.571  1.00  0.00    -0.332 OA
ATOM     20  C   UNL     1      -8.544   0.051  -1.188  1.00  0.00     0.145 C 
ATOM     21  C   UNL     1      -7.316   0.619  -0.462  1.00  0.00     0.142 C 
BRANCH  17  22
ATOM     22  O   UNL     1      -7.752  -2.233  -2.914  1.00  0.00    -0.357 OA
ATOM     23  H   UNL     1      -7.893  -3.183  -3.129  1.00  0.00     0.214 HD
ENDBRANCH  17  22
BRANCH  17  24
ATOM     24  C   UNL     1      -7.166  -3.377  -0.975  1.00  0.00     0.364 C 
ATOM     25  O   UNL     1      -7.323  -4.410  -1.670  1.00  0.00    -0.246 OA
BRANCH  24  26
ATOM     26  O   UNL     1      -6.787  -3.570   0.347  1.00  0.00    -0.477 OA
ATOM     27  H   UNL     1      -7.230  -4.337   0.877  1.00  0.00     0.296 HD
ENDBRANCH  24  26
ENDBRANCH  17  24
BRANCH  20  28
ATOM     28  O   UNL     1      -8.493   0.282  -2.546  1.00  0.00    -0.391 OA
ATOM     29  H   UNL     1      -7.710   0.859  -2.730  1.00  0.00     0.211 HD
ENDBRANCH  20  28
BRANCH  21  30
ATOM     30  N   UNL     1      -7.745   0.855   0.900  1.00  0.00    -0.348 N 
ATOM     31  C   UNL     1      -7.795   2.189   1.370  1.00  0.00     0.217 C 
ATOM     32  H   UNL     1      -8.019   0.071   1.543  1.00  0.00     0.163 HD
ATOM     33  C   UNL     1      -8.233   2.475   2.771  1.00  0.00     0.114 C 
ATOM     34  O   UNL     1      -7.474   3.130   0.619  1.00  0.00    -0.275 OA
ENDBRANCH  21  30
ENDBRANCH  15  16
BRANCH  15  35
ATOM     35  O   UNL     1      -4.814   1.111  -1.815  1.00  0.00    -0.388 OA
ATOM     36  H   UNL     1      -5.053   2.049  -1.716  1.00  0.00     0.211 HD
ENDBRANCH  15  35
ENDBRANCH  14  15
BRANCH  14  37
ATOM     37  O   UNL     1      -3.814  -1.283   0.615  1.00  0.00    -0.388 OA
ATOM     38  H   UNL     1      -4.376  -2.074   0.514  1.00  0.00     0.211 HD
ENDBRANCH  14  37
ENDBRANCH  13  14
ENDBRANCH  10  13
ENDBRANCH   8   9
ENDBRANCH   7   8
ENDBRANCH   3   7
ENDBRANCH   1   2
BRANCH   1  39
ATOM     39  C   UNL     1       3.453  -0.913   0.712  1.00  0.00     0.024 C 
BRANCH  39  40
ATOM     40  C   UNL     1       4.013  -2.304   0.802  1.00  0.00     0.002 C 
BRANCH  40  41
ATOM     41  C   UNL     1       5.371  -2.338   1.457  1.00  0.00     0.000 C 
BRANCH  41  42
ATOM     42  C   UNL     1       6.349  -1.489   0.650  1.00  0.00     0.000 C 
BRANCH  42  43
ATOM     43  C   UNL     1       7.698  -1.536   1.318  1.00  0.00     0.000 C 
BRANCH  43  44
ATOM     44  C   UNL     1       8.711  -0.710   0.579  1.00  0.00     0.000 C 
BRANCH  44  45
ATOM     45  C   UNL     1       8.881  -1.210  -0.817  1.00  0.00     0.001 C 
BRANCH  45  46
ATOM     46  C   UNL     1       9.920  -0.386  -1.572  1.00  0.00     0.012 C 
BRANCH  46  47
ATOM     47  C   UNL     1       9.535   1.066  -1.664  1.00  0.00     0.122 C 
BRANCH  47  48
ATOM     48  C   UNL     1      10.628   1.748  -2.425  1.00  0.00     0.303 C 
ATOM     49  O   UNL     1      11.633   1.153  -2.866  1.00  0.00    -0.252 OA
BRANCH  48  50
ATOM     50  O   UNL     1      10.533   3.120  -2.664  1.00  0.00    -0.481 OA
ATOM     51  H   UNL     1      11.373   3.642  -2.845  1.00  0.00     0.296 HD
ENDBRANCH  48  50
ENDBRANCH  47  48
ENDBRANCH  46  47
ENDBRANCH  45  46
ENDBRANCH  44  45
ENDBRANCH  43  44
ENDBRANCH  42  43
ENDBRANCH  41  42
ENDBRANCH  40  41
ENDBRANCH  39  40
ENDBRANCH   1  39
TORSDOF 26
