REMARK SMILES CC(=O)N[C@@H]1[C@@H](O)C[C@](O)(C(=O)O)O[C@H]1C(O)[C@H](O)CNC(=O)OCc1cn(C2CCc3ccccc3NC2=O)nn1
REMARK SMILES IDX 24 1 22 2 21 3 23 5 20 6 18 7 16 8 15 9 9 10 8 11 14 12 6 13
REMARK SMILES IDX 5 14 10 15 11 17 12 18 13 19 7 21 4 23 2 24 1 26 3 27 17 28
REMARK SMILES IDX 19 30 25 32 26 33 27 34 42 35 28 36 41 37 29 38 39 40 38 41
REMARK SMILES IDX 40 42 37 44 32 45 36 46 33 47 35 48 34 49 31 50 30 51
REMARK H PARENT 21 4 10 16 13 20 7 22 4 25 17 29 19 31 38 43
REMARK Flexibility Score: 80.00
ROOT
ATOM      1  O   UNL     1       0.946   0.677   0.384  1.00  0.00    -0.443 OA
ENDROOT
BRANCH   1   2
ATOM      2  C   UNL     1      -0.324   0.188   0.571  1.00  0.00     0.407 C 
ATOM      3  N   UNL     1      -1.452   1.073   0.507  1.00  0.00    -0.319 N 
ATOM      4  H   UNL     1      -1.237   2.079   0.312  1.00  0.00     0.167 HD
ATOM      5  O   UNL     1      -0.548  -1.027   0.802  1.00  0.00    -0.225 OA
BRANCH   3   6
ATOM      6  C   UNL     1      -2.810   0.599   0.701  1.00  0.00     0.154 C 
BRANCH   6   7
ATOM      7  C   UNL     1      -3.746   1.776   0.574  1.00  0.00     0.165 C 
BRANCH   7   8
ATOM      8  C   UNL     1      -5.182   1.411   0.884  1.00  0.00     0.176 C 
BRANCH   8   9
ATOM      9  C   UNL     1      -5.748   0.485  -0.204  1.00  0.00     0.178 C 
ATOM     10  C   UNL     1      -6.372   0.746  -2.450  1.00  0.00     0.269 C 
ATOM     11  C   UNL     1      -7.419  -0.287  -2.171  1.00  0.00     0.112 C 
ATOM     12  O   UNL     1      -5.601   1.111  -1.381  1.00  0.00    -0.332 OA
ATOM     13  C   UNL     1      -8.136   0.167  -0.910  1.00  0.00     0.145 C 
ATOM     14  C   UNL     1      -7.136   0.130   0.218  1.00  0.00     0.142 C 
BRANCH  10  15
ATOM     15  O   UNL     1      -7.024   1.923  -2.873  1.00  0.00    -0.357 OA
ATOM     16  H   UNL     1      -6.302   2.502  -3.230  1.00  0.00     0.214 HD
ENDBRANCH  10  15
BRANCH  10  17
ATOM     17  C   UNL     1      -5.460   0.343  -3.550  1.00  0.00     0.364 C 
ATOM     18  O   UNL     1      -5.396   1.046  -4.581  1.00  0.00    -0.246 OA
BRANCH  17  19
ATOM     19  O   UNL     1      -4.665  -0.798  -3.476  1.00  0.00    -0.477 OA
ATOM     20  H   UNL     1      -3.726  -0.724  -3.894  1.00  0.00     0.296 HD
ENDBRANCH  17  19
ENDBRANCH  10  17
BRANCH  13  21
ATOM     21  O   UNL     1      -8.531   1.485  -1.114  1.00  0.00    -0.391 OA
ATOM     22  H   UNL     1      -9.155   1.494  -1.879  1.00  0.00     0.211 HD
ENDBRANCH  13  21
BRANCH  14  23
ATOM     23  N   UNL     1      -7.114  -1.234   0.716  1.00  0.00    -0.348 N 
ATOM     24  C   UNL     1      -7.520  -1.597   2.027  1.00  0.00     0.217 C 
ATOM     25  H   UNL     1      -6.776  -2.008   0.066  1.00  0.00     0.163 HD
ATOM     26  C   UNL     1      -7.451  -3.024   2.421  1.00  0.00     0.114 C 
ATOM     27  O   UNL     1      -7.921  -0.690   2.803  1.00  0.00    -0.275 OA
ENDBRANCH  14  23
ENDBRANCH   8   9
BRANCH   8  28
ATOM     28  O   UNL     1      -5.909   2.606   0.849  1.00  0.00    -0.388 OA
ATOM     29  H   UNL     1      -6.715   2.588   1.408  1.00  0.00     0.211 HD
ENDBRANCH   8  28
ENDBRANCH   7   8
BRANCH   7  30
ATOM     30  O   UNL     1      -3.648   2.367  -0.680  1.00  0.00    -0.388 OA
ATOM     31  H   UNL     1      -3.310   3.286  -0.642  1.00  0.00     0.211 HD
ENDBRANCH   7  30
ENDBRANCH   6   7
ENDBRANCH   3   6
ENDBRANCH   1   2
BRANCH   1  32
ATOM     32  C   UNL     1       2.086  -0.164   0.446  1.00  0.00     0.294 C 
BRANCH  32  33
ATOM     33  C   UNL     1       3.335   0.606   0.220  1.00  0.00     0.120 A 
ATOM     34  C   UNL     1       4.617   0.144   0.537  1.00  0.00     0.139 A 
ATOM     35  N   UNL     1       3.524   1.833  -0.298  1.00  0.00    -0.132 NA
ATOM     36  N   UNL     1       5.513   1.089   0.208  1.00  0.00    -0.240 N 
ATOM     37  N   UNL     1       4.820   2.089  -0.291  1.00  0.00    -0.066 NA
BRANCH  36  38
ATOM     38  C   UNL     1       6.948   1.022   0.378  1.00  0.00     0.198 CG0
ATOM     39  G   UNL     1       7.552   0.410  -0.844  1.00  0.00     0.000 G0
BRANCH  38  40
ATOM     40  C   UNL     1       7.313   0.295   1.626  1.00  0.00     0.249 C 
ATOM     41  N   UNL     1       8.263  -0.720   1.892  1.00  0.00    -0.324 N 
ATOM     42  O   UNL     1       6.634   0.675   2.612  1.00  0.00    -0.272 OA
ATOM     43  H   UNL     1       8.182  -1.268   2.775  1.00  0.00     0.170 HD
BRANCH  41  44
ATOM     44  C   UNL     1       9.375  -1.111   1.066  1.00  0.00     0.044 A 
ATOM     45  C   UNL     1       9.744  -0.566  -0.150  1.00  0.00    -0.024 A 
ATOM     46  C   UNL     1      10.078  -2.146   1.651  1.00  0.00     0.026 A 
ATOM     47  C   UNL     1      10.836  -1.075  -0.782  1.00  0.00     0.006 A 
ATOM     48  C   UNL     1      11.184  -2.659   1.009  1.00  0.00     0.002 A 
ATOM     49  C   UNL     1      11.550  -2.116  -0.202  1.00  0.00     0.000 A 
BRANCH  45  50
ATOM     50  C   UNL     1       9.065   0.545  -0.870  1.00  0.00     0.040 C 
BRANCH  50  51
ATOM     51  C   UNL     1       7.552   0.410  -0.844  1.00  0.00     0.042 CG0
ATOM     52  G   UNL     1       6.948   1.022   0.378  1.00  0.00     0.000 G0
ENDBRANCH  50  51
ENDBRANCH  45  50
ENDBRANCH  41  44
ENDBRANCH  38  40
ENDBRANCH  36  38
ENDBRANCH  32  33
ENDBRANCH   1  32
TORSDOF 15
