REMARK SMILES CC(=O)N[C@@H]1[C@@H](O)C[C@](O)(C(=O)O)O[C@H]1C(O)[C@H](O)CNC(=O)OCc1cn(CCO)nn1
REMARK SMILES IDX 21 1 22 2 23 3 20 5 18 6 16 7 15 8 9 9 8 10 14 11 6 12 5 13
REMARK SMILES IDX 10 14 11 16 12 17 13 18 7 20 4 22 2 23 1 25 3 26 17 27 19 29
REMARK SMILES IDX 24 31 25 32 26 33 27 34 33 35 28 36 32 37 29 38 30 39 31 40
REMARK H PARENT 21 4 10 15 13 19 7 21 4 24 17 28 19 30 31 41
REMARK Flexibility Score: inf
ROOT
ATOM      1  N   UNL     1       0.949  -0.901   1.155  1.00  0.00    -0.319 N 
ATOM      2  C   UNL     1       1.751  -0.344   0.153  1.00  0.00     0.407 C 
ATOM      3  O   UNL     1       1.236   0.255  -0.787  1.00  0.00    -0.225 OA
ATOM      4  H   UNL     1       1.494  -1.406   1.932  1.00  0.00     0.167 HD
ENDROOT
BRANCH   1   5
ATOM      5  C   UNL     1      -0.456  -0.899   1.295  1.00  0.00     0.154 C 
BRANCH   5   6
ATOM      6  C   UNL     1      -1.143   0.425   1.413  1.00  0.00     0.165 C 
BRANCH   6   7
ATOM      7  C   UNL     1      -2.568   0.292   1.858  1.00  0.00     0.176 C 
BRANCH   7   8
ATOM      8  C   UNL     1      -3.553  -0.289   0.936  1.00  0.00     0.178 C 
ATOM      9  C   UNL     1      -4.134  -2.098  -0.369  1.00  0.00     0.269 C 
ATOM     10  C   UNL     1      -5.512  -1.487  -0.228  1.00  0.00     0.112 C 
ATOM     11  O   UNL     1      -3.187  -1.532   0.484  1.00  0.00    -0.332 OA
ATOM     12  C   UNL     1      -5.463   0.004  -0.534  1.00  0.00     0.145 C 
ATOM     13  C   UNL     1      -4.057   0.539  -0.196  1.00  0.00     0.142 C 
BRANCH   9  14
ATOM     14  O   UNL     1      -3.653  -1.926  -1.664  1.00  0.00    -0.357 OA
ATOM     15  H   UNL     1      -4.153  -2.450  -2.330  1.00  0.00     0.214 HD
ENDBRANCH   9  14
BRANCH   9  16
ATOM     16  C   UNL     1      -4.157  -3.545  -0.057  1.00  0.00     0.364 C 
ATOM     17  O   UNL     1      -4.547  -3.999   1.049  1.00  0.00    -0.246 OA
BRANCH  16  18
ATOM     18  O   UNL     1      -3.733  -4.447  -1.016  1.00  0.00    -0.477 OA
ATOM     19  H   UNL     1      -3.532  -5.421  -0.746  1.00  0.00     0.296 HD
ENDBRANCH  16  18
ENDBRANCH   9  16
BRANCH  12  20
ATOM     20  O   UNL     1      -5.752   0.202  -1.877  1.00  0.00    -0.391 OA
ATOM     21  H   UNL     1      -4.897   0.106  -2.373  1.00  0.00     0.211 HD
ENDBRANCH  12  20
BRANCH  13  22
ATOM     22  N   UNL     1      -4.164   1.954   0.096  1.00  0.00    -0.348 N 
ATOM     23  C   UNL     1      -3.609   2.882  -0.822  1.00  0.00     0.217 C 
ATOM     24  H   UNL     1      -4.638   2.308   0.963  1.00  0.00     0.163 HD
ATOM     25  C   UNL     1      -3.669   4.353  -0.605  1.00  0.00     0.114 C 
ATOM     26  O   UNL     1      -3.044   2.461  -1.857  1.00  0.00    -0.275 OA
ENDBRANCH  13  22
ENDBRANCH   7   8
BRANCH   7  27
ATOM     27  O   UNL     1      -2.467  -0.528   3.043  1.00  0.00    -0.388 OA
ATOM     28  H   UNL     1      -3.276  -1.063   3.112  1.00  0.00     0.211 HD
ENDBRANCH   7  27
ENDBRANCH   6   7
BRANCH   6  29
ATOM     29  O   UNL     1      -0.986   1.180   0.299  1.00  0.00    -0.388 OA
ATOM     30  H   UNL     1      -1.328   0.800  -0.534  1.00  0.00     0.211 HD
ENDBRANCH   6  29
ENDBRANCH   5   6
ENDBRANCH   1   5
BRANCH   2  31
ATOM     31  O   UNL     1       3.140  -0.448   0.188  1.00  0.00    -0.443 OA
BRANCH  31  32
ATOM     32  C   UNL     1       3.954   0.112  -0.820  1.00  0.00     0.294 C 
BRANCH  32  33
ATOM     33  C   UNL     1       5.379  -0.159  -0.513  1.00  0.00     0.120 A 
ATOM     34  C   UNL     1       6.477   0.218  -1.246  1.00  0.00     0.138 A 
ATOM     35  N   UNL     1       5.835  -0.822   0.540  1.00  0.00    -0.132 NA
ATOM     36  N   UNL     1       7.547  -0.249  -0.578  1.00  0.00    -0.250 N 
ATOM     37  N   UNL     1       7.163  -0.887   0.515  1.00  0.00    -0.067 NA
BRANCH  36  38
ATOM     38  C   UNL     1       8.918  -0.070  -1.011  1.00  0.00     0.174 C 
BRANCH  38  39
ATOM     39  C   UNL     1       9.453   1.227  -0.410  1.00  0.00     0.179 C 
BRANCH  39  40
ATOM     40  O   UNL     1       9.392   1.128   0.995  1.00  0.00    -0.394 OA
ATOM     41  H   UNL     1       9.597   0.185   1.277  1.00  0.00     0.210 HD
ENDBRANCH  39  40
ENDBRANCH  38  39
ENDBRANCH  36  38
ENDBRANCH  32  33
ENDBRANCH  31  32
ENDBRANCH   2  31
TORSDOF 17
