REMARK SMILES CC(=O)N[C@@H]1[C@@H](O)C[C@](O)(C(=O)O)O[C@H]1C(O)[C@H](O)CNC(=O)OCc1cn(-c2ccc(S(=O)(=O)Nc3nccs3)cc2)nn1
REMARK SMILES IDX 21 1 22 2 23 3 20 5 18 6 16 7 15 8 9 9 8 10 14 11 6 12 5 13
REMARK SMILES IDX 10 14 11 16 12 17 13 18 7 20 4 22 2 23 1 25 3 26 17 27 19 29
REMARK SMILES IDX 24 31 25 32 26 33 27 34 45 35 28 36 44 37 29 38 30 39 43 40
REMARK SMILES IDX 31 41 42 42 32 43 33 44 34 45 35 46 36 47 37 49 38 50 41 51
REMARK SMILES IDX 39 52 40 53
REMARK H PARENT 21 4 10 15 13 19 7 21 4 24 17 28 19 30 36 48
REMARK Flexibility Score: inf
ROOT
ATOM      1  N   UNL     1      -1.769   1.106  -1.696  1.00  0.00    -0.319 N 
ATOM      2  C   UNL     1      -0.405   1.444  -1.839  1.00  0.00     0.407 C 
ATOM      3  O   UNL     1       0.310   0.765  -2.652  1.00  0.00    -0.225 OA
ATOM      4  H   UNL     1      -2.354   1.652  -1.041  1.00  0.00     0.167 HD
ENDROOT
BRANCH   1   5
ATOM      5  C   UNL     1      -2.364   0.027  -2.437  1.00  0.00     0.154 C 
BRANCH   5   6
ATOM      6  C   UNL     1      -3.829  -0.156  -2.127  1.00  0.00     0.165 C 
BRANCH   6   7
ATOM      7  C   UNL     1      -4.070  -0.431  -0.671  1.00  0.00     0.176 C 
BRANCH   7   8
ATOM      8  C   UNL     1      -5.573  -0.614  -0.393  1.00  0.00     0.178 C 
ATOM      9  C   UNL     1      -6.337   1.595  -0.070  1.00  0.00     0.269 C 
ATOM     10  C   UNL     1      -6.854   1.197   1.299  1.00  0.00     0.112 C 
ATOM     11  O   UNL     1      -6.200   0.503  -0.853  1.00  0.00    -0.332 OA
ATOM     12  C   UNL     1      -5.806   0.280   1.882  1.00  0.00     0.145 C 
ATOM     13  C   UNL     1      -5.756  -0.965   1.031  1.00  0.00     0.142 C 
BRANCH   9  14
ATOM     14  O   UNL     1      -5.078   2.168   0.154  1.00  0.00    -0.357 OA
ATOM     15  H   UNL     1      -4.866   2.884  -0.473  1.00  0.00     0.214 HD
ENDBRANCH   9  14
BRANCH   9  16
ATOM     16  C   UNL     1      -7.194   2.646  -0.677  1.00  0.00     0.364 C 
ATOM     17  O   UNL     1      -6.726   3.775  -0.882  1.00  0.00    -0.246 OA
BRANCH  16  18
ATOM     18  O   UNL     1      -8.507   2.381  -1.014  1.00  0.00    -0.477 OA
ATOM     19  H   UNL     1      -8.915   2.793  -1.866  1.00  0.00     0.296 HD
ENDBRANCH  16  18
ENDBRANCH   9  16
BRANCH  12  20
ATOM     20  O   UNL     1      -4.585   0.941   1.956  1.00  0.00    -0.391 OA
ATOM     21  H   UNL     1      -4.590   1.478   2.801  1.00  0.00     0.211 HD
ENDBRANCH  12  20
BRANCH  13  22
ATOM     22  N   UNL     1      -6.912  -1.744   1.338  1.00  0.00    -0.348 N 
ATOM     23  C   UNL     1      -6.786  -2.970   2.027  1.00  0.00     0.217 C 
ATOM     24  H   UNL     1      -7.852  -1.419   1.057  1.00  0.00     0.163 HD
ATOM     25  C   UNL     1      -7.932  -3.843   2.386  1.00  0.00     0.114 C 
ATOM     26  O   UNL     1      -5.649  -3.338   2.350  1.00  0.00    -0.275 OA
ENDBRANCH  13  22
ENDBRANCH   7   8
BRANCH   7  27
ATOM     27  O   UNL     1      -3.372  -1.575  -0.219  1.00  0.00    -0.388 OA
ATOM     28  H   UNL     1      -3.033  -2.039  -1.006  1.00  0.00     0.211 HD
ENDBRANCH   7  27
ENDBRANCH   6   7
BRANCH   6  29
ATOM     29  O   UNL     1      -4.248  -1.239  -2.930  1.00  0.00    -0.388 OA
ATOM     30  H   UNL     1      -3.791  -1.128  -3.800  1.00  0.00     0.211 HD
ENDBRANCH   6  29
ENDBRANCH   5   6
ENDBRANCH   1   5
BRANCH   2  31
ATOM     31  O   UNL     1       0.209   2.469  -1.150  1.00  0.00    -0.443 OA
BRANCH  31  32
ATOM     32  C   UNL     1       1.599   2.776  -1.328  1.00  0.00     0.294 C 
BRANCH  32  33
ATOM     33  C   UNL     1       2.349   1.544  -0.944  1.00  0.00     0.121 A 
ATOM     34  C   UNL     1       3.735   1.371  -0.954  1.00  0.00     0.144 A 
ATOM     35  N   UNL     1       1.868   0.359  -0.514  1.00  0.00    -0.131 NA
ATOM     36  N   UNL     1       4.031   0.127  -0.544  1.00  0.00    -0.220 N 
ATOM     37  N   UNL     1       2.874  -0.450  -0.288  1.00  0.00    -0.062 NA
BRANCH  36  38
ATOM     38  C   UNL     1       5.343  -0.407  -0.427  1.00  0.00     0.066 A 
ATOM     39  C   UNL     1       6.416   0.101  -1.122  1.00  0.00     0.030 A 
ATOM     40  C   UNL     1       5.571  -1.478   0.410  1.00  0.00     0.030 A 
ATOM     41  C   UNL     1       7.695  -0.439  -0.994  1.00  0.00     0.024 A 
ATOM     42  C   UNL     1       6.833  -2.013   0.539  1.00  0.00     0.024 A 
ATOM     43  C   UNL     1       7.934  -1.507  -0.161  1.00  0.00     0.088 A 
BRANCH  43  44
ATOM     44  S   UNL     1       9.513  -2.206   0.041  1.00  0.00     0.263 S 
ATOM     45  O   UNL     1      10.316  -1.847  -1.203  1.00  0.00    -0.201 OA
ATOM     46  O   UNL     1       9.361  -3.688   0.030  1.00  0.00    -0.201 OA
BRANCH  44  47
ATOM     47  N   UNL     1      10.351  -1.671   1.419  1.00  0.00    -0.255 N 
ATOM     48  H   UNL     1      10.606  -2.394   2.146  1.00  0.00     0.182 HD
BRANCH  47  49
ATOM     49  C   UNL     1      10.751  -0.358   1.713  1.00  0.00     0.196 A 
ATOM     50  N   UNL     1      11.326   0.307   2.560  1.00  0.00    -0.228 NA
ATOM     51  S   UNL     1      10.358   1.018   0.479  1.00  0.00    -0.105 S 
ATOM     52  C   UNL     1      11.570   1.578   2.565  1.00  0.00     0.125 A 
ATOM     53  C   UNL     1      11.160   2.333   1.521  1.00  0.00     0.089 A 
ENDBRANCH  47  49
ENDBRANCH  44  47
ENDBRANCH  43  44
ENDBRANCH  36  38
ENDBRANCH  32  33
ENDBRANCH  31  32
ENDBRANCH   2  31
TORSDOF 18
