REMARK SMILES COc1ccc(-n2cc(COC(=O)NC[C@@H](O)C(O)[C@@H]3O[C@@](O)(C(=O)O)C[C@H](O)[C@H]3NC(C)=O)nn2)cc1
REMARK SMILES IDX 14 1 12 2 13 3 15 5 16 6 18 7 20 8 22 9 27 10 21 11 28 12
REMARK SMILES IDX 30 13 23 14 24 16 25 17 26 18 29 20 31 22 32 23 33 25 34 26
REMARK SMILES IDX 19 27 17 29 11 31 10 32 9 33 8 34 35 35 7 36 36 37 6 38 5 39
REMARK SMILES IDX 37 40 4 41 38 42 3 43 2 44 1 45
REMARK H PARENT 14 4 23 15 26 19 29 21 31 24 19 28 17 30
REMARK Flexibility Score: inf
ROOT
ATOM      1  N   UNL     1       0.214   0.904  -2.119  1.00  0.00    -0.319 N 
ATOM      2  C   UNL     1       0.833  -0.262  -1.619  1.00  0.00     0.407 C 
ATOM      3  O   UNL     1       0.682  -0.644  -0.449  1.00  0.00    -0.225 OA
ATOM      4  H   UNL     1       0.454   1.129  -3.138  1.00  0.00     0.167 HD
ENDROOT
BRANCH   1   5
ATOM      5  C   UNL     1      -0.661   1.791  -1.466  1.00  0.00     0.154 C 
BRANCH   5   6
ATOM      6  C   UNL     1      -2.027   1.378  -1.153  1.00  0.00     0.165 C 
BRANCH   6   7
ATOM      7  C   UNL     1      -2.273   0.406  -0.111  1.00  0.00     0.176 C 
BRANCH   7   8
ATOM      8  C   UNL     1      -3.631   0.512   0.616  1.00  0.00     0.178 C 
ATOM      9  C   UNL     1      -4.557  -0.902   2.261  1.00  0.00     0.269 C 
ATOM     10  C   UNL     1      -5.434  -1.597   1.207  1.00  0.00     0.112 C 
ATOM     11  O   UNL     1      -3.484  -0.425   1.624  1.00  0.00    -0.332 OA
ATOM     12  C   UNL     1      -5.919  -0.525   0.310  1.00  0.00     0.145 C 
ATOM     13  C   UNL     1      -4.799   0.374  -0.245  1.00  0.00     0.142 C 
BRANCH   9  14
ATOM     14  O   UNL     1      -4.082  -1.990   3.043  1.00  0.00    -0.357 OA
ATOM     15  H   UNL     1      -4.784  -2.675   3.159  1.00  0.00     0.214 HD
ENDBRANCH   9  14
BRANCH   9  16
ATOM     16  C   UNL     1      -5.292  -0.014   3.140  1.00  0.00     0.364 C 
ATOM     17  O   UNL     1      -5.425  -0.293   4.358  1.00  0.00    -0.246 OA
BRANCH  16  18
ATOM     18  O   UNL     1      -5.901   1.183   2.760  1.00  0.00    -0.477 OA
ATOM     19  H   UNL     1      -6.581   1.664   3.354  1.00  0.00     0.296 HD
ENDBRANCH  16  18
ENDBRANCH   9  16
BRANCH  12  20
ATOM     20  O   UNL     1      -6.628  -0.999  -0.805  1.00  0.00    -0.391 OA
ATOM     21  H   UNL     1      -5.914  -1.274  -1.462  1.00  0.00     0.211 HD
ENDBRANCH  12  20
BRANCH  13  22
ATOM     22  N   UNL     1      -5.517   1.562  -0.591  1.00  0.00    -0.348 N 
ATOM     23  C   UNL     1      -5.980   1.944  -1.850  1.00  0.00     0.217 C 
ATOM     24  H   UNL     1      -5.711   2.220   0.222  1.00  0.00     0.163 HD
ATOM     25  C   UNL     1      -6.717   3.229  -2.059  1.00  0.00     0.114 C 
ATOM     26  O   UNL     1      -5.755   1.176  -2.792  1.00  0.00    -0.275 OA
ENDBRANCH  13  22
ENDBRANCH   7   8
BRANCH   7  27
ATOM     27  O   UNL     1      -2.082  -0.883  -0.598  1.00  0.00    -0.388 OA
ATOM     28  H   UNL     1      -2.003  -1.552   0.128  1.00  0.00     0.211 HD
ENDBRANCH   7  27
ENDBRANCH   6   7
BRANCH   6  29
ATOM     29  O   UNL     1      -2.728   1.095  -2.360  1.00  0.00    -0.388 OA
ATOM     30  H   UNL     1      -2.421   0.227  -2.732  1.00  0.00     0.211 HD
ENDBRANCH   6  29
ENDBRANCH   5   6
ENDBRANCH   1   5
BRANCH   2  31
ATOM     31  O   UNL     1       1.661  -1.055  -2.440  1.00  0.00    -0.443 OA
BRANCH  31  32
ATOM     32  C   UNL     1       2.265  -2.209  -1.910  1.00  0.00     0.294 C 
BRANCH  32  33
ATOM     33  C   UNL     1       3.141  -1.840  -0.787  1.00  0.00     0.121 A 
ATOM     34  C   UNL     1       4.492  -1.507  -0.937  1.00  0.00     0.144 A 
ATOM     35  N   UNL     1       2.905  -1.737   0.518  1.00  0.00    -0.131 NA
ATOM     36  N   UNL     1       4.996  -1.222   0.278  1.00  0.00    -0.220 N 
ATOM     37  N   UNL     1       3.994  -1.374   1.140  1.00  0.00    -0.062 NA
BRANCH  36  38
ATOM     38  C   UNL     1       6.327  -0.835   0.589  1.00  0.00     0.067 A 
ATOM     39  C   UNL     1       7.406  -1.155  -0.203  1.00  0.00     0.032 A 
ATOM     40  C   UNL     1       6.596  -0.092   1.741  1.00  0.00     0.032 A 
ATOM     41  C   UNL     1       8.701  -0.765   0.117  1.00  0.00     0.048 A 
ATOM     42  C   UNL     1       7.884   0.294   2.057  1.00  0.00     0.048 A 
ATOM     43  C   UNL     1       8.951  -0.034   1.254  1.00  0.00     0.119 A 
BRANCH  43  44
ATOM     44  O   UNL     1      10.222   0.346   1.563  1.00  0.00    -0.497 OA
ATOM     45  C   UNL     1      11.291  -0.011   0.713  1.00  0.00     0.278 C 
ENDBRANCH  43  44
ENDBRANCH  36  38
ENDBRANCH  32  33
ENDBRANCH  31  32
ENDBRANCH   2  31
TORSDOF 16
