REMARK SMILES C=CCCCCn1cc(COC(=O)NC[C@@H](O)C(O)[C@@H]2O[C@@](O)(C(=O)O)C[C@H](O)[C@H]2NC(C)=O)nn1
REMARK SMILES IDX 11 1 12 2 14 3 13 5 15 6 16 7 18 8 20 9 22 10 27 11 21 12
REMARK SMILES IDX 28 13 30 14 23 15 24 17 25 18 26 19 29 21 31 23 32 24 33 26
REMARK SMILES IDX 34 27 19 28 17 30 10 32 9 33 8 34 35 35 7 36 36 37 6 38 5 39
REMARK SMILES IDX 4 40 3 41 2 42 1 43
REMARK H PARENT 14 4 23 16 26 20 29 22 31 25 19 29 17 31
REMARK Flexibility Score: inf
ROOT
ATOM      1  O   UNL     1       1.589  -0.878   3.080  1.00  0.00    -0.443 OA
ENDROOT
BRANCH   1   2
ATOM      2  C   UNL     1       0.585  -0.497   2.211  1.00  0.00     0.407 C 
ATOM      3  N   UNL     1      -0.227   0.620   2.598  1.00  0.00    -0.319 N 
ATOM      4  H   UNL     1      -0.026   1.087   3.503  1.00  0.00     0.167 HD
ATOM      5  O   UNL     1       0.382  -1.105   1.111  1.00  0.00    -0.225 OA
BRANCH   3   6
ATOM      6  C   UNL     1      -1.289   1.096   1.778  1.00  0.00     0.154 C 
BRANCH   6   7
ATOM      7  C   UNL     1      -2.381   0.056   1.519  1.00  0.00     0.165 C 
BRANCH   7   8
ATOM      8  C   UNL     1      -3.341   0.702   0.552  1.00  0.00     0.176 C 
BRANCH   8   9
ATOM      9  C   UNL     1      -4.514  -0.152   0.197  1.00  0.00     0.178 C 
ATOM     10  C   UNL     1      -4.918  -1.777  -1.410  1.00  0.00     0.269 C 
ATOM     11  C   UNL     1      -6.370  -1.545  -1.048  1.00  0.00     0.112 C 
ATOM     12  O   UNL     1      -4.094  -1.310  -0.401  1.00  0.00    -0.332 OA
ATOM     13  C   UNL     1      -6.630  -0.060  -1.156  1.00  0.00     0.145 C 
ATOM     14  C   UNL     1      -5.385   0.691  -0.745  1.00  0.00     0.142 C 
BRANCH  10  15
ATOM     15  O   UNL     1      -4.613  -1.217  -2.647  1.00  0.00    -0.357 OA
ATOM     16  H   UNL     1      -3.639  -1.203  -2.782  1.00  0.00     0.214 HD
ENDBRANCH  10  15
BRANCH  10  17
ATOM     17  C   UNL     1      -4.737  -3.245  -1.541  1.00  0.00     0.364 C 
ATOM     18  O   UNL     1      -4.371  -3.784  -2.617  1.00  0.00    -0.246 OA
BRANCH  17  19
ATOM     19  O   UNL     1      -4.964  -4.123  -0.468  1.00  0.00    -0.477 OA
ATOM     20  H   UNL     1      -4.453  -5.002  -0.468  1.00  0.00     0.296 HD
ENDBRANCH  17  19
ENDBRANCH  10  17
BRANCH  13  21
ATOM     21  O   UNL     1      -6.894   0.255  -2.476  1.00  0.00    -0.391 OA
ATOM     22  H   UNL     1      -6.720   1.216  -2.631  1.00  0.00     0.211 HD
ENDBRANCH  13  21
BRANCH  14  23
ATOM     23  N   UNL     1      -5.706   1.928  -0.056  1.00  0.00    -0.348 N 
ATOM     24  C   UNL     1      -5.265   3.206  -0.502  1.00  0.00     0.217 C 
ATOM     25  H   UNL     1      -6.293   1.939   0.825  1.00  0.00     0.163 HD
ATOM     26  C   UNL     1      -5.601   4.472   0.216  1.00  0.00     0.114 C 
ATOM     27  O   UNL     1      -4.562   3.228  -1.550  1.00  0.00    -0.275 OA
ENDBRANCH  14  23
ENDBRANCH   8   9
BRANCH   8  28
ATOM     28  O   UNL     1      -2.577   1.063  -0.570  1.00  0.00    -0.388 OA
ATOM     29  H   UNL     1      -2.606   0.366  -1.273  1.00  0.00     0.211 HD
ENDBRANCH   8  28
ENDBRANCH   7   8
BRANCH   7  30
ATOM     30  O   UNL     1      -2.968  -0.369   2.692  1.00  0.00    -0.388 OA
ATOM     31  H   UNL     1      -2.552  -0.050   3.510  1.00  0.00     0.211 HD
ENDBRANCH   7  30
ENDBRANCH   6   7
ENDBRANCH   3   6
ENDBRANCH   1   2
BRANCH   1  32
ATOM     32  C   UNL     1       2.425  -1.961   2.768  1.00  0.00     0.294 C 
BRANCH  32  33
ATOM     33  C   UNL     1       3.119  -1.614   1.484  1.00  0.00     0.120 A 
ATOM     34  C   UNL     1       4.312  -0.912   1.417  1.00  0.00     0.138 A 
ATOM     35  N   UNL     1       2.780  -1.876   0.222  1.00  0.00    -0.132 NA
ATOM     36  N   UNL     1       4.651  -0.775   0.129  1.00  0.00    -0.252 N 
ATOM     37  N   UNL     1       3.705  -1.368  -0.573  1.00  0.00    -0.067 NA
BRANCH  36  38
ATOM     38  C   UNL     1       5.809  -0.118  -0.459  1.00  0.00     0.146 C 
BRANCH  38  39
ATOM     39  C   UNL     1       6.936  -1.105  -0.610  1.00  0.00     0.024 C 
BRANCH  39  40
ATOM     40  C   UNL     1       8.156  -0.460  -1.219  1.00  0.00     0.006 C 
BRANCH  40  41
ATOM     41  C   UNL     1       8.681   0.677  -0.382  1.00  0.00     0.027 C 
BRANCH  41  42
ATOM     42  C   UNL     1       9.874   1.273  -1.025  1.00  0.00    -0.035 C 
ATOM     43  C   UNL     1      10.360   0.840  -2.167  1.00  0.00     0.004 C 
ENDBRANCH  41  42
ENDBRANCH  40  41
ENDBRANCH  39  40
ENDBRANCH  38  39
ENDBRANCH  36  38
ENDBRANCH  32  33
ENDBRANCH   1  32
TORSDOF 19
