REMARK SMILES CC(=O)N[C@@H]1[C@@H](O)C[C@](O)(C(=O)O)O[C@H]1C(O)[C@H](O)CNC(=O)OCc1cn(-c2ccc([N+](=O)[O-])cc2)nn1
REMARK SMILES IDX 21 1 22 2 23 3 20 5 18 6 16 7 15 8 9 9 8 10 14 11 6 12 5 13
REMARK SMILES IDX 10 14 11 16 12 17 13 18 7 20 4 22 2 23 1 25 3 26 17 27 19 29
REMARK SMILES IDX 24 31 25 32 26 33 27 34 39 35 28 36 38 37 29 38 30 39 37 40
REMARK SMILES IDX 31 41 36 42 32 43 33 44 34 45 35 46
REMARK H PARENT 21 4 10 15 13 19 7 21 4 24 17 28 19 30
REMARK Flexibility Score: inf
ROOT
ATOM      1  N   UNL     1      -0.065  -0.564  -2.612  1.00  0.00    -0.319 N 
ATOM      2  C   UNL     1       0.934   0.103  -1.879  1.00  0.00     0.407 C 
ATOM      3  O   UNL     1       1.150  -0.107  -0.672  1.00  0.00    -0.225 OA
ATOM      4  H   UNL     1      -0.132  -0.312  -3.658  1.00  0.00     0.167 HD
ENDROOT
BRANCH   1   5
ATOM      5  C   UNL     1      -0.962  -1.513  -2.080  1.00  0.00     0.154 C 
BRANCH   5   6
ATOM      6  C   UNL     1      -2.060  -1.089  -1.189  1.00  0.00     0.165 C 
BRANCH   6   7
ATOM      7  C   UNL     1      -1.878  -0.127  -0.108  1.00  0.00     0.176 C 
BRANCH   7   8
ATOM      8  C   UNL     1      -3.143   0.050   0.739  1.00  0.00     0.178 C 
ATOM      9  C   UNL     1      -4.833  -1.272   1.638  1.00  0.00     0.269 C 
ATOM     10  C   UNL     1      -5.347   0.066   2.117  1.00  0.00     0.112 C 
ATOM     11  O   UNL     1      -3.540  -1.234   1.168  1.00  0.00    -0.332 OA
ATOM     12  C   UNL     1      -5.290   1.123   1.059  1.00  0.00     0.145 C 
ATOM     13  C   UNL     1      -4.289   0.633  -0.004  1.00  0.00     0.142 C 
BRANCH   9  14
ATOM     14  O   UNL     1      -5.738  -1.753   0.707  1.00  0.00    -0.357 OA
ATOM     15  H   UNL     1      -6.623  -1.384   0.900  1.00  0.00     0.214 HD
ENDBRANCH   9  14
BRANCH   9  16
ATOM     16  C   UNL     1      -4.848  -2.178   2.816  1.00  0.00     0.364 C 
ATOM     17  O   UNL     1      -4.107  -1.956   3.808  1.00  0.00    -0.246 OA
BRANCH  16  18
ATOM     18  O   UNL     1      -5.676  -3.287   2.854  1.00  0.00    -0.477 OA
ATOM     19  H   UNL     1      -5.459  -4.109   3.423  1.00  0.00     0.296 HD
ENDBRANCH  16  18
ENDBRANCH   9  16
BRANCH  12  20
ATOM     20  O   UNL     1      -6.506   1.433   0.494  1.00  0.00    -0.391 OA
ATOM     21  H   UNL     1      -7.182   1.469   1.216  1.00  0.00     0.211 HD
ENDBRANCH  12  20
BRANCH  13  22
ATOM     22  N   UNL     1      -3.978   1.803  -0.798  1.00  0.00    -0.348 N 
ATOM     23  C   UNL     1      -4.383   1.880  -2.172  1.00  0.00     0.217 C 
ATOM     24  H   UNL     1      -3.462   2.621  -0.422  1.00  0.00     0.163 HD
ATOM     25  C   UNL     1      -4.100   3.043  -3.041  1.00  0.00     0.114 C 
ATOM     26  O   UNL     1      -5.006   0.905  -2.642  1.00  0.00    -0.275 OA
ENDBRANCH  13  22
ENDBRANCH   7   8
BRANCH   7  27
ATOM     27  O   UNL     1      -1.413   1.079  -0.565  1.00  0.00    -0.388 OA
ATOM     28  H   UNL     1      -1.648   1.317  -1.489  1.00  0.00     0.211 HD
ENDBRANCH   7  27
ENDBRANCH   6   7
BRANCH   6  29
ATOM     29  O   UNL     1      -2.675  -2.299  -0.756  1.00  0.00    -0.388 OA
ATOM     30  H   UNL     1      -3.131  -2.735  -1.522  1.00  0.00     0.211 HD
ENDBRANCH   6  29
ENDBRANCH   5   6
ENDBRANCH   1   5
BRANCH   2  31
ATOM     31  O   UNL     1       1.718   1.054  -2.570  1.00  0.00    -0.443 OA
BRANCH  31  32
ATOM     32  C   UNL     1       2.714   1.710  -1.811  1.00  0.00     0.294 C 
BRANCH  32  33
ATOM     33  C   UNL     1       3.687   0.705  -1.262  1.00  0.00     0.121 A 
ATOM     34  C   UNL     1       4.804   0.952  -0.494  1.00  0.00     0.144 A 
ATOM     35  N   UNL     1       3.665  -0.642  -1.411  1.00  0.00    -0.131 NA
ATOM     36  N   UNL     1       5.426  -0.214  -0.196  1.00  0.00    -0.220 N 
ATOM     37  N   UNL     1       4.696  -1.144  -0.775  1.00  0.00    -0.062 NA
BRANCH  36  38
ATOM     38  C   UNL     1       6.613  -0.379   0.576  1.00  0.00     0.067 A 
ATOM     39  C   UNL     1       6.910  -1.560   1.222  1.00  0.00     0.035 A 
ATOM     40  C   UNL     1       7.526   0.651   0.709  1.00  0.00     0.035 A 
ATOM     41  C   UNL     1       8.066  -1.698   1.964  1.00  0.00     0.088 A 
ATOM     42  C   UNL     1       8.683   0.514   1.451  1.00  0.00     0.088 A 
ATOM     43  C   UNL     1       8.983  -0.666   2.098  1.00  0.00     0.269 A 
BRANCH  43  44
ATOM     44  N   UNL     1      10.170  -0.799   2.855  1.00  0.00     0.062 N 
ATOM     45  O   UNL     1      10.941   0.173   2.929  1.00  0.00    -0.258 OA
ATOM     46  O   UNL     1      10.524  -1.940   3.518  1.00  0.00    -0.258 OA
ENDBRANCH  43  44
ENDBRANCH  36  38
ENDBRANCH  32  33
ENDBRANCH  31  32
ENDBRANCH   2  31
TORSDOF 16
