REMARK SMILES CC(=O)N[C@@H]1[C@@H](O)C[C@](O)(C(=O)O)O[C@H]1C(O)[C@H](O)CNC(=O)OCc1cn(C(C)(C)CO)nn1
REMARK SMILES IDX 21 1 22 2 23 3 20 5 18 6 16 7 15 8 9 9 8 10 14 11 6 12 5 13
REMARK SMILES IDX 10 14 11 16 12 17 13 18 7 20 4 22 2 23 1 25 3 26 17 27 19 29
REMARK SMILES IDX 24 31 25 32 26 33 27 34 35 35 28 36 34 37 29 38 30 39 31 40
REMARK SMILES IDX 32 41 33 42
REMARK H PARENT 21 4 10 15 13 19 7 21 4 24 17 28 19 30 33 43
REMARK Flexibility Score: inf
ROOT
ATOM      1  N   UNL     1      -0.102   1.407  -0.244  1.00  0.00    -0.319 N 
ATOM      2  C   UNL     1       0.971   0.626   0.294  1.00  0.00     0.407 C 
ATOM      3  O   UNL     1       1.295  -0.499  -0.217  1.00  0.00    -0.225 OA
ATOM      4  H   UNL     1      -0.316   2.319   0.201  1.00  0.00     0.167 HD
ENDROOT
BRANCH   1   5
ATOM      5  C   UNL     1      -0.836   0.916  -1.391  1.00  0.00     0.154 C 
BRANCH   5   6
ATOM      6  C   UNL     1      -1.926   1.820  -1.815  1.00  0.00     0.165 C 
BRANCH   6   7
ATOM      7  C   UNL     1      -2.979   2.162  -0.830  1.00  0.00     0.176 C 
BRANCH   7   8
ATOM      8  C   UNL     1      -4.106   1.159  -0.851  1.00  0.00     0.178 C 
ATOM      9  C   UNL     1      -5.487   1.861   0.936  1.00  0.00     0.269 C 
ATOM     10  C   UNL     1      -5.096   0.591   1.714  1.00  0.00     0.112 C 
ATOM     11  O   UNL     1      -5.270   1.744  -0.399  1.00  0.00    -0.332 OA
ATOM     12  C   UNL     1      -5.019  -0.492   0.691  1.00  0.00     0.145 C 
ATOM     13  C   UNL     1      -3.791  -0.155  -0.203  1.00  0.00     0.142 C 
BRANCH   9  14
ATOM     14  O   UNL     1      -4.912   2.951   1.556  1.00  0.00    -0.357 OA
ATOM     15  H   UNL     1      -4.575   2.693   2.447  1.00  0.00     0.214 HD
ENDBRANCH   9  14
BRANCH   9  16
ATOM     16  C   UNL     1      -6.987   2.011   1.093  1.00  0.00     0.364 C 
ATOM     17  O   UNL     1      -7.771   1.154   0.622  1.00  0.00    -0.246 OA
BRANCH  16  18
ATOM     18  O   UNL     1      -7.459   3.116   1.768  1.00  0.00    -0.477 OA
ATOM     19  H   UNL     1      -8.451   3.260   1.922  1.00  0.00     0.296 HD
ENDBRANCH  16  18
ENDBRANCH   9  16
BRANCH  12  20
ATOM     20  O   UNL     1      -4.877  -1.757   1.226  1.00  0.00    -0.391 OA
ATOM     21  H   UNL     1      -5.631  -2.303   0.879  1.00  0.00     0.211 HD
ENDBRANCH  12  20
BRANCH  13  22
ATOM     22  N   UNL     1      -3.794  -1.280  -1.152  1.00  0.00    -0.348 N 
ATOM     23  C   UNL     1      -2.920  -2.368  -1.058  1.00  0.00     0.217 C 
ATOM     24  H   UNL     1      -4.493  -1.239  -1.922  1.00  0.00     0.163 HD
ATOM     25  C   UNL     1      -2.902  -3.511  -2.007  1.00  0.00     0.114 C 
ATOM     26  O   UNL     1      -2.087  -2.391  -0.110  1.00  0.00    -0.275 OA
ENDBRANCH  13  22
ENDBRANCH   7   8
BRANCH   7  27
ATOM     27  O   UNL     1      -2.609   2.638   0.384  1.00  0.00    -0.388 OA
ATOM     28  H   UNL     1      -2.444   1.944   1.074  1.00  0.00     0.211 HD
ENDBRANCH   7  27
ENDBRANCH   6   7
BRANCH   6  29
ATOM     29  O   UNL     1      -2.554   1.287  -2.964  1.00  0.00    -0.388 OA
ATOM     30  H   UNL     1      -1.878   0.776  -3.462  1.00  0.00     0.211 HD
ENDBRANCH   6  29
ENDBRANCH   5   6
ENDBRANCH   1   5
BRANCH   2  31
ATOM     31  O   UNL     1       1.649   1.116   1.380  1.00  0.00    -0.443 OA
BRANCH  31  32
ATOM     32  C   UNL     1       2.711   0.446   1.992  1.00  0.00     0.294 C 
BRANCH  32  33
ATOM     33  C   UNL     1       3.831   0.224   1.041  1.00  0.00     0.120 A 
ATOM     34  C   UNL     1       5.010  -0.402   1.360  1.00  0.00     0.139 A 
ATOM     35  N   UNL     1       3.920   0.567  -0.244  1.00  0.00    -0.132 NA
ATOM     36  N   UNL     1       5.784  -0.427   0.270  1.00  0.00    -0.244 N 
ATOM     37  N   UNL     1       5.089   0.174  -0.698  1.00  0.00    -0.066 NA
BRANCH  36  38
ATOM     38  C   UNL     1       7.104  -0.998   0.192  1.00  0.00     0.082 C 
ATOM     39  C   UNL     1       8.133   0.068  -0.119  1.00  0.00     0.039 C 
ATOM     40  C   UNL     1       7.108  -2.066  -0.894  1.00  0.00     0.039 C 
BRANCH  38  41
ATOM     41  C   UNL     1       7.434  -1.693   1.488  1.00  0.00     0.186 C 
BRANCH  41  42
ATOM     42  O   UNL     1       8.714  -2.251   1.419  1.00  0.00    -0.394 OA
ATOM     43  H   UNL     1       9.192  -2.045   2.262  1.00  0.00     0.210 HD
ENDBRANCH  41  42
ENDBRANCH  38  41
ENDBRANCH  36  38
ENDBRANCH  32  33
ENDBRANCH  31  32
ENDBRANCH   2  31
TORSDOF 17
