REMARK SMILES CC(=O)N[C@@H]1[C@@H](O)C[C@](O)(C(=O)O)O[C@H]1C(O)[C@H](O)CNC(=O)OCc1cn(CC(=O)O)nn1
REMARK SMILES IDX 21 1 22 2 23 3 20 5 18 6 16 7 15 8 9 9 8 10 14 11 6 12 5 13
REMARK SMILES IDX 10 14 11 16 12 17 13 18 7 20 4 22 2 23 1 25 3 26 17 27 19 29
REMARK SMILES IDX 24 31 25 32 26 33 27 34 34 35 28 36 33 37 29 38 30 39 31 40
REMARK SMILES IDX 32 41
REMARK H PARENT 21 4 10 15 13 19 7 21 4 24 17 28 19 30 32 42
REMARK Flexibility Score: inf
ROOT
ATOM      1  N   UNL     1       0.705  -1.062   0.111  1.00  0.00    -0.319 N 
ATOM      2  C   UNL     1       1.988  -0.826  -0.419  1.00  0.00     0.407 C 
ATOM      3  O   UNL     1       2.604   0.218  -0.207  1.00  0.00    -0.225 OA
ATOM      4  H   UNL     1       0.284  -2.008  -0.140  1.00  0.00     0.167 HD
ENDROOT
BRANCH   1   5
ATOM      5  C   UNL     1      -0.066  -0.167   0.934  1.00  0.00     0.154 C 
BRANCH   5   6
ATOM      6  C   UNL     1      -0.456   1.129   0.298  1.00  0.00     0.165 C 
BRANCH   6   7
ATOM      7  C   UNL     1      -1.357   0.981  -0.870  1.00  0.00     0.176 C 
BRANCH   7   8
ATOM      8  C   UNL     1      -2.519   0.045  -0.675  1.00  0.00     0.178 C 
ATOM      9  C   UNL     1      -4.143  -1.118  -1.919  1.00  0.00     0.269 C 
ATOM     10  C   UNL     1      -5.169  -0.947  -0.848  1.00  0.00     0.112 C 
ATOM     11  O   UNL     1      -3.078  -0.286  -1.918  1.00  0.00    -0.332 OA
ATOM     12  C   UNL     1      -4.526  -0.628   0.465  1.00  0.00     0.145 C 
ATOM     13  C   UNL     1      -3.624   0.590   0.190  1.00  0.00     0.142 C 
BRANCH   9  14
ATOM     14  O   UNL     1      -4.846  -1.030  -3.157  1.00  0.00    -0.357 OA
ATOM     15  H   UNL     1      -5.694  -1.530  -3.007  1.00  0.00     0.214 HD
ENDBRANCH   9  14
BRANCH   9  16
ATOM     16  C   UNL     1      -3.666  -2.533  -1.880  1.00  0.00     0.364 C 
ATOM     17  O   UNL     1      -3.863  -3.372  -2.783  1.00  0.00    -0.246 OA
BRANCH  16  18
ATOM     18  O   UNL     1      -2.957  -2.955  -0.775  1.00  0.00    -0.477 OA
ATOM     19  H   UNL     1      -2.920  -3.928  -0.479  1.00  0.00     0.296 HD
ENDBRANCH  16  18
ENDBRANCH   9  16
BRANCH  12  20
ATOM     20  O   UNL     1      -5.453  -0.326   1.458  1.00  0.00    -0.391 OA
ATOM     21  H   UNL     1      -5.468  -1.097   2.083  1.00  0.00     0.211 HD
ENDBRANCH  12  20
BRANCH  13  22
ATOM     22  N   UNL     1      -3.245   1.172   1.436  1.00  0.00    -0.348 N 
ATOM     23  C   UNL     1      -3.583   2.513   1.790  1.00  0.00     0.217 C 
ATOM     24  H   UNL     1      -2.715   0.614   2.130  1.00  0.00     0.163 HD
ATOM     25  C   UNL     1      -3.207   3.151   3.072  1.00  0.00     0.114 C 
ATOM     26  O   UNL     1      -4.239   3.187   0.962  1.00  0.00    -0.275 OA
ENDBRANCH  13  22
ENDBRANCH   7   8
BRANCH   7  27
ATOM     27  O   UNL     1      -1.718   2.209  -1.399  1.00  0.00    -0.388 OA
ATOM     28  H   UNL     1      -1.854   2.168  -2.380  1.00  0.00     0.211 HD
ENDBRANCH   7  27
ENDBRANCH   6   7
BRANCH   6  29
ATOM     29  O   UNL     1       0.716   1.824  -0.040  1.00  0.00    -0.388 OA
ATOM     30  H   UNL     1       0.563   2.471  -0.765  1.00  0.00     0.211 HD
ENDBRANCH   6  29
ENDBRANCH   5   6
ENDBRANCH   1   5
BRANCH   2  31
ATOM     31  O   UNL     1       2.619  -1.780  -1.213  1.00  0.00    -0.443 OA
BRANCH  31  32
ATOM     32  C   UNL     1       3.883  -1.641  -1.781  1.00  0.00     0.294 C 
BRANCH  32  33
ATOM     33  C   UNL     1       4.981  -1.444  -0.803  1.00  0.00     0.120 A 
ATOM     34  C   UNL     1       5.540  -0.295  -0.337  1.00  0.00     0.139 A 
ATOM     35  N   UNL     1       5.653  -2.449  -0.169  1.00  0.00    -0.132 NA
ATOM     36  N   UNL     1       6.508  -0.612   0.541  1.00  0.00    -0.241 N 
ATOM     37  N   UNL     1       6.565  -1.914   0.633  1.00  0.00    -0.066 NA
BRANCH  36  38
ATOM     38  C   UNL     1       7.336   0.339   1.254  1.00  0.00     0.268 C 
BRANCH  38  39
ATOM     39  C   UNL     1       8.549   0.634   0.466  1.00  0.00     0.325 C 
ATOM     40  O   UNL     1       9.581  -0.075   0.634  1.00  0.00    -0.250 OA
BRANCH  39  41
ATOM     41  O   UNL     1       8.560   1.669  -0.445  1.00  0.00    -0.480 OA
ATOM     42  H   UNL     1       9.477   2.048  -0.700  1.00  0.00     0.296 HD
ENDBRANCH  39  41
ENDBRANCH  38  39
ENDBRANCH  36  38
ENDBRANCH  32  33
ENDBRANCH  31  32
ENDBRANCH   2  31
TORSDOF 17
