REMARK SMILES CC(=O)N[C@@H]1[C@@H](O)C[C@](O)(C(=O)O)O[C@H]1C(O)[C@H](O)CNC(=O)OCc1cn([C@@H](C)C(=O)OCc2ccccc2)nn1
REMARK SMILES IDX 24 1 22 2 21 3 23 5 20 6 18 7 16 8 15 9 9 10 8 11 14 12 6 13
REMARK SMILES IDX 5 14 10 15 11 17 12 18 13 19 7 21 4 23 2 24 1 26 3 27 17 28
REMARK SMILES IDX 19 30 25 32 26 33 27 34 42 35 28 36 41 37 29 38 30 39 31 40
REMARK SMILES IDX 32 41 33 42 34 43 35 44 36 45 40 46 37 47 39 48 38 49
REMARK H PARENT 21 4 10 16 13 20 7 22 4 25 17 29 19 31
REMARK Flexibility Score: inf
ROOT
ATOM      1  O   UNL     1       0.244  -2.468   0.350  1.00  0.00    -0.443 OA
ENDROOT
BRANCH   1   2
ATOM      2  C   UNL     1      -0.514  -1.274   0.319  1.00  0.00     0.407 C 
ATOM      3  N   UNL     1      -1.649  -1.170  -0.513  1.00  0.00    -0.319 N 
ATOM      4  H   UNL     1      -1.864  -2.034  -1.104  1.00  0.00     0.167 HD
ATOM      5  O   UNL     1      -0.108  -0.360   1.061  1.00  0.00    -0.225 OA
BRANCH   3   6
ATOM      6  C   UNL     1      -2.471  -0.004  -0.583  1.00  0.00     0.154 C 
BRANCH   6   7
ATOM      7  C   UNL     1      -3.184   0.263   0.700  1.00  0.00     0.165 C 
BRANCH   7   8
ATOM      8  C   UNL     1      -4.069   1.499   0.559  1.00  0.00     0.176 C 
BRANCH   8   9
ATOM      9  C   UNL     1      -5.120   1.363  -0.498  1.00  0.00     0.178 C 
ATOM     10  C   UNL     1      -6.743   2.759   0.453  1.00  0.00     0.269 C 
ATOM     11  C   UNL     1      -7.480   1.543   0.915  1.00  0.00     0.112 C 
ATOM     12  O   UNL     1      -5.888   2.536  -0.598  1.00  0.00    -0.332 OA
ATOM     13  C   UNL     1      -7.449   0.502  -0.185  1.00  0.00     0.145 C 
ATOM     14  C   UNL     1      -5.986   0.150  -0.406  1.00  0.00     0.142 C 
BRANCH  10  15
ATOM     15  O   UNL     1      -6.097   3.358   1.510  1.00  0.00    -0.357 OA
ATOM     16  H   UNL     1      -5.933   4.331   1.366  1.00  0.00     0.214 HD
ENDBRANCH  10  15
BRANCH  10  17
ATOM     17  C   UNL     1      -7.759   3.749  -0.059  1.00  0.00     0.364 C 
ATOM     18  O   UNL     1      -8.502   3.461  -1.032  1.00  0.00    -0.246 OA
BRANCH  17  19
ATOM     19  O   UNL     1      -7.917   5.003   0.513  1.00  0.00    -0.477 OA
ATOM     20  H   UNL     1      -8.453   5.750   0.045  1.00  0.00     0.296 HD
ENDBRANCH  17  19
ENDBRANCH  10  17
BRANCH  13  21
ATOM     21  O   UNL     1      -8.200  -0.603   0.163  1.00  0.00    -0.391 OA
ATOM     22  H   UNL     1      -8.246  -0.750   1.141  1.00  0.00     0.211 HD
ENDBRANCH  13  21
BRANCH  14  23
ATOM     23  N   UNL     1      -5.876  -0.719  -1.582  1.00  0.00    -0.348 N 
ATOM     24  C   UNL     1      -5.472  -2.084  -1.494  1.00  0.00     0.217 C 
ATOM     25  H   UNL     1      -6.095  -0.354  -2.546  1.00  0.00     0.163 HD
ATOM     26  C   UNL     1      -5.378  -2.920  -2.730  1.00  0.00     0.114 C 
ATOM     27  O   UNL     1      -5.198  -2.577  -0.375  1.00  0.00    -0.275 OA
ENDBRANCH  14  23
ENDBRANCH   8   9
BRANCH   8  28
ATOM     28  O   UNL     1      -3.259   2.595   0.236  1.00  0.00    -0.388 OA
ATOM     29  H   UNL     1      -3.231   2.695  -0.754  1.00  0.00     0.211 HD
ENDBRANCH   8  28
ENDBRANCH   7   8
BRANCH   7  30
ATOM     30  O   UNL     1      -2.256   0.470   1.720  1.00  0.00    -0.388 OA
ATOM     31  H   UNL     1      -2.456  -0.080   2.533  1.00  0.00     0.211 HD
ENDBRANCH   7  30
ENDBRANCH   6   7
ENDBRANCH   3   6
ENDBRANCH   1   2
BRANCH   1  32
ATOM     32  C   UNL     1       1.374  -2.530   1.195  1.00  0.00     0.294 C 
BRANCH  32  33
ATOM     33  C   UNL     1       2.381  -1.508   0.852  1.00  0.00     0.120 A 
ATOM     34  C   UNL     1       3.601  -1.266   1.438  1.00  0.00     0.139 A 
ATOM     35  N   UNL     1       2.270  -0.605  -0.136  1.00  0.00    -0.132 NA
ATOM     36  N   UNL     1       4.198  -0.231   0.801  1.00  0.00    -0.238 N 
ATOM     37  N   UNL     1       3.376   0.146  -0.140  1.00  0.00    -0.066 NA
BRANCH  36  38
ATOM     38  C   UNL     1       5.487   0.322   1.121  1.00  0.00     0.215 C 
ATOM     39  C   UNL     1       5.998  -0.263   2.419  1.00  0.00     0.046 C 
BRANCH  38  40
ATOM     40  C   UNL     1       6.406   0.103  -0.004  1.00  0.00     0.331 C 
ATOM     41  O   UNL     1       6.925   1.100  -0.589  1.00  0.00    -0.250 OA
BRANCH  40  42
ATOM     42  O   UNL     1       6.736  -1.155  -0.462  1.00  0.00    -0.459 OA
BRANCH  42  43
ATOM     43  C   UNL     1       7.593  -1.459  -1.517  1.00  0.00     0.268 C 
BRANCH  43  44
ATOM     44  C   UNL     1       8.946  -0.912  -1.220  1.00  0.00    -0.011 A 
ATOM     45  C   UNL     1       9.762  -1.534  -0.301  1.00  0.00     0.007 A 
ATOM     46  C   UNL     1       9.387   0.212  -1.864  1.00  0.00     0.007 A 
ATOM     47  C   UNL     1      11.012  -1.035  -0.027  1.00  0.00     0.000 A 
ATOM     48  C   UNL     1      10.626   0.731  -1.611  1.00  0.00     0.000 A 
ATOM     49  C   UNL     1      11.436   0.107  -0.693  1.00  0.00     0.000 A 
ENDBRANCH  43  44
ENDBRANCH  42  43
ENDBRANCH  40  42
ENDBRANCH  38  40
ENDBRANCH  36  38
ENDBRANCH  32  33
ENDBRANCH   1  32
TORSDOF 19
