REMARK SMILES CC(=O)N[C@@H]1[C@@H](O)C[C@](O)(C(=O)O)O[C@H]1C(O)[C@H](O)CNC(=O)OCc1cn(Cc2cc(Br)cc(Br)c2O)nn1
REMARK SMILES IDX 21 1 22 2 23 3 20 5 18 6 16 7 15 8 9 9 8 10 14 11 6 12 5 13
REMARK SMILES IDX 10 14 11 16 12 17 13 18 7 20 4 22 2 23 1 25 3 26 17 27 19 29
REMARK SMILES IDX 24 31 25 32 26 33 27 34 40 35 28 36 39 37 29 38 30 39 31 40
REMARK SMILES IDX 37 41 32 42 35 43 33 44 34 45 36 46 38 47
REMARK H PARENT 21 4 10 15 13 19 7 21 4 24 17 28 19 30 38 48
REMARK Flexibility Score: inf
ROOT
ATOM      1  N   UNL     1      -0.142  -1.154   1.035  1.00  0.00    -0.319 N 
ATOM      2  C   UNL     1       1.118  -1.798   0.877  1.00  0.00     0.407 C 
ATOM      3  O   UNL     1       1.263  -2.962   1.315  1.00  0.00    -0.225 OA
ATOM      4  H   UNL     1      -0.236  -0.192   0.665  1.00  0.00     0.167 HD
ENDROOT
BRANCH   1   5
ATOM      5  C   UNL     1      -1.253  -1.797   1.683  1.00  0.00     0.154 C 
BRANCH   5   6
ATOM      6  C   UNL     1      -2.457  -0.900   1.710  1.00  0.00     0.165 C 
BRANCH   6   7
ATOM      7  C   UNL     1      -3.042  -0.687   0.331  1.00  0.00     0.176 C 
BRANCH   7   8
ATOM      8  C   UNL     1      -4.439  -0.053   0.463  1.00  0.00     0.178 C 
ATOM      9  C   UNL     1      -6.398  -1.225   1.035  1.00  0.00     0.269 C 
ATOM     10  C   UNL     1      -7.129  -0.202   0.152  1.00  0.00     0.112 C 
ATOM     11  O   UNL     1      -5.139  -0.811   1.314  1.00  0.00    -0.332 OA
ATOM     12  C   UNL     1      -6.360  -0.257  -1.159  1.00  0.00     0.145 C 
ATOM     13  C   UNL     1      -4.982   0.261  -0.866  1.00  0.00     0.142 C 
BRANCH   9  14
ATOM     14  O   UNL     1      -6.483  -2.426   0.360  1.00  0.00    -0.357 OA
ATOM     15  H   UNL     1      -6.450  -3.219   0.949  1.00  0.00     0.214 HD
ENDBRANCH   9  14
BRANCH   9  16
ATOM     16  C   UNL     1      -7.129  -1.358   2.320  1.00  0.00     0.364 C 
ATOM     17  O   UNL     1      -7.675  -2.456   2.593  1.00  0.00    -0.246 OA
BRANCH  16  18
ATOM     18  O   UNL     1      -7.230  -0.311   3.231  1.00  0.00    -0.477 OA
ATOM     19  H   UNL     1      -8.129  -0.247   3.730  1.00  0.00     0.296 HD
ENDBRANCH  16  18
ENDBRANCH   9  16
BRANCH  12  20
ATOM     20  O   UNL     1      -6.342  -1.554  -1.668  1.00  0.00    -0.391 OA
ATOM     21  H   UNL     1      -7.272  -1.837  -1.789  1.00  0.00     0.211 HD
ENDBRANCH  12  20
BRANCH  13  22
ATOM     22  N   UNL     1      -4.999   1.694  -1.157  1.00  0.00    -0.348 N 
ATOM     23  C   UNL     1      -4.285   2.277  -2.233  1.00  0.00     0.217 C 
ATOM     24  H   UNL     1      -5.560   2.363  -0.559  1.00  0.00     0.163 HD
ATOM     25  C   UNL     1      -4.331   3.748  -2.493  1.00  0.00     0.114 C 
ATOM     26  O   UNL     1      -3.595   1.545  -2.988  1.00  0.00    -0.275 OA
ENDBRANCH  13  22
ENDBRANCH   7   8
BRANCH   7  27
ATOM     27  O   UNL     1      -2.227   0.015  -0.522  1.00  0.00    -0.388 OA
ATOM     28  H   UNL     1      -1.755  -0.563  -1.157  1.00  0.00     0.211 HD
ENDBRANCH   7  27
ENDBRANCH   6   7
BRANCH   6  29
ATOM     29  O   UNL     1      -2.170   0.265   2.386  1.00  0.00    -0.388 OA
ATOM     30  H   UNL     1      -2.175   1.067   1.831  1.00  0.00     0.211 HD
ENDBRANCH   6  29
ENDBRANCH   5   6
ENDBRANCH   1   5
BRANCH   2  31
ATOM     31  O   UNL     1       2.161  -1.158   0.255  1.00  0.00    -0.443 OA
BRANCH  31  32
ATOM     32  C   UNL     1       3.425  -1.774   0.084  1.00  0.00     0.294 C 
BRANCH  32  33
ATOM     33  C   UNL     1       4.327  -0.823  -0.618  1.00  0.00     0.120 A 
ATOM     34  C   UNL     1       5.187   0.097  -0.032  1.00  0.00     0.138 A 
ATOM     35  N   UNL     1       4.510  -0.643  -1.939  1.00  0.00    -0.132 NA
ATOM     36  N   UNL     1       5.834   0.774  -0.992  1.00  0.00    -0.248 N 
ATOM     37  N   UNL     1       5.398   0.298  -2.170  1.00  0.00    -0.067 NA
BRANCH  36  38
ATOM     38  C   UNL     1       6.813   1.813  -0.834  1.00  0.00     0.185 C 
BRANCH  38  39
ATOM     39  C   UNL     1       8.204   1.296  -0.766  1.00  0.00     0.018 A 
ATOM     40  C   UNL     1       9.003   1.427  -1.884  1.00  0.00     0.025 A 
ATOM     41  C   UNL     1       8.732   0.695   0.352  1.00  0.00     0.134 A 
ATOM     42  C   UNL     1      10.306   0.982  -1.932  1.00  0.00     0.019 A 
ATOM     43  C   UNL     1      10.052   0.234   0.330  1.00  0.00     0.061 A 
ATOM     44  Br  UNL     1      11.384   1.177  -3.485  1.00  0.00    -0.051 Br
ATOM     45  C   UNL     1      10.826   0.376  -0.796  1.00  0.00     0.035 A 
ATOM     46  Br  UNL     1      10.709  -0.593   1.933  1.00  0.00    -0.047 Br
BRANCH  41  47
ATOM     47  O   UNL     1       7.958   0.549   1.488  1.00  0.00    -0.506 OA
ATOM     48  H   UNL     1       8.358   0.106   2.304  1.00  0.00     0.293 HD
ENDBRANCH  41  47
ENDBRANCH  38  39
ENDBRANCH  36  38
ENDBRANCH  32  33
ENDBRANCH  31  32
ENDBRANCH   2  31
TORSDOF 17
