REMARK SMILES CC(=O)N[C@@H]1[C@@H](O)C[C@](O)(C(=O)O)O[C@H]1C(O)[C@H](O)CNC(=O)OCc1cn(Cc2ccc(C(=O)O)cc2)nn1
REMARK SMILES IDX 21 1 22 2 23 3 20 5 18 6 16 7 15 8 9 9 8 10 14 11 6 12 5 13
REMARK SMILES IDX 10 14 11 16 12 17 13 18 7 20 4 22 2 23 1 25 3 26 17 27 19 29
REMARK SMILES IDX 24 31 25 32 26 33 27 34 40 35 28 36 39 37 29 38 30 39 31 40
REMARK SMILES IDX 38 41 32 42 37 43 33 44 34 45 35 46 36 47
REMARK H PARENT 21 4 10 15 13 19 7 21 4 24 17 28 19 30 36 48
REMARK Flexibility Score: inf
ROOT
ATOM      1  N   UNL     1      -0.931   1.334  -0.308  1.00  0.00    -0.319 N 
ATOM      2  C   UNL     1       0.244   0.585  -0.130  1.00  0.00     0.407 C 
ATOM      3  O   UNL     1       0.685   0.386   1.014  1.00  0.00    -0.225 OA
ATOM      4  H   UNL     1      -1.239   1.462  -1.320  1.00  0.00     0.167 HD
ENDROOT
BRANCH   1   5
ATOM      5  C   UNL     1      -1.693   1.903   0.772  1.00  0.00     0.154 C 
BRANCH   5   6
ATOM      6  C   UNL     1      -2.180   0.804   1.678  1.00  0.00     0.165 C 
BRANCH   6   7
ATOM      7  C   UNL     1      -2.939  -0.276   0.975  1.00  0.00     0.176 C 
BRANCH   7   8
ATOM      8  C   UNL     1      -4.351   0.216   0.608  1.00  0.00     0.178 C 
ATOM      9  C   UNL     1      -6.191   1.163   1.639  1.00  0.00     0.269 C 
ATOM     10  C   UNL     1      -7.047  -0.088   1.511  1.00  0.00     0.112 C 
ATOM     11  O   UNL     1      -4.889   0.742   1.763  1.00  0.00    -0.332 OA
ATOM     12  C   UNL     1      -6.607  -0.901   0.337  1.00  0.00     0.145 C 
ATOM     13  C   UNL     1      -5.114  -0.984   0.177  1.00  0.00     0.142 C 
BRANCH   9  14
ATOM     14  O   UNL     1      -6.573   1.710   2.898  1.00  0.00    -0.357 OA
ATOM     15  H   UNL     1      -7.579   1.673   2.951  1.00  0.00     0.214 HD
ENDBRANCH   9  14
BRANCH   9  16
ATOM     16  C   UNL     1      -6.466   2.130   0.573  1.00  0.00     0.364 C 
ATOM     17  O   UNL     1      -6.930   3.279   0.887  1.00  0.00    -0.246 OA
BRANCH  16  18
ATOM     18  O   UNL     1      -6.277   1.939  -0.781  1.00  0.00    -0.477 OA
ATOM     19  H   UNL     1      -6.979   2.318  -1.402  1.00  0.00     0.296 HD
ENDBRANCH  16  18
ENDBRANCH   9  16
BRANCH  12  20
ATOM     20  O   UNL     1      -7.069  -2.220   0.561  1.00  0.00    -0.391 OA
ATOM     21  H   UNL     1      -6.837  -2.727  -0.255  1.00  0.00     0.211 HD
ENDBRANCH  12  20
BRANCH  13  22
ATOM     22  N   UNL     1      -4.800  -1.412  -1.171  1.00  0.00    -0.348 N 
ATOM     23  C   UNL     1      -4.200  -2.667  -1.441  1.00  0.00     0.217 C 
ATOM     24  H   UNL     1      -5.010  -0.802  -1.990  1.00  0.00     0.163 HD
ATOM     25  C   UNL     1      -3.882  -3.092  -2.852  1.00  0.00     0.114 C 
ATOM     26  O   UNL     1      -3.937  -3.422  -0.486  1.00  0.00    -0.275 OA
ENDBRANCH  13  22
ENDBRANCH   7   8
BRANCH   7  27
ATOM     27  O   UNL     1      -2.297  -0.825  -0.108  1.00  0.00    -0.388 OA
ATOM     28  H   UNL     1      -1.723  -1.579   0.185  1.00  0.00     0.211 HD
ENDBRANCH   7  27
ENDBRANCH   6   7
BRANCH   6  29
ATOM     29  O   UNL     1      -2.938   1.296   2.749  1.00  0.00    -0.388 OA
ATOM     30  H   UNL     1      -2.486   2.106   3.121  1.00  0.00     0.211 HD
ENDBRANCH   6  29
ENDBRANCH   5   6
ENDBRANCH   1   5
BRANCH   2  31
ATOM     31  O   UNL     1       0.966   0.036  -1.182  1.00  0.00    -0.443 OA
BRANCH  31  32
ATOM     32  C   UNL     1       2.143  -0.717  -1.019  1.00  0.00     0.294 C 
BRANCH  32  33
ATOM     33  C   UNL     1       3.180   0.107  -0.364  1.00  0.00     0.120 A 
ATOM     34  C   UNL     1       4.251   0.724  -1.012  1.00  0.00     0.138 A 
ATOM     35  N   UNL     1       3.338   0.436   0.933  1.00  0.00    -0.132 NA
ATOM     36  N   UNL     1       4.986   1.379  -0.105  1.00  0.00    -0.248 N 
ATOM     37  N   UNL     1       4.415   1.190   1.060  1.00  0.00    -0.067 NA
BRANCH  36  38
ATOM     38  C   UNL     1       6.209   2.153  -0.366  1.00  0.00     0.181 C 
BRANCH  38  39
ATOM     39  C   UNL     1       7.335   1.176  -0.218  1.00  0.00    -0.026 A 
ATOM     40  C   UNL     1       7.775   0.488  -1.314  1.00  0.00     0.006 A 
ATOM     41  C   UNL     1       7.937   0.948   0.994  1.00  0.00     0.006 A 
ATOM     42  C   UNL     1       8.821  -0.434  -1.208  1.00  0.00     0.016 A 
ATOM     43  C   UNL     1       8.977   0.031   1.101  1.00  0.00     0.016 A 
ATOM     44  C   UNL     1       9.430  -0.670   0.001  1.00  0.00     0.059 A 
BRANCH  44  45
ATOM     45  C   UNL     1      10.522  -1.626   0.124  1.00  0.00     0.335 C 
ATOM     46  O   UNL     1      11.095  -1.871   1.208  1.00  0.00    -0.246 OA
BRANCH  45  47
ATOM     47  O   UNL     1      10.959  -2.307  -1.007  1.00  0.00    -0.478 OA
ATOM     48  H   UNL     1      11.866  -2.739  -1.040  1.00  0.00     0.297 HD
ENDBRANCH  45  47
ENDBRANCH  44  45
ENDBRANCH  38  39
ENDBRANCH  36  38
ENDBRANCH  32  33
ENDBRANCH  31  32
ENDBRANCH   2  31
TORSDOF 18
