REMARK SMILES CC(=O)N[C@@H]1[C@@H](O)C[C@](O)(C(=O)O)O[C@H]1C(O)[C@H](O)CNC(=O)OCc1cn([C@@H]2C[C@H]3CC[C@@H](C2)N3C)nn1
REMARK SMILES IDX 20 1 18 2 16 3 15 4 9 5 8 6 14 7 6 8 5 9 10 10 11 12 12 13
REMARK SMILES IDX 13 14 7 16 4 18 2 19 1 21 3 22 17 23 19 25 21 27 22 28 23 30
REMARK SMILES IDX 24 31 25 32 26 33 27 34 39 35 28 36 38 37 29 38 35 39 30 40
REMARK SMILES IDX 34 41 31 42 36 43 33 44 32 45 37 46
REMARK H PARENT 10 11 13 15 7 17 4 20 17 24 19 26 21 29
REMARK Flexibility Score: inf
ROOT
ATOM      1  C   UNL     1      -1.143   2.022   0.484  1.00  0.00     0.154 C 
ENDROOT
BRANCH   1   2
ATOM      2  C   UNL     1      -2.344   1.546  -0.279  1.00  0.00     0.165 C 
BRANCH   2   3
ATOM      3  C   UNL     1      -3.516   1.294   0.662  1.00  0.00     0.176 C 
BRANCH   3   4
ATOM      4  C   UNL     1      -4.711   0.869  -0.190  1.00  0.00     0.178 C 
ATOM      5  C   UNL     1      -6.201   1.920  -1.655  1.00  0.00     0.269 C 
ATOM      6  C   UNL     1      -7.413   1.561  -0.854  1.00  0.00     0.112 C 
ATOM      7  O   UNL     1      -5.020   1.895  -0.990  1.00  0.00    -0.332 OA
ATOM      8  C   UNL     1      -7.131   0.971   0.486  1.00  0.00     0.145 C 
ATOM      9  C   UNL     1      -5.820   0.274   0.632  1.00  0.00     0.142 C 
BRANCH   5  10
ATOM     10  O   UNL     1      -6.365   3.230  -2.116  1.00  0.00    -0.357 OA
ATOM     11  H   UNL     1      -5.637   3.514  -2.720  1.00  0.00     0.214 HD
ENDBRANCH   5  10
BRANCH   5  12
ATOM     12  C   UNL     1      -6.058   1.080  -2.863  1.00  0.00     0.364 C 
ATOM     13  O   UNL     1      -6.093   1.609  -3.994  1.00  0.00    -0.246 OA
BRANCH  12  14
ATOM     14  O   UNL     1      -5.883  -0.300  -2.832  1.00  0.00    -0.477 OA
ATOM     15  H   UNL     1      -6.437  -0.906  -3.457  1.00  0.00     0.296 HD
ENDBRANCH  12  14
ENDBRANCH   5  12
BRANCH   8  16
ATOM     16  O   UNL     1      -7.257   2.003   1.427  1.00  0.00    -0.391 OA
ATOM     17  H   UNL     1      -8.206   2.252   1.532  1.00  0.00     0.211 HD
ENDBRANCH   8  16
BRANCH   9  18
ATOM     18  N   UNL     1      -5.876  -1.156   0.497  1.00  0.00    -0.348 N 
ATOM     19  C   UNL     1      -5.553  -2.063   1.533  1.00  0.00     0.217 C 
ATOM     20  H   UNL     1      -6.173  -1.583  -0.421  1.00  0.00     0.163 HD
ATOM     21  C   UNL     1      -5.602  -3.536   1.416  1.00  0.00     0.114 C 
ATOM     22  O   UNL     1      -5.204  -1.537   2.617  1.00  0.00    -0.275 OA
ENDBRANCH   9  18
ENDBRANCH   3   4
BRANCH   3  23
ATOM     23  O   UNL     1      -3.823   2.407   1.427  1.00  0.00    -0.388 OA
ATOM     24  H   UNL     1      -3.698   3.210   0.859  1.00  0.00     0.211 HD
ENDBRANCH   3  23
ENDBRANCH   2   3
BRANCH   2  25
ATOM     25  O   UNL     1      -2.115   0.398  -0.983  1.00  0.00    -0.388 OA
ATOM     26  H   UNL     1      -2.340   0.534  -1.950  1.00  0.00     0.211 HD
ENDBRANCH   2  25
ENDBRANCH   1   2
BRANCH   1  27
ATOM     27  N   UNL     1      -0.034   2.323  -0.355  1.00  0.00    -0.319 N 
ATOM     28  C   UNL     1       0.651   1.397  -1.160  1.00  0.00     0.407 C 
ATOM     29  H   UNL     1       0.323   3.330  -0.389  1.00  0.00     0.167 HD
ATOM     30  O   UNL     1       0.346   0.191  -1.208  1.00  0.00    -0.225 OA
BRANCH  28  31
ATOM     31  O   UNL     1       1.729   1.840  -1.950  1.00  0.00    -0.443 OA
BRANCH  31  32
ATOM     32  C   UNL     1       2.408   0.896  -2.753  1.00  0.00     0.294 C 
BRANCH  32  33
ATOM     33  C   UNL     1       2.987  -0.164  -1.927  1.00  0.00     0.120 A 
ATOM     34  C   UNL     1       4.209  -0.097  -1.268  1.00  0.00     0.138 A 
ATOM     35  N   UNL     1       2.468  -1.361  -1.659  1.00  0.00    -0.132 NA
ATOM     36  N   UNL     1       4.384  -1.258  -0.625  1.00  0.00    -0.249 N 
ATOM     37  N   UNL     1       3.324  -1.995  -0.878  1.00  0.00    -0.067 NA
BRANCH  36  38
ATOM     38  C   UNL     1       5.500  -1.657   0.195  1.00  0.00     0.112 C 
ATOM     39  C   UNL     1       6.787  -1.483  -0.611  1.00  0.00     0.046 C 
ATOM     40  C   UNL     1       5.555  -0.698   1.364  1.00  0.00     0.046 C 
ATOM     41  C   UNL     1       7.959  -1.657   0.316  1.00  0.00     0.058 C 
ATOM     42  C   UNL     1       6.858  -0.817   2.085  1.00  0.00     0.058 C 
ATOM     43  N   UNL     1       8.003  -0.563   1.268  1.00  0.00    -0.300 NA
ATOM     44  C   UNL     1       7.731  -2.849   1.227  1.00  0.00     0.021 C 
ATOM     45  C   UNL     1       7.040  -2.299   2.437  1.00  0.00     0.021 C 
ATOM     46  C   UNL     1       8.000   0.727   0.641  1.00  0.00     0.105 C 
ENDBRANCH  36  38
ENDBRANCH  32  33
ENDBRANCH  31  32
ENDBRANCH  28  31
ENDBRANCH   1  27
TORSDOF 15
