REMARK SMILES CCOC(=O)c1cccc(-n2cc(COC(=O)NC[C@@H](O)C(O)[C@@H]3O[C@@](O)(C(=O)O)C[C@H](O)[C@H]3NC(C)=O)nn2)c1
REMARK SMILES IDX 18 1 16 2 17 3 19 5 20 6 22 7 24 8 26 9 31 10 25 11 32 12
REMARK SMILES IDX 34 13 27 14 28 16 29 17 30 18 33 20 35 22 36 23 37 25 38 26
REMARK SMILES IDX 23 27 21 29 15 31 14 32 13 33 12 34 39 35 11 36 40 37 10 38
REMARK SMILES IDX 41 39 9 40 6 41 8 42 7 43 4 44 5 45 3 46 2 47 1 48
REMARK H PARENT 18 4 27 15 30 19 33 21 35 24 23 28 21 30
REMARK Flexibility Score: inf
ROOT
ATOM      1  N   UNL     1      -0.865  -0.864   0.192  1.00  0.00    -0.319 N 
ATOM      2  C   UNL     1       0.346  -1.483   0.604  1.00  0.00     0.407 C 
ATOM      3  O   UNL     1       0.921  -1.047   1.632  1.00  0.00    -0.225 OA
ATOM      4  H   UNL     1      -1.324  -1.241  -0.661  1.00  0.00     0.167 HD
ENDROOT
BRANCH   1   5
ATOM      5  C   UNL     1      -1.436   0.246   0.927  1.00  0.00     0.154 C 
BRANCH   5   6
ATOM      6  C   UNL     1      -2.708   0.747   0.329  1.00  0.00     0.165 C 
BRANCH   6   7
ATOM      7  C   UNL     1      -3.853  -0.204   0.465  1.00  0.00     0.176 C 
BRANCH   7   8
ATOM      8  C   UNL     1      -5.181   0.487   0.060  1.00  0.00     0.178 C 
ATOM      9  C   UNL     1      -6.459   2.301   0.502  1.00  0.00     0.269 C 
ATOM     10  C   UNL     1      -7.619   1.486   1.027  1.00  0.00     0.112 C 
ATOM     11  O   UNL     1      -5.296   1.651   0.773  1.00  0.00    -0.332 OA
ATOM     12  C   UNL     1      -7.656   0.101   0.456  1.00  0.00     0.145 C 
ATOM     13  C   UNL     1      -6.298  -0.481   0.189  1.00  0.00     0.142 C 
BRANCH   9  14
ATOM     14  O   UNL     1      -6.456   3.482   1.297  1.00  0.00    -0.357 OA
ATOM     15  H   UNL     1      -7.314   3.633   1.732  1.00  0.00     0.214 HD
ENDBRANCH   9  14
BRANCH   9  16
ATOM     16  C   UNL     1      -6.685   2.703  -0.893  1.00  0.00     0.364 C 
ATOM     17  O   UNL     1      -6.820   1.867  -1.849  1.00  0.00    -0.246 OA
BRANCH  16  18
ATOM     18  O   UNL     1      -6.756   4.079  -1.185  1.00  0.00    -0.477 OA
ATOM     19  H   UNL     1      -6.640   4.355  -2.168  1.00  0.00     0.296 HD
ENDBRANCH  16  18
ENDBRANCH   9  16
BRANCH  12  20
ATOM     20  O   UNL     1      -8.405  -0.712   1.305  1.00  0.00    -0.391 OA
ATOM     21  H   UNL     1      -8.015  -1.616   1.410  1.00  0.00     0.211 HD
ENDBRANCH  12  20
BRANCH  13  22
ATOM     22  N   UNL     1      -6.312  -1.363  -0.964  1.00  0.00    -0.348 N 
ATOM     23  C   UNL     1      -6.180  -2.771  -0.835  1.00  0.00     0.217 C 
ATOM     24  H   UNL     1      -6.426  -0.923  -1.925  1.00  0.00     0.163 HD
ATOM     25  C   UNL     1      -6.202  -3.609  -2.062  1.00  0.00     0.114 C 
ATOM     26  O   UNL     1      -6.045  -3.319   0.312  1.00  0.00    -0.275 OA
ENDBRANCH  13  22
ENDBRANCH   7   8
BRANCH   7  27
ATOM     27  O   UNL     1      -3.744  -1.359  -0.268  1.00  0.00    -0.388 OA
ATOM     28  H   UNL     1      -3.381  -2.127   0.208  1.00  0.00     0.211 HD
ENDBRANCH   7  27
ENDBRANCH   6   7
BRANCH   6  29
ATOM     29  O   UNL     1      -2.507   1.185  -0.977  1.00  0.00    -0.388 OA
ATOM     30  H   UNL     1      -1.943   2.004  -0.928  1.00  0.00     0.211 HD
ENDBRANCH   6  29
ENDBRANCH   5   6
ENDBRANCH   1   5
BRANCH   2  31
ATOM     31  O   UNL     1       0.933  -2.544  -0.063  1.00  0.00    -0.443 OA
BRANCH  31  32
ATOM     32  C   UNL     1       2.140  -3.134   0.381  1.00  0.00     0.294 C 
BRANCH  32  33
ATOM     33  C   UNL     1       3.228  -2.138   0.401  1.00  0.00     0.121 A 
ATOM     34  C   UNL     1       4.116  -1.804  -0.607  1.00  0.00     0.144 A 
ATOM     35  N   UNL     1       3.575  -1.341   1.435  1.00  0.00    -0.131 NA
ATOM     36  N   UNL     1       4.951  -0.841  -0.164  1.00  0.00    -0.220 N 
ATOM     37  N   UNL     1       4.584  -0.586   1.095  1.00  0.00    -0.062 NA
BRANCH  36  38
ATOM     38  C   UNL     1       6.010  -0.200  -0.843  1.00  0.00     0.067 A 
ATOM     39  C   UNL     1       7.203   0.092  -0.209  1.00  0.00     0.044 A 
ATOM     40  C   UNL     1       5.895   0.159  -2.168  1.00  0.00     0.028 A 
ATOM     41  C   UNL     1       8.263   0.717  -0.836  1.00  0.00     0.062 A 
ATOM     42  C   UNL     1       6.946   0.789  -2.828  1.00  0.00     0.003 A 
ATOM     43  C   UNL     1       8.113   1.061  -2.160  1.00  0.00     0.016 A 
BRANCH  41  44
ATOM     44  C   UNL     1       9.511   1.012  -0.142  1.00  0.00     0.338 C 
ATOM     45  O   UNL     1      10.440   1.584  -0.763  1.00  0.00    -0.246 OA
BRANCH  44  46
ATOM     46  O   UNL     1       9.720   0.687   1.188  1.00  0.00    -0.462 OA
BRANCH  46  47
ATOM     47  C   UNL     1      10.929   0.973   1.863  1.00  0.00     0.230 C 
ATOM     48  C   UNL     1      11.153   2.457   1.839  1.00  0.00     0.049 C 
ENDBRANCH  46  47
ENDBRANCH  44  46
ENDBRANCH  41  44
ENDBRANCH  36  38
ENDBRANCH  32  33
ENDBRANCH  31  32
ENDBRANCH   2  31
TORSDOF 18
