REMARK SMILES CC(=O)N[C@@H]1[C@@H](O)C[C@](O)(C(=O)O)O[C@H]1C(O)[C@H](O)CNC(=O)OCc1cn(-c2cccc(C=CC(=O)O)c2)nn1
REMARK SMILES IDX 21 1 22 2 23 3 20 5 18 6 16 7 15 8 9 9 8 10 14 11 6 12 5 13
REMARK SMILES IDX 10 14 11 16 12 17 13 18 7 20 4 22 2 23 1 25 3 26 17 27 19 29
REMARK SMILES IDX 24 31 25 32 26 33 27 34 41 35 28 36 40 37 29 38 39 39 30 40
REMARK SMILES IDX 33 41 31 42 32 43 34 44 35 45 36 46 37 47 38 48
REMARK H PARENT 21 4 10 15 13 19 7 21 4 24 17 28 19 30 38 49
REMARK Flexibility Score: inf
ROOT
ATOM      1  N   UNL     1      -0.944   1.511  -1.636  1.00  0.00    -0.319 N 
ATOM      2  C   UNL     1       0.305   0.960  -2.003  1.00  0.00     0.407 C 
ATOM      3  O   UNL     1       0.767  -0.074  -1.478  1.00  0.00    -0.225 OA
ATOM      4  H   UNL     1      -1.225   2.412  -2.157  1.00  0.00     0.167 HD
ENDROOT
BRANCH   1   5
ATOM      5  C   UNL     1      -1.848   0.985  -0.654  1.00  0.00     0.154 C 
BRANCH   5   6
ATOM      6  C   UNL     1      -2.368  -0.356  -1.062  1.00  0.00     0.165 C 
BRANCH   6   7
ATOM      7  C   UNL     1      -3.398  -0.933  -0.110  1.00  0.00     0.176 C 
BRANCH   7   8
ATOM      8  C   UNL     1      -4.641  -0.121  -0.113  1.00  0.00     0.178 C 
ATOM      9  C   UNL     1      -5.791   1.778   0.522  1.00  0.00     0.269 C 
ATOM     10  C   UNL     1      -6.851   1.178  -0.359  1.00  0.00     0.112 C 
ATOM     11  O   UNL     1      -4.584   1.109   0.462  1.00  0.00    -0.332 OA
ATOM     12  C   UNL     1      -7.063  -0.282  -0.198  1.00  0.00     0.145 C 
ATOM     13  C   UNL     1      -5.837  -0.905   0.424  1.00  0.00     0.142 C 
BRANCH   9  14
ATOM     14  O   UNL     1      -6.284   1.896   1.821  1.00  0.00    -0.357 OA
ATOM     15  H   UNL     1      -6.870   2.675   1.933  1.00  0.00     0.214 HD
ENDBRANCH   9  14
BRANCH   9  16
ATOM     16  C   UNL     1      -5.544   3.161   0.027  1.00  0.00     0.364 C 
ATOM     17  O   UNL     1      -5.084   3.329  -1.153  1.00  0.00    -0.246 OA
BRANCH  16  18
ATOM     18  O   UNL     1      -5.796   4.283   0.804  1.00  0.00    -0.477 OA
ATOM     19  H   UNL     1      -5.446   5.192   0.577  1.00  0.00     0.296 HD
ENDBRANCH  16  18
ENDBRANCH   9  16
BRANCH  12  20
ATOM     20  O   UNL     1      -8.219  -0.603   0.507  1.00  0.00    -0.391 OA
ATOM     21  H   UNL     1      -8.978  -0.134   0.124  1.00  0.00     0.211 HD
ENDBRANCH  12  20
BRANCH  13  22
ATOM     22  N   UNL     1      -5.737  -2.309   0.173  1.00  0.00    -0.348 N 
ATOM     23  C   UNL     1      -5.770  -3.276   1.211  1.00  0.00     0.217 C 
ATOM     24  H   UNL     1      -5.633  -2.688  -0.815  1.00  0.00     0.163 HD
ATOM     25  C   UNL     1      -5.664  -4.715   0.903  1.00  0.00     0.114 C 
ATOM     26  O   UNL     1      -5.890  -2.925   2.411  1.00  0.00    -0.275 OA
ENDBRANCH  13  22
ENDBRANCH   7   8
BRANCH   7  27
ATOM     27  O   UNL     1      -2.866  -1.187   1.150  1.00  0.00    -0.388 OA
ATOM     28  H   UNL     1      -2.323  -2.003   1.089  1.00  0.00     0.211 HD
ENDBRANCH   7  27
ENDBRANCH   6   7
BRANCH   6  29
ATOM     29  O   UNL     1      -1.339  -1.287  -1.218  1.00  0.00    -0.388 OA
ATOM     30  H   UNL     1      -1.716  -2.199  -1.078  1.00  0.00     0.211 HD
ENDBRANCH   6  29
ENDBRANCH   5   6
ENDBRANCH   1   5
BRANCH   2  31
ATOM     31  O   UNL     1       1.100   1.567  -2.998  1.00  0.00    -0.443 OA
BRANCH  31  32
ATOM     32  C   UNL     1       2.324   0.991  -3.327  1.00  0.00     0.294 C 
BRANCH  32  33
ATOM     33  C   UNL     1       3.257   0.921  -2.177  1.00  0.00     0.121 A 
ATOM     34  C   UNL     1       4.543   0.442  -2.102  1.00  0.00     0.144 A 
ATOM     35  N   UNL     1       2.967   1.347  -0.936  1.00  0.00    -0.131 NA
ATOM     36  N   UNL     1       5.007   0.583  -0.835  1.00  0.00    -0.220 N 
ATOM     37  N   UNL     1       4.024   1.137  -0.150  1.00  0.00    -0.062 NA
BRANCH  36  38
ATOM     38  C   UNL     1       6.306   0.194  -0.385  1.00  0.00     0.067 A 
ATOM     39  C   UNL     1       6.808   0.641   0.809  1.00  0.00     0.036 A 
ATOM     40  C   UNL     1       7.083  -0.642  -1.153  1.00  0.00     0.028 A 
ATOM     41  C   UNL     1       8.101   0.260   1.264  1.00  0.00    -0.023 A 
ATOM     42  C   UNL     1       8.329  -1.044  -0.774  1.00  0.00     0.003 A 
ATOM     43  C   UNL     1       8.825  -0.575   0.455  1.00  0.00     0.008 A 
BRANCH  41  44
ATOM     44  C   UNL     1       8.548   0.723   2.531  1.00  0.00     0.015 C 
ATOM     45  C   UNL     1       9.619   0.756   3.224  1.00  0.00     0.094 C 
BRANCH  45  46
ATOM     46  C   UNL     1      10.951   0.330   3.055  1.00  0.00     0.328 C 
ATOM     47  O   UNL     1      11.803   0.540   4.057  1.00  0.00    -0.247 OA
BRANCH  46  48
ATOM     48  O   UNL     1      11.597  -0.289   2.015  1.00  0.00    -0.478 OA
ATOM     49  H   UNL     1      12.389  -0.901   2.135  1.00  0.00     0.297 HD
ENDBRANCH  46  48
ENDBRANCH  45  46
ENDBRANCH  41  44
ENDBRANCH  36  38
ENDBRANCH  32  33
ENDBRANCH  31  32
ENDBRANCH   2  31
TORSDOF 18
