REMARK SMILES CC(=O)N[C@@H]1[C@@H](O)C[C@](O)(C(=O)O)O[C@H]1C(O)[C@H](O)CNC(=O)OCc1cn(CC(=O)NCc2cccs2)nn1
REMARK SMILES IDX 21 1 22 2 23 3 20 5 18 6 16 7 15 8 9 9 8 10 14 11 6 12 5 13
REMARK SMILES IDX 10 14 11 16 12 17 13 18 7 20 4 22 2 23 1 25 3 26 17 27 19 29
REMARK SMILES IDX 24 31 25 32 26 33 27 34 40 35 28 36 39 37 29 38 30 39 31 40
REMARK SMILES IDX 32 41 33 43 34 44 35 45 38 46 36 47 37 48
REMARK H PARENT 21 4 10 15 13 19 7 21 4 24 17 28 19 30 32 42
REMARK Flexibility Score: inf
ROOT
ATOM      1  N   UNL     1      -1.339   0.256   1.873  1.00  0.00    -0.319 N 
ATOM      2  C   UNL     1      -0.365  -0.764   1.860  1.00  0.00     0.407 C 
ATOM      3  O   UNL     1      -0.561  -1.787   2.560  1.00  0.00    -0.225 OA
ATOM      4  H   UNL     1      -1.155   1.098   1.284  1.00  0.00     0.167 HD
ENDROOT
BRANCH   1   5
ATOM      5  C   UNL     1      -2.570   0.222   2.637  1.00  0.00     0.154 C 
BRANCH   5   6
ATOM      6  C   UNL     1      -3.429  -0.939   2.221  1.00  0.00     0.165 C 
BRANCH   6   7
ATOM      7  C   UNL     1      -3.566  -1.118   0.747  1.00  0.00     0.176 C 
BRANCH   7   8
ATOM      8  C   UNL     1      -4.807  -0.635   0.097  1.00  0.00     0.178 C 
ATOM      9  C   UNL     1      -6.054  -1.152  -1.814  1.00  0.00     0.269 C 
ATOM     10  C   UNL     1      -7.042  -0.245  -1.103  1.00  0.00     0.112 C 
ATOM     11  O   UNL     1      -4.939  -1.438  -1.084  1.00  0.00    -0.332 OA
ATOM     12  C   UNL     1      -6.342   1.027  -0.772  1.00  0.00     0.145 C 
ATOM     13  C   UNL     1      -4.874   0.757  -0.385  1.00  0.00     0.142 C 
BRANCH   9  14
ATOM     14  O   UNL     1      -5.753  -0.496  -3.023  1.00  0.00    -0.357 OA
ATOM     15  H   UNL     1      -5.077  -1.039  -3.515  1.00  0.00     0.214 HD
ENDBRANCH   9  14
BRANCH   9  16
ATOM     16  C   UNL     1      -6.699  -2.444  -2.165  1.00  0.00     0.364 C 
ATOM     17  O   UNL     1      -6.861  -2.732  -3.369  1.00  0.00    -0.246 OA
BRANCH  16  18
ATOM     18  O   UNL     1      -7.128  -3.343  -1.193  1.00  0.00    -0.477 OA
ATOM     19  H   UNL     1      -7.252  -4.309  -1.500  1.00  0.00     0.296 HD
ENDBRANCH  16  18
ENDBRANCH   9  16
BRANCH  12  20
ATOM     20  O   UNL     1      -6.420   1.984  -1.760  1.00  0.00    -0.391 OA
ATOM     21  H   UNL     1      -7.296   2.445  -1.747  1.00  0.00     0.211 HD
ENDBRANCH  12  20
BRANCH  13  22
ATOM     22  N   UNL     1      -4.515   1.808   0.492  1.00  0.00    -0.348 N 
ATOM     23  C   UNL     1      -3.538   2.751   0.110  1.00  0.00     0.217 C 
ATOM     24  H   UNL     1      -4.949   1.915   1.419  1.00  0.00     0.163 HD
ATOM     25  C   UNL     1      -3.124   3.878   1.002  1.00  0.00     0.114 C 
ATOM     26  O   UNL     1      -2.945   2.702  -1.020  1.00  0.00    -0.275 OA
ENDBRANCH  13  22
ENDBRANCH   7   8
BRANCH   7  27
ATOM     27  O   UNL     1      -2.394  -0.968   0.020  1.00  0.00    -0.388 OA
ATOM     28  H   UNL     1      -2.518  -0.662  -0.887  1.00  0.00     0.211 HD
ENDBRANCH   7  27
ENDBRANCH   6   7
BRANCH   6  29
ATOM     29  O   UNL     1      -4.636  -1.030   2.902  1.00  0.00    -0.388 OA
ATOM     30  H   UNL     1      -4.910  -1.958   3.085  1.00  0.00     0.211 HD
ENDBRANCH   6  29
ENDBRANCH   5   6
ENDBRANCH   1   5
BRANCH   2  31
ATOM     31  O   UNL     1       0.807  -0.676   1.096  1.00  0.00    -0.443 OA
BRANCH  31  32
ATOM     32  C   UNL     1       1.758  -1.725   1.111  1.00  0.00     0.294 C 
BRANCH  32  33
ATOM     33  C   UNL     1       2.880  -1.343   0.209  1.00  0.00     0.120 A 
ATOM     34  C   UNL     1       3.975  -2.098  -0.157  1.00  0.00     0.138 A 
ATOM     35  N   UNL     1       3.046  -0.174  -0.430  1.00  0.00    -0.132 NA
ATOM     36  N   UNL     1       4.748  -1.379  -0.984  1.00  0.00    -0.243 N 
ATOM     37  N   UNL     1       4.160  -0.212  -1.134  1.00  0.00    -0.067 NA
BRANCH  36  38
ATOM     38  C   UNL     1       6.003  -1.858  -1.586  1.00  0.00     0.245 C 
BRANCH  38  39
ATOM     39  C   UNL     1       7.089  -1.496  -0.645  1.00  0.00     0.242 C 
ATOM     40  O   UNL     1       7.383  -2.318   0.285  1.00  0.00    -0.273 OA
ATOM     41  N   UNL     1       7.840  -0.298  -0.689  1.00  0.00    -0.350 N 
ATOM     42  H   UNL     1       7.600   0.369  -1.444  1.00  0.00     0.163 HD
BRANCH  41  43
ATOM     43  C   UNL     1       8.893   0.013   0.250  1.00  0.00     0.162 C 
BRANCH  43  44
ATOM     44  C   UNL     1       9.441   1.368  -0.153  1.00  0.00     0.024 A 
ATOM     45  C   UNL     1      10.396   1.672  -1.024  1.00  0.00     0.017 A 
ATOM     46  S   UNL     1       8.919   2.900   0.466  1.00  0.00    -0.147 S 
ATOM     47  C   UNL     1      10.744   2.958  -1.243  1.00  0.00     0.012 A 
ATOM     48  C   UNL     1      10.037   3.914  -0.499  1.00  0.00     0.065 A 
ENDBRANCH  43  44
ENDBRANCH  41  43
ENDBRANCH  38  39
ENDBRANCH  36  38
ENDBRANCH  32  33
ENDBRANCH  31  32
ENDBRANCH   2  31
TORSDOF 18
