REMARK SMILES CC(=O)N[C@@H]1[C@@H](O)C[C@](O)(C(=O)O)O[C@H]1C(O)[C@H](O)CNC(=O)OCc1cn(C[C@@H](C)CN2CCN(c3ccc(Cl)cc3)CC2)nn1
REMARK SMILES IDX 24 1 22 2 21 3 23 5 20 6 18 7 16 8 15 9 9 10 8 11 14 12 6 13
REMARK SMILES IDX 5 14 10 15 11 17 12 18 13 19 7 21 4 23 2 24 1 26 3 27 17 28
REMARK SMILES IDX 19 30 25 32 26 33 27 34 47 35 28 36 46 37 29 38 30 39 31 40
REMARK SMILES IDX 32 41 33 42 34 43 45 44 35 45 44 46 36 47 37 48 38 49 43 50
REMARK SMILES IDX 39 51 42 52 40 53 41 54
REMARK H PARENT 21 4 10 16 13 20 7 22 4 25 17 29 19 31
REMARK Flexibility Score: inf
ROOT
ATOM      1  O   UNL     1      -0.134  -0.214  -0.582  1.00  0.00    -0.443 OA
ENDROOT
BRANCH   1   2
ATOM      2  C   UNL     1      -0.982   0.373   0.344  1.00  0.00     0.407 C 
ATOM      3  N   UNL     1      -2.355   0.034   0.497  1.00  0.00    -0.319 N 
ATOM      4  H   UNL     1      -2.726  -0.695  -0.142  1.00  0.00     0.167 HD
ATOM      5  O   UNL     1      -0.466   1.257   1.081  1.00  0.00    -0.225 OA
BRANCH   3   6
ATOM      6  C   UNL     1      -3.085   0.725   1.509  1.00  0.00     0.154 C 
BRANCH   6   7
ATOM      7  C   UNL     1      -4.505   0.357   1.672  1.00  0.00     0.165 C 
BRANCH   7   8
ATOM      8  C   UNL     1      -5.416   0.727   0.515  1.00  0.00     0.176 C 
BRANCH   8   9
ATOM      9  C   UNL     1      -6.814   0.343   1.004  1.00  0.00     0.178 C 
ATOM     10  C   UNL     1      -7.990  -1.595   1.557  1.00  0.00     0.269 C 
ATOM     11  C   UNL     1      -9.219  -1.035   0.899  1.00  0.00     0.112 C 
ATOM     12  O   UNL     1      -6.820  -1.017   1.144  1.00  0.00    -0.332 OA
ATOM     13  C   UNL     1      -9.195   0.434   0.676  1.00  0.00     0.145 C 
ATOM     14  C   UNL     1      -7.843   0.773   0.012  1.00  0.00     0.142 C 
BRANCH  10  15
ATOM     15  O   UNL     1      -7.938  -2.948   1.132  1.00  0.00    -0.357 OA
ATOM     16  H   UNL     1      -7.472  -3.033   0.280  1.00  0.00     0.214 HD
ENDBRANCH  10  15
BRANCH  10  17
ATOM     17  C   UNL     1      -8.098  -1.641   3.045  1.00  0.00     0.364 C 
ATOM     18  O   UNL     1      -8.150  -0.575   3.709  1.00  0.00    -0.246 OA
BRANCH  17  19
ATOM     19  O   UNL     1      -8.147  -2.828   3.761  1.00  0.00    -0.477 OA
ATOM     20  H   UNL     1      -8.124  -2.889   4.772  1.00  0.00     0.296 HD
ENDBRANCH  17  19
ENDBRANCH  10  17
BRANCH  13  21
ATOM     21  O   UNL     1     -10.212   0.769  -0.218  1.00  0.00    -0.391 OA
ATOM     22  H   UNL     1     -10.033   0.382  -1.115  1.00  0.00     0.211 HD
ENDBRANCH  13  21
BRANCH  14  23
ATOM     23  N   UNL     1      -7.785   2.178  -0.295  1.00  0.00    -0.348 N 
ATOM     24  C   UNL     1      -7.663   2.635  -1.626  1.00  0.00     0.217 C 
ATOM     25  H   UNL     1      -7.834   2.864   0.477  1.00  0.00     0.163 HD
ATOM     26  C   UNL     1      -7.611   4.113  -1.831  1.00  0.00     0.114 C 
ATOM     27  O   UNL     1      -7.601   1.870  -2.611  1.00  0.00    -0.275 OA
ENDBRANCH  14  23
ENDBRANCH   8   9
BRANCH   8  28
ATOM     28  O   UNL     1      -5.327   2.112   0.300  1.00  0.00    -0.388 OA
ATOM     29  H   UNL     1      -4.636   2.236  -0.400  1.00  0.00     0.211 HD
ENDBRANCH   8  28
ENDBRANCH   7   8
BRANCH   7  30
ATOM     30  O   UNL     1      -5.004   1.139   2.751  1.00  0.00    -0.388 OA
ATOM     31  H   UNL     1      -4.797   2.079   2.482  1.00  0.00     0.211 HD
ENDBRANCH   7  30
ENDBRANCH   6   7
ENDBRANCH   3   6
ENDBRANCH   1   2
BRANCH   1  32
ATOM     32  C   UNL     1       1.227   0.176  -0.670  1.00  0.00     0.294 C 
BRANCH  32  33
ATOM     33  C   UNL     1       1.926  -0.616  -1.707  1.00  0.00     0.120 A 
ATOM     34  C   UNL     1       3.307  -0.578  -1.917  1.00  0.00     0.138 A 
ATOM     35  N   UNL     1       1.481  -1.495  -2.615  1.00  0.00    -0.132 NA
ATOM     36  N   UNL     1       3.650  -1.408  -2.912  1.00  0.00    -0.252 N 
ATOM     37  N   UNL     1       2.490  -1.963  -3.328  1.00  0.00    -0.067 NA
BRANCH  36  38
ATOM     38  C   UNL     1       4.961  -1.710  -3.457  1.00  0.00     0.150 C 
BRANCH  38  39
ATOM     39  C   UNL     1       5.542  -2.929  -2.729  1.00  0.00     0.022 C 
ATOM     40  C   UNL     1       6.876  -3.306  -3.254  1.00  0.00     0.011 C 
BRANCH  39  41
ATOM     41  C   UNL     1       5.331  -2.851  -1.275  1.00  0.00     0.089 C 
BRANCH  41  42
ATOM     42  N   UNL     1       5.931  -1.706  -0.665  1.00  0.00    -0.299 NA
ATOM     43  C   UNL     1       5.387  -1.525   0.708  1.00  0.00     0.106 C 
ATOM     44  C   UNL     1       7.350  -1.957  -0.433  1.00  0.00     0.106 C 
ATOM     45  C   UNL     1       6.100  -0.443   1.439  1.00  0.00     0.132 C 
ATOM     46  C   UNL     1       7.958  -0.556  -0.264  1.00  0.00     0.132 C 
ATOM     47  N   UNL     1       7.254   0.105   0.797  1.00  0.00    -0.369 N 
BRANCH  47  48
ATOM     48  C   UNL     1       7.747   1.369   1.225  1.00  0.00     0.037 A 
ATOM     49  C   UNL     1       7.192   1.972   2.332  1.00  0.00     0.027 A 
ATOM     50  C   UNL     1       8.771   2.006   0.538  1.00  0.00     0.027 A 
ATOM     51  C   UNL     1       7.667   3.198   2.736  1.00  0.00     0.022 A 
ATOM     52  C   UNL     1       9.235   3.228   0.949  1.00  0.00     0.022 A 
ATOM     53  C   UNL     1       8.672   3.827   2.065  1.00  0.00     0.041 A 
ATOM     54  Cl  UNL     1       9.269   5.385   2.570  1.00  0.00    -0.084 Cl
ENDBRANCH  47  48
ENDBRANCH  41  42
ENDBRANCH  39  41
ENDBRANCH  38  39
ENDBRANCH  36  38
ENDBRANCH  32  33
ENDBRANCH   1  32
TORSDOF 19
