REMARK SMILES CC(=O)N[C@@H]1[C@@H](O)C[C@](O)(C(=O)O)O[C@H]1C(O)[C@H](O)CNC(=O)OCc1cn(COCc2ccccc2)nn1
REMARK SMILES IDX 21 1 22 2 23 3 20 5 18 6 16 7 15 8 9 9 8 10 14 11 6 12 5 13
REMARK SMILES IDX 10 14 11 16 12 17 13 18 7 20 4 22 2 23 1 25 3 26 17 27 19 29
REMARK SMILES IDX 24 31 25 32 26 33 27 34 39 35 28 36 38 37 29 38 30 39 31 40
REMARK SMILES IDX 32 41 33 42 37 43 34 44 36 45 35 46
REMARK H PARENT 21 4 10 15 13 19 7 21 4 24 17 28 19 30
REMARK Flexibility Score: inf
ROOT
ATOM      1  N   UNL     1      -0.515   1.328   1.828  1.00  0.00    -0.319 N 
ATOM      2  C   UNL     1       0.846   1.659   2.095  1.00  0.00     0.407 C 
ATOM      3  O   UNL     1       1.671   0.779   2.488  1.00  0.00    -0.225 OA
ATOM      4  H   UNL     1      -1.158   2.070   1.509  1.00  0.00     0.167 HD
ENDROOT
BRANCH   1   5
ATOM      5  C   UNL     1      -0.911  -0.052   2.024  1.00  0.00     0.154 C 
BRANCH   5   6
ATOM      6  C   UNL     1      -2.366  -0.275   1.711  1.00  0.00     0.165 C 
BRANCH   6   7
ATOM      7  C   UNL     1      -2.633   0.026   0.252  1.00  0.00     0.176 C 
BRANCH   7   8
ATOM      8  C   UNL     1      -4.088   0.026  -0.082  1.00  0.00     0.178 C 
ATOM      9  C   UNL     1      -6.072   1.100   0.501  1.00  0.00     0.269 C 
ATOM     10  C   UNL     1      -6.755  -0.137  -0.065  1.00  0.00     0.112 C 
ATOM     11  O   UNL     1      -4.731   0.888   0.801  1.00  0.00    -0.332 OA
ATOM     12  C   UNL     1      -6.073  -1.335   0.559  1.00  0.00     0.145 C 
ATOM     13  C   UNL     1      -4.674  -1.368  -0.035  1.00  0.00     0.142 C 
BRANCH   9  14
ATOM     14  O   UNL     1      -6.703   1.350   1.718  1.00  0.00    -0.357 OA
ATOM     15  H   UNL     1      -7.500   1.928   1.613  1.00  0.00     0.214 HD
ENDBRANCH   9  14
BRANCH   9  16
ATOM     16  C   UNL     1      -6.277   2.254  -0.383  1.00  0.00     0.364 C 
ATOM     17  O   UNL     1      -6.938   3.239   0.030  1.00  0.00    -0.246 OA
BRANCH  16  18
ATOM     18  O   UNL     1      -5.776   2.328  -1.677  1.00  0.00    -0.477 OA
ATOM     19  H   UNL     1      -5.669   3.249  -2.091  1.00  0.00     0.296 HD
ENDBRANCH  16  18
ENDBRANCH   9  16
BRANCH  12  20
ATOM     20  O   UNL     1      -6.012  -1.226   1.945  1.00  0.00    -0.391 OA
ATOM     21  H   UNL     1      -5.267  -1.816   2.276  1.00  0.00     0.211 HD
ENDBRANCH  12  20
BRANCH  13  22
ATOM     22  N   UNL     1      -4.802  -1.873  -1.385  1.00  0.00    -0.348 N 
ATOM     23  C   UNL     1      -4.193  -3.105  -1.746  1.00  0.00     0.217 C 
ATOM     24  H   UNL     1      -5.333  -1.375  -2.141  1.00  0.00     0.163 HD
ATOM     25  C   UNL     1      -4.294  -3.671  -3.119  1.00  0.00     0.114 C 
ATOM     26  O   UNL     1      -3.538  -3.768  -0.901  1.00  0.00    -0.275 OA
ENDBRANCH  13  22
ENDBRANCH   7   8
BRANCH   7  27
ATOM     27  O   UNL     1      -1.856  -0.784  -0.539  1.00  0.00    -0.388 OA
ATOM     28  H   UNL     1      -2.327  -0.890  -1.414  1.00  0.00     0.211 HD
ENDBRANCH   7  27
ENDBRANCH   6   7
BRANCH   6  29
ATOM     29  O   UNL     1      -3.135   0.525   2.547  1.00  0.00    -0.388 OA
ATOM     30  H   UNL     1      -3.274   0.067   3.418  1.00  0.00     0.211 HD
ENDBRANCH   6  29
ENDBRANCH   5   6
ENDBRANCH   1   5
BRANCH   2  31
ATOM     31  O   UNL     1       1.338   2.948   1.942  1.00  0.00    -0.443 OA
BRANCH  31  32
ATOM     32  C   UNL     1       2.679   3.314   2.196  1.00  0.00     0.294 C 
BRANCH  32  33
ATOM     33  C   UNL     1       3.644   2.584   1.345  1.00  0.00     0.120 A 
ATOM     34  C   UNL     1       3.441   1.697   0.309  1.00  0.00     0.141 A 
ATOM     35  N   UNL     1       4.980   2.681   1.462  1.00  0.00    -0.132 NA
ATOM     36  N   UNL     1       4.641   1.284  -0.169  1.00  0.00    -0.226 N 
ATOM     37  N   UNL     1       5.546   1.908   0.561  1.00  0.00    -0.065 NA
BRANCH  36  38
ATOM     38  C   UNL     1       4.887   0.340  -1.270  1.00  0.00     0.307 C 
BRANCH  38  39
ATOM     39  O   UNL     1       4.961  -0.952  -0.759  1.00  0.00    -0.355 OA
BRANCH  39  40
ATOM     40  C   UNL     1       5.974  -1.101   0.159  1.00  0.00     0.198 C 
BRANCH  40  41
ATOM     41  C   UNL     1       7.327  -0.842  -0.373  1.00  0.00    -0.022 A 
ATOM     42  C   UNL     1       8.313  -0.364   0.466  1.00  0.00     0.006 A 
ATOM     43  C   UNL     1       7.630  -1.073  -1.691  1.00  0.00     0.006 A 
ATOM     44  C   UNL     1       9.602  -0.118  -0.014  1.00  0.00     0.000 A 
ATOM     45  C   UNL     1       8.910  -0.827  -2.162  1.00  0.00     0.000 A 
ATOM     46  C   UNL     1       9.888  -0.356  -1.344  1.00  0.00     0.000 A 
ENDBRANCH  40  41
ENDBRANCH  39  40
ENDBRANCH  38  39
ENDBRANCH  36  38
ENDBRANCH  32  33
ENDBRANCH  31  32
ENDBRANCH   2  31
TORSDOF 18
