REMARK SMILES CC(=O)N[C@@H]1[C@@H](O)C[C@](O)(C(=O)O)O[C@H]1C(O)[C@H](O)CNC(=O)OCc1cn(-c2nc(C)nc(N)n2)nn1
REMARK SMILES IDX 21 1 22 2 23 3 20 5 18 6 16 7 15 8 9 9 8 10 14 11 6 12 5 13
REMARK SMILES IDX 10 14 11 16 12 17 13 18 7 20 4 22 2 23 1 25 3 26 17 27 19 29
REMARK SMILES IDX 24 31 25 32 26 33 27 34 38 35 28 36 37 37 29 38 36 39 30 40
REMARK SMILES IDX 34 41 31 42 33 43 32 44 35 45
REMARK H PARENT 21 4 10 15 13 19 7 21 4 24 17 28 19 30 35 46 35 47
REMARK Flexibility Score: inf
ROOT
ATOM      1  N   UNL     1      -0.519   1.620   2.807  1.00  0.00    -0.319 N 
ATOM      2  C   UNL     1       0.799   1.999   2.485  1.00  0.00     0.407 C 
ATOM      3  O   UNL     1       1.190   2.262   1.326  1.00  0.00    -0.225 OA
ATOM      4  H   UNL     1      -0.818   1.409   3.806  1.00  0.00     0.167 HD
ENDROOT
BRANCH   1   5
ATOM      5  C   UNL     1      -1.510   1.508   1.758  1.00  0.00     0.154 C 
BRANCH   5   6
ATOM      6  C   UNL     1      -1.080   0.444   0.798  1.00  0.00     0.165 C 
BRANCH   6   7
ATOM      7  C   UNL     1      -2.060   0.351  -0.354  1.00  0.00     0.176 C 
BRANCH   7   8
ATOM      8  C   UNL     1      -3.396  -0.111   0.207  1.00  0.00     0.178 C 
ATOM      9  C   UNL     1      -3.574  -2.451   0.418  1.00  0.00     0.269 C 
ATOM     10  C   UNL     1      -4.408  -2.539  -0.821  1.00  0.00     0.112 C 
ATOM     11  O   UNL     1      -3.214  -1.253   0.868  1.00  0.00    -0.332 OA
ATOM     12  C   UNL     1      -5.320  -1.319  -0.844  1.00  0.00     0.145 C 
ATOM     13  C   UNL     1      -4.350  -0.144  -0.957  1.00  0.00     0.142 C 
BRANCH   9  14
ATOM     14  O   UNL     1      -2.400  -3.195   0.151  1.00  0.00    -0.357 OA
ATOM     15  H   UNL     1      -2.567  -3.905  -0.511  1.00  0.00     0.214 HD
ENDBRANCH   9  14
BRANCH   9  16
ATOM     16  C   UNL     1      -4.296  -3.187   1.487  1.00  0.00     0.364 C 
ATOM     17  O   UNL     1      -5.389  -2.758   1.936  1.00  0.00    -0.246 OA
BRANCH  16  18
ATOM     18  O   UNL     1      -3.806  -4.362   2.032  1.00  0.00    -0.477 OA
ATOM     19  H   UNL     1      -4.141  -4.741   2.920  1.00  0.00     0.296 HD
ENDBRANCH  16  18
ENDBRANCH   9  16
BRANCH  12  20
ATOM     20  O   UNL     1      -6.138  -1.311  -1.957  1.00  0.00    -0.391 OA
ATOM     21  H   UNL     1      -7.028  -0.960  -1.667  1.00  0.00     0.211 HD
ENDBRANCH  12  20
BRANCH  13  22
ATOM     22  N   UNL     1      -5.065   1.107  -1.083  1.00  0.00    -0.348 N 
ATOM     23  C   UNL     1      -4.973   1.888  -2.263  1.00  0.00     0.217 C 
ATOM     24  H   UNL     1      -5.643   1.390  -0.259  1.00  0.00     0.163 HD
ATOM     25  C   UNL     1      -5.729   3.158  -2.328  1.00  0.00     0.114 C 
ATOM     26  O   UNL     1      -4.278   1.538  -3.242  1.00  0.00    -0.275 OA
ENDBRANCH  13  22
ENDBRANCH   7   8
BRANCH   7  27
ATOM     27  O   UNL     1      -1.583  -0.630  -1.264  1.00  0.00    -0.388 OA
ATOM     28  H   UNL     1      -0.664  -0.313  -1.497  1.00  0.00     0.211 HD
ENDBRANCH   7  27
ENDBRANCH   6   7
BRANCH   6  29
ATOM     29  O   UNL     1      -0.988  -0.777   1.482  1.00  0.00    -0.388 OA
ATOM     30  H   UNL     1      -0.329  -1.363   1.070  1.00  0.00     0.211 HD
ENDBRANCH   6  29
ENDBRANCH   5   6
ENDBRANCH   1   5
BRANCH   2  31
ATOM     31  O   UNL     1       1.742   2.092   3.523  1.00  0.00    -0.443 OA
BRANCH  31  32
ATOM     32  C   UNL     1       3.056   2.474   3.178  1.00  0.00     0.294 C 
BRANCH  32  33
ATOM     33  C   UNL     1       3.610   1.467   2.215  1.00  0.00     0.121 A 
ATOM     34  C   UNL     1       4.854   1.477   1.613  1.00  0.00     0.148 A 
ATOM     35  N   UNL     1       3.013   0.350   1.739  1.00  0.00    -0.131 NA
ATOM     36  N   UNL     1       4.983   0.401   0.811  1.00  0.00    -0.185 N 
ATOM     37  N   UNL     1       3.852  -0.261   0.909  1.00  0.00    -0.059 NA
BRANCH  36  38
ATOM     38  C   UNL     1       6.126   0.060   0.019  1.00  0.00     0.257 A 
ATOM     39  N   UNL     1       7.008   0.990  -0.391  1.00  0.00    -0.175 NA
ATOM     40  N   UNL     1       6.358  -1.216  -0.346  1.00  0.00    -0.196 NA
ATOM     41  C   UNL     1       8.091   0.712  -1.134  1.00  0.00     0.225 A 
ATOM     42  C   UNL     1       7.435  -1.561  -1.097  1.00  0.00     0.133 A 
ATOM     43  N   UNL     1       8.276  -0.593  -1.474  1.00  0.00    -0.198 NA
ATOM     44  C   UNL     1       7.701  -2.966  -1.506  1.00  0.00     0.090 C 
BRANCH  41  45
ATOM     45  N   UNL     1       9.017   1.684  -1.565  1.00  0.00    -0.368 N 
ATOM     46  H   UNL     1       9.097   1.912  -2.565  1.00  0.00     0.159 HD
ATOM     47  H   UNL     1       9.613   2.164  -0.876  1.00  0.00     0.159 HD
ENDBRANCH  41  45
ENDBRANCH  36  38
ENDBRANCH  32  33
ENDBRANCH  31  32
ENDBRANCH   2  31
TORSDOF 16
