REMARK SMILES COCC(C(N)=O)n1cc(COC(=O)NC[C@@H](O)C(O)[C@@H]2O[C@@](O)(C(=O)O)C[C@H](O)[C@H]2NC(C)=O)nn1
REMARK SMILES IDX 15 1 13 2 14 3 16 5 17 6 19 7 21 8 23 9 28 10 22 11 29 12
REMARK SMILES IDX 31 13 24 14 25 16 26 17 27 18 30 20 32 22 33 23 34 25 35 26
REMARK SMILES IDX 20 27 18 29 12 31 11 32 10 33 9 34 36 35 8 36 37 37 4 38
REMARK SMILES IDX 3 39 2 40 1 41 5 42 7 43 6 44
REMARK H PARENT 15 4 24 15 27 19 30 21 32 24 20 28 18 30 6 45 6 46
REMARK Flexibility Score: inf
ROOT
ATOM      1  N   UNL     1       0.308  -0.839   0.114  1.00  0.00    -0.319 N 
ATOM      2  C   UNL     1      -0.883  -0.263   0.600  1.00  0.00     0.407 C 
ATOM      3  O   UNL     1      -1.405   0.740   0.063  1.00  0.00    -0.225 OA
ATOM      4  H   UNL     1       0.665  -1.683   0.630  1.00  0.00     0.167 HD
ENDROOT
BRANCH   1   5
ATOM      5  C   UNL     1       1.066  -0.386  -1.001  1.00  0.00     0.154 C 
BRANCH   5   6
ATOM      6  C   UNL     1       1.653   0.975  -0.928  1.00  0.00     0.165 C 
BRANCH   6   7
ATOM      7  C   UNL     1       2.571   1.164   0.260  1.00  0.00     0.176 C 
BRANCH   7   8
ATOM      8  C   UNL     1       3.647   0.134   0.395  1.00  0.00     0.178 C 
ATOM      9  C   UNL     1       5.209  -0.593   1.939  1.00  0.00     0.269 C 
ATOM     10  C   UNL     1       5.294  -1.670   0.890  1.00  0.00     0.112 C 
ATOM     11  O   UNL     1       4.239   0.353   1.657  1.00  0.00    -0.332 OA
ATOM     12  C   UNL     1       5.496  -1.152  -0.489  1.00  0.00     0.145 C 
ATOM     13  C   UNL     1       4.741   0.181  -0.615  1.00  0.00     0.142 C 
BRANCH   9  14
ATOM     14  O   UNL     1       6.466  -0.044   2.119  1.00  0.00    -0.357 OA
ATOM     15  H   UNL     1       6.455   0.815   2.609  1.00  0.00     0.214 HD
ENDBRANCH   9  14
BRANCH   9  16
ATOM     16  C   UNL     1       4.823  -1.253   3.216  1.00  0.00     0.364 C 
ATOM     17  O   UNL     1       3.716  -1.844   3.352  1.00  0.00    -0.246 OA
BRANCH  16  18
ATOM     18  O   UNL     1       5.664  -1.254   4.334  1.00  0.00    -0.477 OA
ATOM     19  H   UNL     1       5.559  -1.932   5.077  1.00  0.00     0.296 HD
ENDBRANCH  16  18
ENDBRANCH   9  16
BRANCH  12  20
ATOM     20  O   UNL     1       6.838  -0.984  -0.824  1.00  0.00    -0.391 OA
ATOM     21  H   UNL     1       6.961  -1.404  -1.719  1.00  0.00     0.211 HD
ENDBRANCH  12  20
BRANCH  13  22
ATOM     22  N   UNL     1       4.369   0.291  -1.983  1.00  0.00    -0.348 N 
ATOM     23  C   UNL     1       4.826   1.368  -2.833  1.00  0.00     0.217 C 
ATOM     24  H   UNL     1       3.755  -0.401  -2.463  1.00  0.00     0.163 HD
ATOM     25  C   UNL     1       4.412   1.441  -4.253  1.00  0.00     0.114 C 
ATOM     26  O   UNL     1       5.572   2.239  -2.370  1.00  0.00    -0.275 OA
ENDBRANCH  13  22
ENDBRANCH   7   8
BRANCH   7  27
ATOM     27  O   UNL     1       1.715   0.945   1.384  1.00  0.00    -0.388 OA
ATOM     28  H   UNL     1       1.875   1.605   2.078  1.00  0.00     0.211 HD
ENDBRANCH   7  27
ENDBRANCH   6   7
BRANCH   6  29
ATOM     29  O   UNL     1       0.645   1.926  -0.789  1.00  0.00    -0.388 OA
ATOM     30  H   UNL     1       1.039   2.828  -0.728  1.00  0.00     0.211 HD
ENDBRANCH   6  29
ENDBRANCH   5   6
ENDBRANCH   1   5
BRANCH   2  31
ATOM     31  O   UNL     1      -1.535  -0.793   1.710  1.00  0.00    -0.443 OA
BRANCH  31  32
ATOM     32  C   UNL     1      -2.722  -0.232   2.207  1.00  0.00     0.294 C 
BRANCH  32  33
ATOM     33  C   UNL     1      -3.784  -0.255   1.185  1.00  0.00     0.120 A 
ATOM     34  C   UNL     1      -5.080   0.208   1.305  1.00  0.00     0.139 A 
ATOM     35  N   UNL     1      -3.644  -0.751  -0.063  1.00  0.00    -0.132 NA
ATOM     36  N   UNL     1      -5.674  -0.019   0.139  1.00  0.00    -0.237 N 
ATOM     37  N   UNL     1      -4.824  -0.586  -0.667  1.00  0.00    -0.066 NA
BRANCH  36  38
ATOM     38  C   UNL     1      -7.057   0.308  -0.199  1.00  0.00     0.223 C 
BRANCH  38  39
ATOM     39  C   UNL     1      -7.966  -0.449   0.727  1.00  0.00     0.197 C 
BRANCH  39  40
ATOM     40  O   UNL     1      -7.772  -1.806   0.606  1.00  0.00    -0.382 OA
ATOM     41  C   UNL     1      -8.019  -2.314  -0.651  1.00  0.00     0.195 C 
ENDBRANCH  39  40
ENDBRANCH  38  39
BRANCH  38  42
ATOM     42  C   UNL     1      -7.271   1.776   0.019  1.00  0.00     0.244 C 
ATOM     43  O   UNL     1      -8.120   2.180   0.827  1.00  0.00    -0.273 OA
ATOM     44  N   UNL     1      -6.470   2.677  -0.731  1.00  0.00    -0.368 N 
ATOM     45  H   UNL     1      -6.310   3.638  -0.351  1.00  0.00     0.159 HD
ATOM     46  H   UNL     1      -6.054   2.396  -1.627  1.00  0.00     0.159 HD
ENDBRANCH  38  42
ENDBRANCH  36  38
ENDBRANCH  32  33
ENDBRANCH  31  32
ENDBRANCH   2  31
TORSDOF 18
