REMARK SMILES CC(=O)N[C@@H]1[C@@H](O)C[C@](O)(C(=O)O)O[C@H]1C(O)[C@H](O)CNC(=O)OCc1cn([C@@H](CC(=O)O)C(=O)O)nn1
REMARK SMILES IDX 21 1 22 2 23 3 20 5 18 6 16 7 15 8 9 9 8 10 14 11 6 12 5 13
REMARK SMILES IDX 10 14 11 16 12 17 13 18 7 20 4 22 2 23 1 25 3 26 17 27 19 29
REMARK SMILES IDX 24 31 25 32 26 33 27 34 38 35 28 36 37 37 29 38 30 39 31 40
REMARK SMILES IDX 32 41 33 42 34 44 35 45 36 46
REMARK H PARENT 21 4 10 15 13 19 7 21 4 24 17 28 19 30 33 43 36 47
REMARK Flexibility Score: inf
ROOT
ATOM      1  N   UNL     1      -0.194   3.495  -1.420  1.00  0.00    -0.319 N 
ATOM      2  C   UNL     1       1.122   3.123  -1.013  1.00  0.00     0.407 C 
ATOM      3  O   UNL     1       1.345   2.954   0.191  1.00  0.00    -0.225 OA
ATOM      4  H   UNL     1      -0.309   3.622  -2.460  1.00  0.00     0.167 HD
ENDROOT
BRANCH   1   5
ATOM      5  C   UNL     1      -1.296   3.691  -0.531  1.00  0.00     0.154 C 
BRANCH   5   6
ATOM      6  C   UNL     1      -1.621   2.415   0.218  1.00  0.00     0.165 C 
BRANCH   6   7
ATOM      7  C   UNL     1      -1.903   1.273  -0.741  1.00  0.00     0.176 C 
BRANCH   7   8
ATOM      8  C   UNL     1      -2.070  -0.050  -0.085  1.00  0.00     0.178 C 
ATOM      9  C   UNL     1      -3.133  -0.993  -1.923  1.00  0.00     0.269 C 
ATOM     10  C   UNL     1      -4.425  -0.464  -1.461  1.00  0.00     0.112 C 
ATOM     11  O   UNL     1      -2.113  -1.095  -1.013  1.00  0.00    -0.332 OA
ATOM     12  C   UNL     1      -4.569  -0.072  -0.044  1.00  0.00     0.145 C 
ATOM     13  C   UNL     1      -3.306  -0.123   0.768  1.00  0.00     0.142 C 
BRANCH   9  14
ATOM     14  O   UNL     1      -2.613  -0.212  -2.987  1.00  0.00    -0.357 OA
ATOM     15  H   UNL     1      -3.382  -0.082  -3.604  1.00  0.00     0.214 HD
ENDBRANCH   9  14
BRANCH   9  16
ATOM     16  C   UNL     1      -3.295  -2.348  -2.519  1.00  0.00     0.364 C 
ATOM     17  O   UNL     1      -3.007  -2.637  -3.703  1.00  0.00    -0.246 OA
BRANCH  16  18
ATOM     18  O   UNL     1      -3.797  -3.351  -1.705  1.00  0.00    -0.477 OA
ATOM     19  H   UNL     1      -4.201  -4.216  -2.087  1.00  0.00     0.296 HD
ENDBRANCH  16  18
ENDBRANCH   9  16
BRANCH  12  20
ATOM     20  O   UNL     1      -5.136   1.195   0.058  1.00  0.00    -0.391 OA
ATOM     21  H   UNL     1      -5.610   1.492  -0.737  1.00  0.00     0.211 HD
ENDBRANCH  12  20
BRANCH  13  22
ATOM     22  N   UNL     1      -3.259  -1.379   1.556  1.00  0.00    -0.348 N 
ATOM     23  C   UNL     1      -3.167  -1.348   2.966  1.00  0.00     0.217 C 
ATOM     24  H   UNL     1      -3.291  -2.312   1.094  1.00  0.00     0.163 HD
ATOM     25  C   UNL     1      -3.116  -2.585   3.799  1.00  0.00     0.114 C 
ATOM     26  O   UNL     1      -3.127  -0.236   3.534  1.00  0.00    -0.275 OA
ENDBRANCH  13  22
ENDBRANCH   7   8
BRANCH   7  27
ATOM     27  O   UNL     1      -0.736   1.253  -1.558  1.00  0.00    -0.388 OA
ATOM     28  H   UNL     1      -0.245   0.407  -1.435  1.00  0.00     0.211 HD
ENDBRANCH   7  27
ENDBRANCH   6   7
BRANCH   6  29
ATOM     29  O   UNL     1      -2.667   2.680   1.092  1.00  0.00    -0.388 OA
ATOM     30  H   UNL     1      -2.371   2.840   2.022  1.00  0.00     0.211 HD
ENDBRANCH   6  29
ENDBRANCH   5   6
ENDBRANCH   1   5
BRANCH   2  31
ATOM     31  O   UNL     1       2.156   2.945  -1.917  1.00  0.00    -0.443 OA
BRANCH  31  32
ATOM     32  C   UNL     1       3.435   2.578  -1.464  1.00  0.00     0.294 C 
BRANCH  32  33
ATOM     33  C   UNL     1       3.436   1.284  -0.740  1.00  0.00     0.120 A 
ATOM     34  C   UNL     1       4.579   0.721  -0.225  1.00  0.00     0.139 A 
ATOM     35  N   UNL     1       2.436   0.455  -0.451  1.00  0.00    -0.132 NA
ATOM     36  N   UNL     1       4.232  -0.449   0.370  1.00  0.00    -0.237 N 
ATOM     37  N   UNL     1       2.945  -0.570   0.212  1.00  0.00    -0.066 NA
BRANCH  36  38
ATOM     38  C   UNL     1       5.206  -1.316   1.027  1.00  0.00     0.229 C 
BRANCH  38  39
ATOM     39  C   UNL     1       5.969  -2.091  -0.012  1.00  0.00     0.161 C 
BRANCH  39  40
ATOM     40  C   UNL     1       5.095  -2.940  -0.836  1.00  0.00     0.306 C 
ATOM     41  O   UNL     1       3.860  -2.943  -0.607  1.00  0.00    -0.252 OA
BRANCH  40  42
ATOM     42  O   UNL     1       5.653  -3.714  -1.842  1.00  0.00    -0.481 OA
ATOM     43  H   UNL     1       5.067  -4.425  -2.307  1.00  0.00     0.296 HD
ENDBRANCH  40  42
ENDBRANCH  39  40
ENDBRANCH  38  39
BRANCH  38  44
ATOM     44  C   UNL     1       6.189  -0.456   1.741  1.00  0.00     0.329 C 
ATOM     45  O   UNL     1       7.423  -0.455   1.502  1.00  0.00    -0.250 OA
BRANCH  44  46
ATOM     46  O   UNL     1       5.718   0.392   2.728  1.00  0.00    -0.480 OA
ATOM     47  H   UNL     1       6.333   0.895   3.357  1.00  0.00     0.296 HD
ENDBRANCH  44  46
ENDBRANCH  38  44
ENDBRANCH  36  38
ENDBRANCH  32  33
ENDBRANCH  31  32
ENDBRANCH   2  31
TORSDOF 20
