REMARK SMILES CC(=O)N[C@@H]1[C@@H](O)C[C@](O)(C(=O)O)O[C@H]1C(O)[C@H](O)CNC(=O)OCc1cn(C2CC(O)C=C[C@@H](O)C2)nn1
REMARK SMILES IDX 21 1 22 2 23 3 20 5 18 6 16 7 15 8 9 9 8 10 14 11 6 12 5 13
REMARK SMILES IDX 10 14 11 16 12 17 13 18 7 20 4 22 2 23 1 25 3 26 17 27 19 29
REMARK SMILES IDX 24 31 25 32 26 33 27 34 39 35 28 36 38 37 29 38 30 39 31 40
REMARK SMILES IDX 32 42 37 44 35 45 34 46 33 47 36 49
REMARK H PARENT 21 4 10 15 13 19 7 21 4 24 17 28 19 30 32 43 36 50
REMARK Flexibility Score: 90.00
ROOT
ATOM      1  N   UNL     1      -0.711  -0.084  -1.075  1.00  0.00    -0.319 N 
ATOM      2  C   UNL     1       0.179  -1.195  -0.975  1.00  0.00     0.407 C 
ATOM      3  O   UNL     1      -0.221  -2.375  -0.797  1.00  0.00    -0.225 OA
ATOM      4  H   UNL     1      -0.351   0.884  -1.222  1.00  0.00     0.167 HD
ENDROOT
BRANCH   1   5
ATOM      5  C   UNL     1      -2.137  -0.392  -0.958  1.00  0.00     0.154 C 
BRANCH   5   6
ATOM      6  C   UNL     1      -2.875   0.927  -1.093  1.00  0.00     0.165 C 
BRANCH   6   7
ATOM      7  C   UNL     1      -4.377   0.758  -1.074  1.00  0.00     0.176 C 
BRANCH   7   8
ATOM      8  C   UNL     1      -4.895   0.406   0.285  1.00  0.00     0.178 C 
ATOM      9  C   UNL     1      -5.194  -1.180   1.895  1.00  0.00     0.269 C 
ATOM     10  C   UNL     1      -5.672   0.047   2.642  1.00  0.00     0.112 C 
ATOM     11  O   UNL     1      -4.558  -0.853   0.704  1.00  0.00    -0.332 OA
ATOM     12  C   UNL     1      -6.686   0.836   1.838  1.00  0.00     0.145 C 
ATOM     13  C   UNL     1      -6.397   0.558   0.391  1.00  0.00     0.142 C 
BRANCH   9  14
ATOM     14  O   UNL     1      -6.227  -2.091   1.704  1.00  0.00    -0.357 OA
ATOM     15  H   UNL     1      -7.068  -1.797   2.144  1.00  0.00     0.214 HD
ENDBRANCH   9  14
BRANCH   9  16
ATOM     16  C   UNL     1      -4.176  -1.829   2.756  1.00  0.00     0.364 C 
ATOM     17  O   UNL     1      -3.114  -1.247   3.107  1.00  0.00    -0.246 OA
BRANCH  16  18
ATOM     18  O   UNL     1      -4.388  -3.117   3.195  1.00  0.00    -0.477 OA
ATOM     19  H   UNL     1      -3.752  -3.632   3.796  1.00  0.00     0.296 HD
ENDBRANCH  16  18
ENDBRANCH   9  16
BRANCH  12  20
ATOM     20  O   UNL     1      -7.939   0.439   2.244  1.00  0.00    -0.391 OA
ATOM     21  H   UNL     1      -8.197   1.019   3.026  1.00  0.00     0.211 HD
ENDBRANCH  12  20
BRANCH  13  22
ATOM     22  N   UNL     1      -6.943   1.486  -0.528  1.00  0.00    -0.348 N 
ATOM     23  C   UNL     1      -7.894   1.187  -1.540  1.00  0.00     0.217 C 
ATOM     24  H   UNL     1      -6.628   2.478  -0.469  1.00  0.00     0.163 HD
ATOM     25  C   UNL     1      -8.410   2.241  -2.464  1.00  0.00     0.114 C 
ATOM     26  O   UNL     1      -8.286   0.007  -1.631  1.00  0.00    -0.275 OA
ENDBRANCH  13  22
ENDBRANCH   7   8
BRANCH   7  27
ATOM     27  O   UNL     1      -4.813  -0.064  -2.084  1.00  0.00    -0.388 OA
ATOM     28  H   UNL     1      -4.228   0.059  -2.864  1.00  0.00     0.211 HD
ENDBRANCH   7  27
ENDBRANCH   6   7
BRANCH   6  29
ATOM     29  O   UNL     1      -2.577   1.497  -2.353  1.00  0.00    -0.388 OA
ATOM     30  H   UNL     1      -1.687   1.949  -2.337  1.00  0.00     0.211 HD
ENDBRANCH   6  29
ENDBRANCH   5   6
ENDBRANCH   1   5
BRANCH   2  31
ATOM     31  O   UNL     1       1.533  -0.988  -1.075  1.00  0.00    -0.443 OA
BRANCH  31  32
ATOM     32  C   UNL     1       2.505  -2.015  -0.991  1.00  0.00     0.294 C 
BRANCH  32  33
ATOM     33  C   UNL     1       3.847  -1.407  -1.143  1.00  0.00     0.120 A 
ATOM     34  C   UNL     1       4.694  -0.909  -0.178  1.00  0.00     0.138 A 
ATOM     35  N   UNL     1       4.476  -1.242  -2.323  1.00  0.00    -0.132 NA
ATOM     36  N   UNL     1       5.807  -0.457  -0.785  1.00  0.00    -0.249 N 
ATOM     37  N   UNL     1       5.633  -0.679  -2.090  1.00  0.00    -0.067 NA
BRANCH  36  38
ATOM     38  C   UNL     1       6.965   0.152  -0.129  1.00  0.00     0.115 C 
BRANCH  38  39
ATOM     39  C   UNL     1       7.936   0.539  -1.193  1.00  0.00     0.063 C 
BRANCH  39  40
ATOM     40  C   UNL     1       9.364   0.518  -0.775  1.00  0.00     0.139 CG0
ATOM     41  G   UNL     1       9.608   1.168   0.523  1.00  0.00     0.000 G0
BRANCH  40  42
ATOM     42  O   UNL     1       9.925  -0.777  -0.838  1.00  0.00    -0.389 OA
ATOM     43  H   UNL     1      10.822  -0.747  -0.442  1.00  0.00     0.211 HD
ENDBRANCH  40  42
ENDBRANCH  39  40
ENDBRANCH  38  39
BRANCH  38  44
ATOM     44  C   UNL     1       7.492  -0.828   0.862  1.00  0.00     0.063 C 
BRANCH  44  45
ATOM     45  C   UNL     1       8.164  -0.211   2.051  1.00  0.00     0.139 C 
BRANCH  45  46
ATOM     46  C   UNL     1       9.112   0.870   1.703  1.00  0.00     0.002 C 
ATOM     47  C   UNL     1       9.608   1.168   0.523  1.00  0.00     0.002 CG0
ATOM     48  G   UNL     1       9.364   0.518  -0.775  1.00  0.00     0.000 G0
ENDBRANCH  45  46
BRANCH  45  49
ATOM     49  O   UNL     1       7.256   0.207   3.022  1.00  0.00    -0.389 OA
ATOM     50  H   UNL     1       6.805   1.049   2.761  1.00  0.00     0.211 HD
ENDBRANCH  45  49
ENDBRANCH  44  45
ENDBRANCH  38  44
ENDBRANCH  36  38
ENDBRANCH  32  33
ENDBRANCH  31  32
ENDBRANCH   2  31
TORSDOF 17
