REMARK SMILES CC(=O)N[C@@H]1[C@@H](O)C[C@](O)(C(=O)O)O[C@H]1C(O)[C@H](O)CNC(=O)OCc1cn(C[C@@H](C(=O)O)C(c2ccccc2)c2ccccc2)nn1
REMARK SMILES IDX 21 1 22 2 23 3 20 5 18 6 16 7 15 8 9 9 8 10 14 11 6 12 5 13
REMARK SMILES IDX 10 14 11 16 12 17 13 18 7 20 4 22 2 23 1 25 3 26 17 27 19 29
REMARK SMILES IDX 24 31 25 32 26 33 27 34 48 35 28 36 47 37 29 38 30 39 31 40
REMARK SMILES IDX 32 41 33 42 34 44 35 45 36 46 40 47 37 48 39 49 38 50 41 51
REMARK SMILES IDX 42 52 46 53 43 54 45 55 44 56
REMARK H PARENT 21 4 10 15 13 19 7 21 4 24 17 28 19 30 33 43
REMARK Flexibility Score: inf
ROOT
ATOM      1  N   UNL     1      -2.272   2.313  -0.066  1.00  0.00    -0.319 N 
ATOM      2  C   UNL     1      -1.689   1.473   0.918  1.00  0.00     0.407 C 
ATOM      3  O   UNL     1      -2.290   1.284   2.016  1.00  0.00    -0.225 OA
ATOM      4  H   UNL     1      -1.705   2.420  -0.958  1.00  0.00     0.167 HD
ENDROOT
BRANCH   1   5
ATOM      5  C   UNL     1      -3.539   2.982   0.107  1.00  0.00     0.154 C 
BRANCH   5   6
ATOM      6  C   UNL     1      -4.693   2.003   0.330  1.00  0.00     0.165 C 
BRANCH   6   7
ATOM      7  C   UNL     1      -4.780   1.168  -0.911  1.00  0.00     0.176 C 
BRANCH   7   8
ATOM      8  C   UNL     1      -6.062   0.393  -1.022  1.00  0.00     0.178 C 
ATOM      9  C   UNL     1      -8.315   0.616  -0.524  1.00  0.00     0.269 C 
ATOM     10  C   UNL     1      -8.437  -0.823  -0.954  1.00  0.00     0.112 C 
ATOM     11  O   UNL     1      -7.138   1.222  -0.866  1.00  0.00    -0.332 OA
ATOM     12  C   UNL     1      -7.270  -1.660  -0.556  1.00  0.00     0.145 C 
ATOM     13  C   UNL     1      -6.153  -0.753  -0.042  1.00  0.00     0.142 C 
BRANCH   9  14
ATOM     14  O   UNL     1      -8.524   0.664   0.858  1.00  0.00    -0.357 OA
ATOM     15  H   UNL     1      -8.658   1.601   1.166  1.00  0.00     0.214 HD
ENDBRANCH   9  14
BRANCH   9  16
ATOM     16  C   UNL     1      -9.422   1.358  -1.175  1.00  0.00     0.364 C 
ATOM     17  O   UNL     1      -9.448   1.449  -2.426  1.00  0.00    -0.246 OA
BRANCH  16  18
ATOM     18  O   UNL     1     -10.428   1.953  -0.444  1.00  0.00    -0.477 OA
ATOM     19  H   UNL     1     -10.867   2.817  -0.791  1.00  0.00     0.296 HD
ENDBRANCH  16  18
ENDBRANCH   9  16
BRANCH  12  20
ATOM     20  O   UNL     1      -7.555  -2.685   0.311  1.00  0.00    -0.391 OA
ATOM     21  H   UNL     1      -8.509  -2.950   0.247  1.00  0.00     0.211 HD
ENDBRANCH  12  20
BRANCH  13  22
ATOM     22  N   UNL     1      -4.902  -1.496   0.016  1.00  0.00    -0.348 N 
ATOM     23  C   UNL     1      -4.262  -1.644   1.269  1.00  0.00     0.217 C 
ATOM     24  H   UNL     1      -4.515  -1.895  -0.853  1.00  0.00     0.163 HD
ATOM     25  C   UNL     1      -2.990  -2.389   1.387  1.00  0.00     0.114 C 
ATOM     26  O   UNL     1      -4.765  -1.143   2.305  1.00  0.00    -0.275 OA
ENDBRANCH  13  22
ENDBRANCH   7   8
BRANCH   7  27
ATOM     27  O   UNL     1      -3.649   0.391  -1.053  1.00  0.00    -0.388 OA
ATOM     28  H   UNL     1      -3.468   0.136  -2.002  1.00  0.00     0.211 HD
ENDBRANCH   7  27
ENDBRANCH   6   7
BRANCH   6  29
ATOM     29  O   UNL     1      -5.843   2.797   0.485  1.00  0.00    -0.388 OA
ATOM     30  H   UNL     1      -5.697   3.277   1.354  1.00  0.00     0.211 HD
ENDBRANCH   6  29
ENDBRANCH   5   6
ENDBRANCH   1   5
BRANCH   2  31
ATOM     31  O   UNL     1      -0.474   0.853   0.706  1.00  0.00    -0.443 OA
BRANCH  31  32
ATOM     32  C   UNL     1       0.118   0.007   1.700  1.00  0.00     0.294 C 
BRANCH  32  33
ATOM     33  C   UNL     1       1.412  -0.532   1.226  1.00  0.00     0.120 A 
ATOM     34  C   UNL     1       1.944  -0.345  -0.059  1.00  0.00     0.138 A 
ATOM     35  N   UNL     1       2.328  -1.276   1.856  1.00  0.00    -0.132 NA
ATOM     36  N   UNL     1       3.123  -0.958  -0.161  1.00  0.00    -0.251 N 
ATOM     37  N   UNL     1       3.340  -1.530   1.045  1.00  0.00    -0.067 NA
BRANCH  36  38
ATOM     38  C   UNL     1       4.088  -1.072  -1.217  1.00  0.00     0.162 C 
BRANCH  38  39
ATOM     39  C   UNL     1       5.195  -0.072  -1.222  1.00  0.00     0.132 C 
BRANCH  39  40
ATOM     40  C   UNL     1       4.684   1.292  -1.362  1.00  0.00     0.309 C 
ATOM     41  O   UNL     1       3.504   1.612  -1.587  1.00  0.00    -0.252 OA
BRANCH  40  42
ATOM     42  O   UNL     1       5.575   2.380  -1.239  1.00  0.00    -0.481 OA
ATOM     43  H   UNL     1       5.403   3.220  -1.798  1.00  0.00     0.296 HD
ENDBRANCH  40  42
ENDBRANCH  39  40
BRANCH  39  44
ATOM     44  C   UNL     1       6.104  -0.225  -0.015  1.00  0.00     0.065 C 
BRANCH  44  45
ATOM     45  C   UNL     1       7.207   0.764  -0.035  1.00  0.00    -0.040 A 
ATOM     46  C   UNL     1       7.938   1.016  -1.202  1.00  0.00     0.004 A 
ATOM     47  C   UNL     1       7.567   1.484   1.088  1.00  0.00     0.004 A 
ATOM     48  C   UNL     1       8.963   1.936  -1.222  1.00  0.00     0.000 A 
ATOM     49  C   UNL     1       8.584   2.403   1.085  1.00  0.00     0.000 A 
ATOM     50  C   UNL     1       9.294   2.642  -0.064  1.00  0.00     0.000 A 
ENDBRANCH  44  45
BRANCH  44  51
ATOM     51  C   UNL     1       6.678  -1.567   0.128  1.00  0.00    -0.040 A 
ATOM     52  C   UNL     1       6.909  -2.038   1.427  1.00  0.00     0.004 A 
ATOM     53  C   UNL     1       6.999  -2.383  -0.935  1.00  0.00     0.004 A 
ATOM     54  C   UNL     1       7.445  -3.292   1.602  1.00  0.00     0.000 A 
ATOM     55  C   UNL     1       7.536  -3.639  -0.762  1.00  0.00     0.000 A 
ATOM     56  C   UNL     1       7.769  -4.115   0.524  1.00  0.00     0.000 A 
ENDBRANCH  44  51
ENDBRANCH  39  44
ENDBRANCH  38  39
ENDBRANCH  36  38
ENDBRANCH  32  33
ENDBRANCH  31  32
ENDBRANCH   2  31
TORSDOF 21
