REMARK VINA RESULT:    -7.114      1.771      2.610
REMARK INTER + INTRA:         -13.857
REMARK INTER:                 -11.784
REMARK INTRA:                  -2.072
REMARK UNBOUND:                -2.168
REMARK  Name = lig_assembled_86.pdb
REMARK  12 active torsions:
REMARK  status: ('A' for Active; 'I' for Inactive)
REMARK    1  A    between atoms: _2  and  _9
REMARK    2  A    between atoms: _3  and  _12
REMARK    3  A    between atoms: _6  and  _7
REMARK    4  A    between atoms: _6  and  _16
REMARK    5  A    between atoms: _16  and  _18
REMARK    6  A    between atoms: _17  and  _22
REMARK    7  A    between atoms: _18  and  _21
REMARK    8  A    between atoms: _26  and  _36
REMARK    9  A    between atoms: _28  and  _29
REMARK   10  A    between atoms: _30  and  _32
REMARK   11  A    between atoms: _32  and  _34
REMARK   12  A    between atoms: _34  and  _36
REMARK                            x       y       z     vdW  Elec       q    Type
REMARK                         _______ _______ _______ _____ _____    ______ ____
ROOT
ATOM      1  C   UNL     1      28.140  16.774  -0.805  0.00  0.00    +0.400 C 
ATOM      2  N   UNL     1      28.319  15.517  -0.277  0.00  0.00    -0.278 N 
ATOM      3  H   UNL     1      28.744  15.711   0.684  0.00  0.00    +0.152 HD
ATOM      4  O   UNL     1      28.306  17.741  -0.067  0.00  0.00    -0.226 OA
ENDROOT
BRANCH   1   5
ATOM      5  O   UNL     1      27.838  16.815  -2.062  0.00  0.00    -0.450 OA
BRANCH   5   6
ATOM      6  C   UNL     1      26.872  17.391  -2.909  0.00  0.00    +0.240 C 
BRANCH   6   7
ATOM      7  C   UNL     1      26.392  16.556  -4.112  0.00  0.00    +0.100 C 
BRANCH   7   9
ATOM      8  N   UNL     1      24.646  14.867  -4.609  0.00  0.00    -0.134 NA
ATOM      9  C   UNL     1      25.327  15.626  -3.693  0.00  0.00    +0.086 A 
ATOM     10  C   UNL     1      24.850  15.342  -2.436  0.00  0.00    +0.134 A 
ATOM     11  N   UNL     1      23.910  14.379  -2.648  0.00  0.00    -0.248 N 
ATOM     12  N   UNL     1      23.767  14.117  -3.958  0.00  0.00    -0.065 NA
BRANCH  11  13
ATOM     13  C   UNL     1      23.129  13.672  -1.644  0.00  0.00    +0.112 C 
ATOM     14  C   UNL     1      21.674  14.181  -1.584  0.00  0.00    +0.045 C 
ATOM     15  C   UNL     1      20.612  13.079  -1.543  0.00  0.00    +0.059 C 
ATOM     16  C   UNL     1      20.414  12.452  -2.928  0.00  0.00    +0.020 C 
ATOM     17  C   UNL     1      21.339  11.238  -2.935  0.00  0.00    +0.020 C 
ATOM     18  C   UNL     1      22.065  11.299  -1.590  0.00  0.00    +0.059 C 
ATOM     19  N   UNL     1      21.032  11.918  -0.759  0.00  0.00    -0.299 NA
ATOM     20  C   UNL     1      21.377  12.157   0.630  0.00  0.00    +0.105 C 
ATOM     21  C   UNL     1      23.344  12.141  -1.684  0.00  0.00    +0.045 C 
ENDBRANCH  11  13
ENDBRANCH   7   9
ENDBRANCH   6   7
ENDBRANCH   5   6
ENDBRANCH   1   5
BRANCH   2  22
ATOM     22  C   UNL     1      28.179  14.071  -0.431  0.00  0.00    +0.152 C 
BRANCH  22  23
ATOM     23  C   UNL     1      28.006  13.263   0.871  0.00  0.00    +0.193 C 
ATOM     24  O   UNL     1      28.651  11.988   0.657  0.00  0.00    -0.219 OA
BRANCH  23  25
ATOM     25  C   UNL     1      28.666  13.819   2.151  0.00  0.00    +0.212 C 
ATOM     26  O   UNL     1      27.686  13.993   3.187  0.00  0.00    -0.218 OA
BRANCH  25  27
ATOM     27  C   UNL     1      29.825  12.904   2.704  0.00  0.00    +0.171 C 
ATOM     28  O   UNL     1      29.609  12.500   4.052  0.00  0.00    -0.343 OA
ATOM     29  C   UNL     1      30.577  11.898   4.859  0.00  0.00    +0.220 C 
ATOM     30  C   UNL     1      31.896  12.690   4.856  0.00  0.00    +0.076 C 
ATOM     31  C   UNL     1      32.311  12.892   3.389  0.00  0.00    +0.177 C 
ATOM     32  O   UNL     1      33.548  13.586   3.329  0.00  0.00    -0.221 OA
ATOM     33  C   UNL     1      31.193  13.657   2.614  0.00  0.00    +0.155 C 
BRANCH  33  34
ATOM     34  N   UNL     1      31.586  13.857   1.222  0.00  0.00    -0.202 NA
ATOM     35  C   UNL     1      31.654  15.001   0.495  0.00  0.00    +0.242 C 
ATOM     36  C   UNL     1      32.372  14.965  -0.829  0.00  0.00    +0.096 C 
ATOM     37  O   UNL     1      31.136  16.028   0.928  0.00  0.00    -0.273 OA
ENDBRANCH  33  34
BRANCH  29  38
ATOM     38  C   UNL     1      30.822  10.329   4.515  0.00  0.00    +0.391 C 
ATOM     39  O   UNL     1      31.985  10.018   5.120  0.00  0.00    -0.243 OA
ATOM     40  O   UNL     1      29.660   9.871   4.034  0.00  0.00    -0.243 OA
ENDBRANCH  29  38
ENDBRANCH  25  27
ENDBRANCH  23  25
ENDBRANCH  22  23
ENDBRANCH   2  22
TORSDOF 11
