REMARK VINA RESULT:    -6.744      1.478      3.071
REMARK INTER + INTRA:         -16.096
REMARK INTER:                 -13.749
REMARK INTRA:                  -2.347
REMARK UNBOUND:                -3.439
REMARK  Name = lig_assembled_84.pdb
REMARK  16 active torsions:
REMARK  status: ('A' for Active; 'I' for Inactive)
REMARK    1  A    between atoms: _2  and  _10
REMARK    2  A    between atoms: _3  and  _13
REMARK    3  A    between atoms: _4  and  _16
REMARK    4  A    between atoms: _7  and  _8
REMARK    5  A    between atoms: _7  and  _23
REMARK    6  A    between atoms: _10  and  _11
REMARK    7  A    between atoms: _11  and  _12
REMARK    8  A    between atoms: _11  and  _13
REMARK    9  A    between atoms: _23  and  _25
REMARK   10  A    between atoms: _24  and  _29
REMARK   11  A    between atoms: _25  and  _28
REMARK   12  A    between atoms: _33  and  _43
REMARK   13  A    between atoms: _35  and  _36
REMARK   14  A    between atoms: _37  and  _39
REMARK   15  A    between atoms: _39  and  _41
REMARK   16  A    between atoms: _41  and  _43
REMARK                            x       y       z     vdW  Elec       q    Type
REMARK                         _______ _______ _______ _____ _____    ______ ____
ROOT
ATOM      1  C   UNL     1      27.130  14.585  -2.188  0.00  0.00    +0.240 C 
ENDROOT
BRANCH   1   2
ATOM      2  C   UNL     1      26.588  14.435  -3.622  0.00  0.00    +0.100 C 
BRANCH   2   4
ATOM      3  N   UNL     1      24.505  15.291  -2.586  0.00  0.00    -0.134 NA
ATOM      4  C   UNL     1      25.152  14.769  -3.675  0.00  0.00    +0.086 A 
ATOM      5  C   UNL     1      24.247  14.609  -4.701  0.00  0.00    +0.133 A 
ATOM      6  N   UNL     1      23.059  14.988  -4.153  0.00  0.00    -0.251 N 
ATOM      7  N   UNL     1      23.220  15.418  -2.890  0.00  0.00    -0.065 NA
BRANCH   6   8
ATOM      8  C   UNL     1      21.733  14.837  -4.719  0.00  0.00    +0.149 C 
BRANCH   8   9
ATOM      9  C   UNL     1      20.587  15.139  -3.739  0.00  0.00    +0.021 C 
ATOM     10  C   UNL     1      19.750  16.336  -4.213  0.00  0.00    +0.010 C 
BRANCH   9  11
ATOM     11  C   UNL     1      19.654  13.915  -3.571  0.00  0.00    +0.089 C 
BRANCH  11  12
ATOM     12  N   UNL     1      19.947  13.044  -2.425  0.00  0.00    -0.299 NA
ATOM     13  C   UNL     1      20.464  13.853  -1.289  0.00  0.00    +0.103 C 
ATOM     14  C   UNL     1      20.706  12.989  -0.035  0.00  0.00    +0.120 C 
ATOM     15  N   UNL     1      21.655  11.916  -0.350  0.00  0.00    -0.327 N 
ATOM     16  C   UNL     1      21.270  11.084  -1.500  0.00  0.00    +0.120 C 
ATOM     17  C   UNL     1      20.944  11.984  -2.727  0.00  0.00    +0.103 C 
BRANCH  15  18
ATOM     18  C   UNL     1      22.782  11.675   0.402  0.00  0.00    +0.030 A 
ATOM     19  C   UNL     1      22.693  11.162   1.710  0.00  0.00    +0.024 A 
ATOM     20  C   UNL     1      23.824  10.935   2.500  0.00  0.00    +0.022 A 
ATOM     21  C   UNL     1      25.082  11.211   1.989  0.00  0.00    +0.041 A 
ATOM     22 CL   UNL     1      26.479  10.940   2.956  0.00  0.00    -0.084 Cl
ATOM     23  C   UNL     1      25.215  11.717   0.702  0.00  0.00    +0.022 A 
ATOM     24  C   UNL     1      24.072  11.947  -0.078  0.00  0.00    +0.024 A 
ENDBRANCH  15  18
ENDBRANCH  11  12
ENDBRANCH   9  11
ENDBRANCH   8   9
ENDBRANCH   6   8
ENDBRANCH   2   4
ENDBRANCH   1   2
BRANCH   1  25
ATOM     25  O   UNL     1      27.674  15.833  -1.826  0.00  0.00    -0.450 OA
BRANCH  25  26
ATOM     26  C   UNL     1      28.423  16.347  -0.906  0.00  0.00    +0.400 C 
ATOM     27  N   UNL     1      28.629  15.560   0.203  0.00  0.00    -0.278 N 
ATOM     28  H   UNL     1      29.408  16.070   0.726  0.00  0.00    +0.152 HD
ATOM     29  O   UNL     1      28.979  17.441  -0.951  0.00  0.00    -0.226 OA
BRANCH  27  30
ATOM     30  C   UNL     1      28.259  14.376   0.974  0.00  0.00    +0.152 C 
BRANCH  30  31
ATOM     31  C   UNL     1      28.914  14.239   2.364  0.00  0.00    +0.193 C 
ATOM     32  O   UNL     1      27.902  13.711   3.250  0.00  0.00    -0.219 OA
BRANCH  31  33
ATOM     33  C   UNL     1      30.098  13.256   2.502  0.00  0.00    +0.212 C 
ATOM     34  O   UNL     1      29.722  11.950   2.037  0.00  0.00    -0.218 OA
BRANCH  33  35
ATOM     35  C   UNL     1      31.387  13.718   1.721  0.00  0.00    +0.171 C 
ATOM     36  O   UNL     1      31.265  13.546   0.313  0.00  0.00    -0.343 OA
ATOM     37  C   UNL     1      32.329  13.641  -0.588  0.00  0.00    +0.220 C 
ATOM     38  C   UNL     1      33.525  12.777  -0.152  0.00  0.00    +0.076 C 
ATOM     39  C   UNL     1      33.868  13.159   1.298  0.00  0.00    +0.177 C 
ATOM     40  O   UNL     1      34.995  12.415   1.738  0.00  0.00    -0.221 OA
ATOM     41  C   UNL     1      32.634  12.919   2.223  0.00  0.00    +0.155 C 
BRANCH  41  42
ATOM     42  N   UNL     1      32.958  13.274   3.602  0.00  0.00    -0.202 NA
ATOM     43  C   UNL     1      32.866  12.530   4.734  0.00  0.00    +0.242 C 
ATOM     44  C   UNL     1      33.542  13.039   5.980  0.00  0.00    +0.096 C 
ATOM     45  O   UNL     1      32.242  11.471   4.716  0.00  0.00    -0.273 OA
ENDBRANCH  41  42
BRANCH  37  46
ATOM     46  C   UNL     1      32.779  15.171  -0.897  0.00  0.00    +0.391 C 
ATOM     47  O   UNL     1      33.873  15.061  -1.676  0.00  0.00    -0.243 OA
ATOM     48  O   UNL     1      31.749  15.942  -0.528  0.00  0.00    -0.243 OA
ENDBRANCH  37  46
ENDBRANCH  33  35
ENDBRANCH  31  33
ENDBRANCH  30  31
ENDBRANCH  27  30
ENDBRANCH  25  26
ENDBRANCH   1  25
TORSDOF 15
