REMARK VINA RESULT:    -6.184      2.439      2.861
REMARK INTER + INTRA:         -13.125
REMARK INTER:                 -10.575
REMARK INTRA:                  -2.550
REMARK UNBOUND:                -2.422
REMARK  Name = lig_assembled_53.pdb
REMARK  13 active torsions:
REMARK  status: ('A' for Active; 'I' for Inactive)
REMARK    1  A    between atoms: _2  and  _8
REMARK    2  A    between atoms: _4  and  _8
REMARK    3  A    between atoms: _4  and  _9
REMARK    4  A    between atoms: _5  and  _6
REMARK    5  A    between atoms: _5  and  _11
REMARK    6  A    between atoms: _11  and  _13
REMARK    7  A    between atoms: _12  and  _17
REMARK    8  A    between atoms: _13  and  _16
REMARK    9  A    between atoms: _21  and  _31
REMARK   10  A    between atoms: _23  and  _24
REMARK   11  A    between atoms: _25  and  _27
REMARK   12  A    between atoms: _27  and  _29
REMARK   13  A    between atoms: _29  and  _31
REMARK                            x       y       z     vdW  Elec       q    Type
REMARK                         _______ _______ _______ _____ _____    ______ ____
ROOT
ATOM      1  C   UNL     1      28.508  14.837  -0.306  0.00  0.00    +0.152 C 
ENDROOT
BRANCH   1   3
ATOM      2  C   UNL     1      27.888  17.360  -1.141  0.00  0.00    +0.400 C 
ATOM      3  N   UNL     1      28.296  16.279  -0.395  0.00  0.00    -0.278 N 
ATOM      4  H   UNL     1      28.565  16.715   0.543  0.00  0.00    +0.152 HD
ATOM      5  O   UNL     1      27.752  18.439  -0.571  0.00  0.00    -0.226 OA
BRANCH   2   6
ATOM      6  O   UNL     1      27.713  17.135  -2.402  0.00  0.00    -0.450 OA
BRANCH   6   7
ATOM      7  C   UNL     1      26.753  17.367  -3.406  0.00  0.00    +0.240 C 
BRANCH   7   8
ATOM      8  C   UNL     1      26.324  16.167  -4.271  0.00  0.00    +0.100 C 
BRANCH   8  10
ATOM      9  N   UNL     1      27.074  13.885  -3.668  0.00  0.00    -0.134 NA
ATOM     10  C   UNL     1      26.236  14.945  -3.450  0.00  0.00    +0.086 A 
ATOM     11  C   UNL     1      25.389  14.642  -2.409  0.00  0.00    +0.134 A 
ATOM     12  N   UNL     1      25.713  13.361  -2.077  0.00  0.00    -0.241 N 
ATOM     13  N   UNL     1      26.760  12.927  -2.806  0.00  0.00    -0.065 NA
BRANCH  12  14
ATOM     14  C   UNL     1      25.224  12.519  -1.004  0.00  0.00    +0.265 C 
BRANCH  14  15
ATOM     15  C   UNL     1      26.247  12.143   0.035  0.00  0.00    +0.326 C 
ATOM     16  O   UNL     1      26.240  12.459   1.215  0.00  0.00    -0.249 OA
BRANCH  15  17
ATOM     17  O   UNL     1      27.254  11.386  -0.478  0.00  0.00    -0.479 OA
ATOM     18  H   UNL     1      27.219  10.432  -0.270  0.00  0.00    +0.295 HD
ENDBRANCH  15  17
ENDBRANCH  14  15
ENDBRANCH  12  14
ENDBRANCH   8  10
ENDBRANCH   7   8
ENDBRANCH   6   7
ENDBRANCH   2   6
ENDBRANCH   1   3
BRANCH   1  19
ATOM     19  C   UNL     1      29.537  14.364   0.741  0.00  0.00    +0.193 C 
ATOM     20  O   UNL     1      29.677  12.937   0.570  0.00  0.00    -0.219 OA
BRANCH  19  21
ATOM     21  C   UNL     1      30.977  14.910   0.625  0.00  0.00    +0.212 C 
ATOM     22  O   UNL     1      31.037  16.269   1.086  0.00  0.00    -0.218 OA
BRANCH  21  23
ATOM     23  C   UNL     1      32.034  14.058   1.426  0.00  0.00    +0.171 C 
ATOM     24  O   UNL     1      32.404  14.665   2.660  0.00  0.00    -0.343 OA
ATOM     25  C   UNL     1      33.485  14.259   3.445  0.00  0.00    +0.220 C 
ATOM     26  C   UNL     1      34.778  14.144   2.619  0.00  0.00    +0.076 C 
ATOM     27  C   UNL     1      34.478  13.239   1.413  0.00  0.00    +0.177 C 
ATOM     28  O   UNL     1      35.655  13.067   0.635  0.00  0.00    -0.221 OA
ATOM     29  C   UNL     1      33.320  13.846   0.562  0.00  0.00    +0.155 C 
BRANCH  29  30
ATOM     30  N   UNL     1      33.036  12.992  -0.590  0.00  0.00    -0.202 NA
ATOM     31  C   UNL     1      33.048  13.290  -1.914  0.00  0.00    +0.242 C 
ATOM     32  C   UNL     1      33.007  12.154  -2.903  0.00  0.00    +0.096 C 
ATOM     33  O   UNL     1      33.092  14.465  -2.272  0.00  0.00    -0.273 OA
ENDBRANCH  29  30
BRANCH  25  34
ATOM     34  C   UNL     1      33.196  12.903   4.293  0.00  0.00    +0.391 C 
ATOM     35  O   UNL     1      34.364  12.620   4.903  0.00  0.00    -0.243 OA
ATOM     36  O   UNL     1      31.866  12.754   4.311  0.00  0.00    -0.243 OA
ENDBRANCH  25  34
ENDBRANCH  21  23
ENDBRANCH  19  21
ENDBRANCH   1  19
TORSDOF 13
