REMARK VINA RESULT:    -5.745      2.163      3.475
REMARK INTER + INTRA:         -12.978
REMARK INTER:                 -11.688
REMARK INTRA:                  -1.290
REMARK UNBOUND:                -3.035
REMARK  Name = lig_assembled_22.pdb
REMARK  15 active torsions:
REMARK  status: ('A' for Active; 'I' for Inactive)
REMARK    1  A    between atoms: _2  and  _8
REMARK    2  A    between atoms: _4  and  _8
REMARK    3  A    between atoms: _4  and  _11
REMARK    4  A    between atoms: _5  and  _6
REMARK    5  A    between atoms: _5  and  _13
REMARK    6  A    between atoms: _8  and  _9
REMARK    7  A    between atoms: _8  and  _10
REMARK    8  A    between atoms: _13  and  _15
REMARK    9  A    between atoms: _14  and  _19
REMARK   10  A    between atoms: _15  and  _18
REMARK   11  A    between atoms: _23  and  _33
REMARK   12  A    between atoms: _25  and  _26
REMARK   13  A    between atoms: _27  and  _29
REMARK   14  A    between atoms: _29  and  _31
REMARK   15  A    between atoms: _31  and  _33
REMARK                            x       y       z     vdW  Elec       q    Type
REMARK                         _______ _______ _______ _____ _____    ______ ____
ROOT
ATOM      1  C   UNL     1      27.871  17.383  -0.871  0.00  0.00    +0.400 C 
ATOM      2  N   UNL     1      28.551  16.490  -0.078  0.00  0.00    -0.278 N 
ATOM      3  H   UNL     1      28.759  17.052   0.806  0.00  0.00    +0.152 HD
ATOM      4  O   UNL     1      27.520  18.450  -0.373  0.00  0.00    -0.226 OA
ENDROOT
BRANCH   1   5
ATOM      5  O   UNL     1      27.691  17.019  -2.098  0.00  0.00    -0.450 OA
BRANCH   5   6
ATOM      6  C   UNL     1      26.811  17.270  -3.169  0.00  0.00    +0.240 C 
BRANCH   6   7
ATOM      7  C   UNL     1      26.627  16.154  -4.214  0.00  0.00    +0.100 C 
BRANCH   7   9
ATOM      8  N   UNL     1      24.471  15.068  -4.738  0.00  0.00    -0.134 NA
ATOM      9  C   UNL     1      25.485  15.295  -3.849  0.00  0.00    +0.086 A 
ATOM     10  C   UNL     1      25.216  14.617  -2.680  0.00  0.00    +0.135 A 
ATOM     11  N   UNL     1      24.023  13.995  -2.918  0.00  0.00    -0.235 N 
ATOM     12  N   UNL     1      23.583  14.276  -4.159  0.00  0.00    -0.064 NA
BRANCH  11  13
ATOM     13  C   UNL     1      23.226  13.143  -2.033  0.00  0.00    +0.155 C 
ATOM     14  C   UNL     1      23.976  12.797  -0.727  0.00  0.00    +0.048 C 
ATOM     15  C   UNL     1      22.902  11.830  -2.771  0.00  0.00    +0.048 C 
BRANCH  13  16
ATOM     16  C   UNL     1      21.925  13.850  -1.645  0.00  0.00    +0.332 C 
ATOM     17  O   UNL     1      21.048  13.346  -0.954  0.00  0.00    -0.248 OA
BRANCH  16  18
ATOM     18  O   UNL     1      21.786  15.111  -2.121  0.00  0.00    -0.479 OA
ATOM     19  H   UNL     1      21.482  15.196  -3.046  0.00  0.00    +0.295 HD
ENDBRANCH  16  18
ENDBRANCH  13  16
ENDBRANCH  11  13
ENDBRANCH   7   9
ENDBRANCH   6   7
ENDBRANCH   5   6
ENDBRANCH   1   5
BRANCH   2  20
ATOM     20  C   UNL     1      29.091  15.144   0.100  0.00  0.00    +0.152 C 
BRANCH  20  21
ATOM     21  C   UNL     1      30.618  14.997  -0.062  0.00  0.00    +0.193 C 
ATOM     22  O   UNL     1      31.104  16.257  -0.574  0.00  0.00    -0.219 OA
BRANCH  21  23
ATOM     23  C   UNL     1      31.452  14.753   1.215  0.00  0.00    +0.212 C 
ATOM     24  O   UNL     1      31.246  15.816   2.160  0.00  0.00    -0.218 OA
BRANCH  23  25
ATOM     25  C   UNL     1      31.126  13.381   1.921  0.00  0.00    +0.171 C 
ATOM     26  O   UNL     1      29.737  13.222   2.194  0.00  0.00    -0.343 OA
ATOM     27  C   UNL     1      29.205  12.229   3.019  0.00  0.00    +0.220 C 
ATOM     28  C   UNL     1      29.918  12.175   4.381  0.00  0.00    +0.076 C 
ATOM     29  C   UNL     1      31.427  12.051   4.108  0.00  0.00    +0.177 C 
ATOM     30  O   UNL     1      32.132  11.957   5.338  0.00  0.00    -0.221 OA
ATOM     31  C   UNL     1      31.922  13.265   3.262  0.00  0.00    +0.155 C 
BRANCH  31  32
ATOM     32  N   UNL     1      33.356  13.154   3.007  0.00  0.00    -0.202 NA
ATOM     33  C   UNL     1      34.377  13.935   3.442  0.00  0.00    +0.242 C 
ATOM     34  C   UNL     1      35.786  13.429   3.275  0.00  0.00    +0.096 C 
ATOM     35  O   UNL     1      34.132  15.024   3.958  0.00  0.00    -0.273 OA
ENDBRANCH  31  32
BRANCH  27  36
ATOM     36  C   UNL     1      29.150  10.765   2.316  0.00  0.00    +0.391 C 
ATOM     37  O   UNL     1      29.083   9.891   3.338  0.00  0.00    -0.243 OA
ATOM     38  O   UNL     1      28.890  10.986   1.021  0.00  0.00    -0.243 OA
ENDBRANCH  27  36
ENDBRANCH  23  25
ENDBRANCH  21  23
ENDBRANCH  20  21
ENDBRANCH   2  20
TORSDOF 13
