REMARK VINA RESULT:    -6.261      2.665      8.919
REMARK INTER + INTRA:         -14.082
REMARK INTER:                 -11.036
REMARK INTRA:                  -3.046
REMARK UNBOUND:                -1.965
REMARK  Name = lig_assembled_11.pdb
REMARK  17 active torsions:
REMARK  status: ('A' for Active; 'I' for Inactive)
REMARK    1  A    between atoms: _2  and  _8
REMARK    2  A    between atoms: _4  and  _8
REMARK    3  A    between atoms: _4  and  _12
REMARK    4  A    between atoms: _5  and  _6
REMARK    5  A    between atoms: _5  and  _16
REMARK    6  A    between atoms: _8  and  _9
REMARK    7  A    between atoms: _9  and  _10
REMARK    8  A    between atoms: _10  and  _11
REMARK    9  A    between atoms: _11  and  _14
REMARK   10  A    between atoms: _16  and  _18
REMARK   11  A    between atoms: _17  and  _22
REMARK   12  A    between atoms: _18  and  _21
REMARK   13  A    between atoms: _26  and  _36
REMARK   14  A    between atoms: _28  and  _29
REMARK   15  A    between atoms: _30  and  _32
REMARK   16  A    between atoms: _32  and  _34
REMARK   17  A    between atoms: _34  and  _36
REMARK                            x       y       z     vdW  Elec       q    Type
REMARK                         _______ _______ _______ _____ _____    ______ ____
ROOT
ATOM      1  C   UNL     1      26.097  16.046  -4.202  0.00  0.00    +0.400 C 
ATOM      2  N   UNL     1      24.788  15.858  -3.826  0.00  0.00    -0.278 N 
ATOM      3  H   UNL     1      24.284  15.696  -4.754  0.00  0.00    +0.152 HD
ATOM      4  O   UNL     1      26.401  15.820  -5.371  0.00  0.00    -0.226 OA
ENDROOT
BRANCH   1   5
ATOM      5  O   UNL     1      26.888  16.482  -3.278  0.00  0.00    -0.450 OA
BRANCH   5   6
ATOM      6  C   UNL     1      27.371  17.706  -2.775  0.00  0.00    +0.240 C 
BRANCH   6   7
ATOM      7  C   UNL     1      27.449  17.865  -1.245  0.00  0.00    +0.100 C 
BRANCH   7   9
ATOM      8  N   UNL     1      29.831  17.524  -0.669  0.00  0.00    -0.134 NA
ATOM      9  C   UNL     1      28.550  17.050  -0.698  0.00  0.00    +0.086 A 
ATOM     10  C   UNL     1      28.526  15.786  -0.155  0.00  0.00    +0.134 A 
ATOM     11  N   UNL     1      29.831  15.524   0.148  0.00  0.00    -0.238 N 
ATOM     12  N   UNL     1      30.607  16.588  -0.137  0.00  0.00    -0.065 NA
BRANCH  11  13
ATOM     13  C   UNL     1      30.434  14.382   0.828  0.00  0.00    +0.217 C 
BRANCH  13  14
ATOM     14  C   UNL     1      31.937  14.271   0.624  0.00  0.00    +0.330 C 
ATOM     15  O   UNL     1      32.769  14.109   1.504  0.00  0.00    -0.249 OA
BRANCH  14  16
ATOM     16  O   UNL     1      32.327  14.376  -0.672  0.00  0.00    -0.479 OA
ATOM     17  H   UNL     1      31.860  13.819  -1.324  0.00  0.00    +0.295 HD
ENDBRANCH  14  16
ENDBRANCH  13  14
BRANCH  13  18
ATOM     18  C   UNL     1      29.694  13.070   0.510  0.00  0.00    +0.049 C 
BRANCH  18  19
ATOM     19  C   UNL     1      29.070  12.371   1.725  0.00  0.00    +0.123 C 
BRANCH  19  20
ATOM     20  C   UNL     1      27.660  12.862   1.967  0.00  0.00    +0.305 C 
ATOM     21  O   UNL     1      27.232  13.244   3.044  0.00  0.00    -0.251 OA
BRANCH  20  22
ATOM     22  O   UNL     1      26.895  12.813   0.855  0.00  0.00    -0.481 OA
ATOM     23  H   UNL     1      27.336  12.426   0.075  0.00  0.00    +0.295 HD
ENDBRANCH  20  22
ENDBRANCH  19  20
ENDBRANCH  18  19
ENDBRANCH  13  18
ENDBRANCH  11  13
ENDBRANCH   7   9
ENDBRANCH   6   7
ENDBRANCH   5   6
ENDBRANCH   1   5
BRANCH   2  24
ATOM     24  C   UNL     1      23.803  15.769  -2.751  0.00  0.00    +0.152 C 
BRANCH  24  25
ATOM     25  C   UNL     1      22.701  14.703  -2.925  0.00  0.00    +0.193 C 
ATOM     26  O   UNL     1      21.753  15.239  -3.875  0.00  0.00    -0.219 OA
BRANCH  25  27
ATOM     27  C   UNL     1      23.113  13.339  -3.520  0.00  0.00    +0.212 C 
ATOM     28  O   UNL     1      23.459  13.480  -4.908  0.00  0.00    -0.218 OA
BRANCH  27  29
ATOM     29  C   UNL     1      24.324  12.669  -2.766  0.00  0.00    +0.171 C 
ATOM     30  O   UNL     1      25.321  12.180  -3.656  0.00  0.00    -0.343 OA
ATOM     31  C   UNL     1      26.369  11.336  -3.279  0.00  0.00    +0.220 C 
ATOM     32  C   UNL     1      25.864  10.116  -2.489  0.00  0.00    +0.076 C 
ATOM     33  C   UNL     1      25.005  10.641  -1.327  0.00  0.00    +0.177 C 
ATOM     34  O   UNL     1      24.544   9.552  -0.539  0.00  0.00    -0.221 OA
ATOM     35  C   UNL     1      23.815  11.487  -1.877  0.00  0.00    +0.155 C 
BRANCH  35  36
ATOM     36  N   UNL     1      22.992  11.981  -0.776  0.00  0.00    -0.202 NA
ATOM     37  C   UNL     1      21.659  11.845  -0.560  0.00  0.00    +0.242 C 
ATOM     38  C   UNL     1      21.116  12.197   0.801  0.00  0.00    +0.096 C 
ATOM     39  O   UNL     1      20.934  11.441  -1.467  0.00  0.00    -0.273 OA
ENDBRANCH  35  36
BRANCH  31  40
ATOM     40  C   UNL     1      27.566  12.103  -2.492  0.00  0.00    +0.391 C 
ATOM     41  O   UNL     1      28.059  11.189  -1.634  0.00  0.00    -0.243 OA
ATOM     42  O   UNL     1      27.806  13.223  -3.184  0.00  0.00    -0.243 OA
ENDBRANCH  31  40
ENDBRANCH  27  29
ENDBRANCH  25  27
ENDBRANCH  24  25
ENDBRANCH   2  24
TORSDOF 17
