REMARK VINA RESULT:    -6.547      1.879      2.895
REMARK INTER + INTRA:         -13.092
REMARK INTER:                 -10.919
REMARK INTRA:                  -2.174
REMARK UNBOUND:                -1.952
REMARK  Name = lig_assembled_44.pdb
REMARK  12 active torsions:
REMARK  status: ('A' for Active; 'I' for Inactive)
REMARK    1  A    between atoms: _2  and  _8
REMARK    2  A    between atoms: _5  and  _6
REMARK    3  A    between atoms: _5  and  _14
REMARK    4  A    between atoms: _8  and  _9
REMARK    5  A    between atoms: _14  and  _16
REMARK    6  A    between atoms: _15  and  _20
REMARK    7  A    between atoms: _16  and  _19
REMARK    8  A    between atoms: _24  and  _34
REMARK    9  A    between atoms: _26  and  _27
REMARK   10  A    between atoms: _28  and  _30
REMARK   11  A    between atoms: _30  and  _32
REMARK   12  A    between atoms: _32  and  _34
REMARK                            x       y       z     vdW  Elec       q    Type
REMARK                         _______ _______ _______ _____ _____    ______ ____
ROOT
ATOM      1  C   UNL     1      27.746  14.343  -1.488  0.00  0.00    +0.400 C 
ATOM      2  N   UNL     1      28.050  13.814  -0.256  0.00  0.00    -0.278 N 
ATOM      3  H   UNL     1      27.582  12.853  -0.277  0.00  0.00    +0.152 HD
ATOM      4  O   UNL     1      27.229  13.606  -2.324  0.00  0.00    -0.226 OA
ENDROOT
BRANCH   2   5
ATOM      5  C   UNL     1      28.722  13.966   1.032  0.00  0.00    +0.152 C 
BRANCH   5   6
ATOM      6  C   UNL     1      29.974  14.867   1.044  0.00  0.00    +0.193 C 
ATOM      7  O   UNL     1      30.859  14.334   2.054  0.00  0.00    -0.219 OA
BRANCH   6   8
ATOM      8  C   UNL     1      30.835  14.911  -0.238  0.00  0.00    +0.212 C 
ATOM      9  O   UNL     1      31.311  16.245  -0.477  0.00  0.00    -0.218 OA
BRANCH   8  10
ATOM     10  C   UNL     1      32.072  13.935  -0.194  0.00  0.00    +0.171 C 
ATOM     11  O   UNL     1      33.316  14.623  -0.273  0.00  0.00    -0.343 OA
ATOM     12  C   UNL     1      34.547  14.003  -0.498  0.00  0.00    +0.220 C 
ATOM     13  C   UNL     1      34.498  13.064  -1.716  0.00  0.00    +0.076 C 
ATOM     14  C   UNL     1      33.316  12.102  -1.511  0.00  0.00    +0.177 C 
ATOM     15  O   UNL     1      33.250  11.183  -2.593  0.00  0.00    -0.221 OA
ATOM     16  C   UNL     1      31.987  12.906  -1.369  0.00  0.00    +0.155 C 
BRANCH  16  17
ATOM     17  N   UNL     1      30.860  11.995  -1.181  0.00  0.00    -0.202 NA
ATOM     18  C   UNL     1      30.004  11.474  -2.096  0.00  0.00    +0.242 C 
ATOM     19  C   UNL     1      29.117  10.331  -1.677  0.00  0.00    +0.096 C 
ATOM     20  O   UNL     1      29.974  11.940  -3.234  0.00  0.00    -0.273 OA
ENDBRANCH  16  17
BRANCH  12  21
ATOM     21  C   UNL     1      35.141  13.250   0.813  0.00  0.00    +0.391 C 
ATOM     22  O   UNL     1      36.164  12.504   0.352  0.00  0.00    -0.243 OA
ATOM     23  O   UNL     1      34.604  13.869   1.871  0.00  0.00    -0.243 OA
ENDBRANCH  12  21
ENDBRANCH   8  10
ENDBRANCH   6   8
ENDBRANCH   5   6
ENDBRANCH   2   5
BRANCH   1  24
ATOM     24  O   UNL     1      28.012  15.599  -1.639  0.00  0.00    -0.450 OA
BRANCH  24  25
ATOM     25  C   UNL     1      27.334  16.828  -1.759  0.00  0.00    +0.240 C 
BRANCH  25  26
ATOM     26  C   UNL     1      27.057  17.351  -3.181  0.00  0.00    +0.100 C 
BRANCH  26  28
ATOM     27  N   UNL     1      26.482  15.804  -5.030  0.00  0.00    -0.134 NA
ATOM     28  C   UNL     1      26.115  16.459  -3.884  0.00  0.00    +0.086 A 
ATOM     29  C   UNL     1      24.822  16.118  -3.565  0.00  0.00    +0.134 A 
ATOM     30  N   UNL     1      24.485  15.193  -4.508  0.00  0.00    -0.247 N 
ATOM     31  N   UNL     1      25.469  15.037  -5.411  0.00  0.00    -0.065 NA
BRANCH  30  32
ATOM     32  C   UNL     1      23.259  14.425  -4.615  0.00  0.00    +0.180 C 
BRANCH  32  33
ATOM     33  C   UNL     1      22.875  13.810  -3.289  0.00  0.00    -0.026 A 
ATOM     34  C   UNL     1      23.642  12.775  -2.732  0.00  0.00    +0.006 A 
ATOM     35  C   UNL     1      23.277  12.199  -1.513  0.00  0.00    +0.015 A 
ATOM     36  C   UNL     1      22.142  12.656  -0.844  0.00  0.00    +0.018 A 
ATOM     37 BR   UNL     1      21.659  11.887   0.814  0.00  0.00    -0.050 Br
ATOM     38  C   UNL     1      21.363  13.674  -1.388  0.00  0.00    +0.015 A 
ATOM     39  C   UNL     1      21.726  14.246  -2.611  0.00  0.00    +0.006 A 
ENDBRANCH  32  33
ENDBRANCH  30  32
ENDBRANCH  26  28
ENDBRANCH  25  26
ENDBRANCH  24  25
ENDBRANCH   1  24
TORSDOF 12
