REMARK VINA RESULT:    -6.656      3.568      7.753
REMARK INTER + INTRA:         -12.936
REMARK INTER:                 -12.114
REMARK INTRA:                  -0.822
REMARK UNBOUND:                -1.999
REMARK  Name = lig_assembled_57.pdb
REMARK  12 active torsions:
REMARK  status: ('A' for Active; 'I' for Inactive)
REMARK    1  A    between atoms: _2  and  _9
REMARK    2  A    between atoms: _3  and  _12
REMARK    3  A    between atoms: _6  and  _7
REMARK    4  A    between atoms: _6  and  _14
REMARK    5  A    between atoms: _14  and  _16
REMARK    6  A    between atoms: _15  and  _20
REMARK    7  A    between atoms: _16  and  _19
REMARK    8  A    between atoms: _24  and  _34
REMARK    9  A    between atoms: _26  and  _27
REMARK   10  A    between atoms: _28  and  _30
REMARK   11  A    between atoms: _30  and  _32
REMARK   12  A    between atoms: _32  and  _34
REMARK                            x       y       z     vdW  Elec       q    Type
REMARK                         _______ _______ _______ _____ _____    ______ ____
ROOT
ATOM      1  C   UNL     1      28.337  17.703  -0.457  0.00  0.00    +0.400 C 
ATOM      2  N   UNL     1      29.527  17.481   0.194  0.00  0.00    -0.278 N 
ATOM      3  H   UNL     1      29.451  18.094   1.066  0.00  0.00    +0.152 HD
ATOM      4  O   UNL     1      27.463  18.333   0.133  0.00  0.00    -0.226 OA
ENDROOT
BRANCH   1   5
ATOM      5  O   UNL     1      28.264  17.243  -1.662  0.00  0.00    -0.450 OA
BRANCH   5   6
ATOM      6  C   UNL     1      27.427  16.422  -2.444  0.00  0.00    +0.240 C 
BRANCH   6   7
ATOM      7  C   UNL     1      26.678  17.083  -3.617  0.00  0.00    +0.100 C 
BRANCH   7   9
ATOM      8  N   UNL     1      25.830  15.491  -5.304  0.00  0.00    -0.134 NA
ATOM      9  C   UNL     1      25.644  16.168  -4.132  0.00  0.00    +0.086 A 
ATOM     10  C   UNL     1      24.421  15.818  -3.598  0.00  0.00    +0.134 A 
ATOM     11  N   UNL     1      23.951  14.857  -4.444  0.00  0.00    -0.248 N 
ATOM     12  N   UNL     1      24.773  14.720  -5.505  0.00  0.00    -0.065 NA
BRANCH  11  13
ATOM     13  C   UNL     1      22.801  13.968  -4.337  0.00  0.00    +0.111 C 
ATOM     14  C   UNL     1      22.862  13.154  -3.036  0.00  0.00    +0.042 C 
ATOM     15  C   UNL     1      22.510  14.033  -1.838  0.00  0.00    +0.086 C 
ATOM     16  N   UNL     1      21.175  14.631  -1.938  0.00  0.00    -0.305 NA
ATOM     17  C   UNL     1      20.986  15.374  -3.185  0.00  0.00    +0.086 C 
ATOM     18  C   UNL     1      20.113  13.662  -1.688  0.00  0.00    +0.104 C 
ATOM     19  C   UNL     1      21.418  14.628  -4.456  0.00  0.00    +0.042 C 
ENDBRANCH  11  13
ENDBRANCH   7   9
ENDBRANCH   6   7
ENDBRANCH   5   6
ENDBRANCH   1   5
BRANCH   2  20
ATOM     20  C   UNL     1      30.813  16.789   0.235  0.00  0.00    +0.152 C 
BRANCH  20  21
ATOM     21  C   UNL     1      30.755  15.258   0.417  0.00  0.00    +0.193 C 
ATOM     22  O   UNL     1      31.247  14.675  -0.809  0.00  0.00    -0.219 OA
BRANCH  21  23
ATOM     23  C   UNL     1      31.637  14.635   1.521  0.00  0.00    +0.212 C 
ATOM     24  O   UNL     1      31.808  15.559   2.609  0.00  0.00    -0.218 OA
BRANCH  23  25
ATOM     25  C   UNL     1      31.061  13.284   2.094  0.00  0.00    +0.171 C 
ATOM     26  O   UNL     1      29.641  13.298   2.205  0.00  0.00    -0.343 OA
ATOM     27  C   UNL     1      28.896  12.342   2.899  0.00  0.00    +0.220 C 
ATOM     28  C   UNL     1      29.435  12.122   4.323  0.00  0.00    +0.076 C 
ATOM     29  C   UNL     1      30.937  11.812   4.206  0.00  0.00    +0.177 C 
ATOM     30  O   UNL     1      31.479  11.559   5.495  0.00  0.00    -0.221 OA
ATOM     31  C   UNL     1      31.676  12.992   3.502  0.00  0.00    +0.155 C 
BRANCH  31  32
ATOM     32  N   UNL     1      33.104  12.704   3.395  0.00  0.00    -0.202 NA
ATOM     33  C   UNL     1      34.142  13.181   4.127  0.00  0.00    +0.242 C 
ATOM     34  C   UNL     1      35.479  12.498   4.003  0.00  0.00    +0.096 C 
ATOM     35  O   UNL     1      33.970  14.147   4.868  0.00  0.00    -0.273 OA
ENDBRANCH  31  32
BRANCH  27  36
ATOM     36  C   UNL     1      28.737  10.938   2.097  0.00  0.00    +0.391 C 
ATOM     37  O   UNL     1      28.313  10.055   3.022  0.00  0.00    -0.243 OA
ATOM     38  O   UNL     1      28.790  11.248   0.796  0.00  0.00    -0.243 OA
ENDBRANCH  27  36
ENDBRANCH  23  25
ENDBRANCH  21  23
ENDBRANCH  20  21
ENDBRANCH   2  20
TORSDOF 11
