REMARK VINA RESULT:    -5.670      3.414      9.008
REMARK INTER + INTRA:         -12.324
REMARK INTER:                 -10.934
REMARK INTRA:                  -1.390
REMARK UNBOUND:                -2.511
REMARK  Name = lig_assembled_1.pdb
REMARK  13 active torsions:
REMARK  status: ('A' for Active; 'I' for Inactive)
REMARK    1  A    between atoms: _2  and  _8
REMARK    2  A    between atoms: _4  and  _8
REMARK    3  A    between atoms: _4  and  _9
REMARK    4  A    between atoms: _5  and  _6
REMARK    5  A    between atoms: _5  and  _10
REMARK    6  A    between atoms: _10  and  _12
REMARK    7  A    between atoms: _11  and  _16
REMARK    8  A    between atoms: _12  and  _15
REMARK    9  A    between atoms: _20  and  _30
REMARK   10  A    between atoms: _22  and  _23
REMARK   11  A    between atoms: _24  and  _26
REMARK   12  A    between atoms: _26  and  _28
REMARK   13  A    between atoms: _28  and  _30
REMARK                            x       y       z     vdW  Elec       q    Type
REMARK                         _______ _______ _______ _____ _____    ______ ____
ROOT
ATOM      1  C   UNL     1      24.870  15.091  -2.766  0.00  0.00    +0.193 C 
ATOM      2  O   UNL     1      23.689  15.010  -3.594  0.00  0.00    -0.219 OA
ENDROOT
BRANCH   1   3
ATOM      3  C   UNL     1      25.305  13.622  -2.569  0.00  0.00    +0.212 C 
ATOM      4  O   UNL     1      26.619  13.412  -3.111  0.00  0.00    -0.218 OA
BRANCH   3   5
ATOM      5  C   UNL     1      25.303  13.167  -1.060  0.00  0.00    +0.171 C 
ATOM      6  O   UNL     1      26.459  12.410  -0.715  0.00  0.00    -0.343 OA
ATOM      7  C   UNL     1      26.600  11.684   0.470  0.00  0.00    +0.220 C 
ATOM      8  C   UNL     1      25.393  10.764   0.722  0.00  0.00    +0.076 C 
ATOM      9  C   UNL     1      24.125  11.630   0.641  0.00  0.00    +0.177 C 
ATOM     10  O   UNL     1      22.980  10.833   0.907  0.00  0.00    -0.221 OA
ATOM     11  C   UNL     1      24.029  12.312  -0.759  0.00  0.00    +0.155 C 
BRANCH  11  12
ATOM     12  N   UNL     1      22.822  13.131  -0.842  0.00  0.00    -0.202 NA
ATOM     13  C   UNL     1      21.695  12.943  -1.575  0.00  0.00    +0.242 C 
ATOM     14  C   UNL     1      20.485  13.780  -1.252  0.00  0.00    +0.096 C 
ATOM     15  O   UNL     1      21.688  12.105  -2.474  0.00  0.00    -0.273 OA
ENDBRANCH  11  12
BRANCH   7  16
ATOM     16  C   UNL     1      26.923  12.613   1.763  0.00  0.00    +0.391 C 
ATOM     17  O   UNL     1      26.376  11.958   2.806  0.00  0.00    -0.243 OA
ATOM     18  O   UNL     1      27.847  13.495   1.364  0.00  0.00    -0.243 OA
ENDBRANCH   7  16
ENDBRANCH   3   5
ENDBRANCH   1   3
BRANCH   1  19
ATOM     19  C   UNL     1      25.853  16.037  -3.487  0.00  0.00    +0.152 C 
BRANCH  19  21
ATOM     20  C   UNL     1      27.428  17.656  -1.956  0.00  0.00    +0.400 C 
ATOM     21  N   UNL     1      26.387  17.139  -2.691  0.00  0.00    -0.278 N 
ATOM     22  H   UNL     1      25.653  17.915  -2.660  0.00  0.00    +0.152 HD
ATOM     23  O   UNL     1      27.373  18.838  -1.626  0.00  0.00    -0.226 OA
BRANCH  20  24
ATOM     24  O   UNL     1      28.368  16.822  -1.653  0.00  0.00    -0.450 OA
BRANCH  24  25
ATOM     25  C   UNL     1      28.871  16.143  -0.526  0.00  0.00    +0.240 C 
BRANCH  25  26
ATOM     26  C   UNL     1      30.098  16.750   0.180  0.00  0.00    +0.100 C 
BRANCH  26  28
ATOM     27  N   UNL     1      31.732  15.039  -0.555  0.00  0.00    -0.134 NA
ATOM     28  C   UNL     1      31.098  15.703   0.462  0.00  0.00    +0.086 A 
ATOM     29  C   UNL     1      31.556  15.222   1.668  0.00  0.00    +0.133 A 
ATOM     30  N   UNL     1      32.460  14.264   1.317  0.00  0.00    -0.249 N 
ATOM     31  N   UNL     1      32.561  14.154  -0.017  0.00  0.00    -0.065 NA
BRANCH  30  32
ATOM     32  C   UNL     1      33.261  13.434   2.188  0.00  0.00    +0.173 C 
BRANCH  32  33
ATOM     33  C   UNL     1      34.006  14.238   3.246  0.00  0.00    +0.179 C 
BRANCH  33  34
ATOM     34  O   UNL     1      35.274  14.675   2.762  0.00  0.00    -0.393 OA
ATOM     35  H   UNL     1      35.937  14.037   3.088  0.00  0.00    +0.209 HD
ENDBRANCH  33  34
ENDBRANCH  32  33
ENDBRANCH  30  32
ENDBRANCH  26  28
ENDBRANCH  25  26
ENDBRANCH  24  25
ENDBRANCH  20  24
ENDBRANCH  19  21
ENDBRANCH   1  19
TORSDOF 13
