REMARK VINA RESULT:    -7.871      1.532      2.346
REMARK INTER + INTRA:         -14.529
REMARK INTER:                 -12.689
REMARK INTRA:                  -1.841
REMARK UNBOUND:                -1.598
REMARK  Name = lig_assembled_80.pdb
REMARK  11 active torsions:
REMARK  status: ('A' for Active; 'I' for Inactive)
REMARK    1  A    between atoms: _2  and  _9
REMARK    2  A    between atoms: _6  and  _7
REMARK    3  A    between atoms: _6  and  _19
REMARK    4  A    between atoms: _19  and  _21
REMARK    5  A    between atoms: _20  and  _25
REMARK    6  A    between atoms: _21  and  _24
REMARK    7  A    between atoms: _29  and  _39
REMARK    8  A    between atoms: _31  and  _32
REMARK    9  A    between atoms: _33  and  _35
REMARK   10  A    between atoms: _35  and  _37
REMARK   11  A    between atoms: _37  and  _39
REMARK                            x       y       z     vdW  Elec       q    Type
REMARK                         _______ _______ _______ _____ _____    ______ ____
ROOT
ATOM      1  C   UNL     1      27.862  17.500  -0.779  0.00  0.00    +0.400 C 
ATOM      2  N   UNL     1      28.551  16.476  -0.172  0.00  0.00    -0.278 N 
ATOM      3  H   UNL     1      28.727  16.848   0.814  0.00  0.00    +0.152 HD
ATOM      4  O   UNL     1      27.473  18.432  -0.079  0.00  0.00    -0.226 OA
ENDROOT
BRANCH   1   5
ATOM      5  O   UNL     1      27.714  17.393  -2.059  0.00  0.00    -0.450 OA
BRANCH   5   6
ATOM      6  C   UNL     1      26.725  17.597  -3.041  0.00  0.00    +0.240 C 
BRANCH   6   7
ATOM      7  C   UNL     1      26.760  16.689  -4.285  0.00  0.00    +0.100 C 
BRANCH   7   9
ATOM      8  N   UNL     1      25.174  15.090  -5.282  0.00  0.00    -0.134 NA
ATOM      9  C   UNL     1      25.762  15.607  -4.162  0.00  0.00    +0.086 A 
ATOM     10  C   UNL     1      25.276  14.963  -3.047  0.00  0.00    +0.134 A 
ATOM     11  N   UNL     1      24.344  14.096  -3.554  0.00  0.00    -0.240 N 
ATOM     12  N   UNL     1      24.316  14.152  -4.903  0.00  0.00    -0.065 NA
BRANCH  11  13
ATOM     13  C   UNL     1      23.561  13.058  -2.875  0.00  0.00    +0.195 C 
ATOM     14  C   UNL     1      24.499  12.248  -1.990  0.00  0.00    +0.041 C 
ATOM     15  C   UNL     1      23.824  10.990  -1.488  0.00  0.00    +0.039 C 
ATOM     16  C   UNL     1      23.032  11.295  -0.253  0.00  0.00    -0.026 A 
ATOM     17  C   UNL     1      21.928  12.149  -0.261  0.00  0.00    +0.037 A 
ATOM     18  C   UNL     1      21.164  12.291   0.910  0.00  0.00    +0.023 A 
ATOM     19  C   UNL     1      21.557  11.688   2.104  0.00  0.00    +0.002 A 
ATOM     20  C   UNL     1      22.697  10.898   2.130  0.00  0.00    +0.000 A 
ATOM     21  N   UNL     1      21.535  12.971  -1.330  0.00  0.00    -0.284 N 
ATOM     22  H   UNL     1      20.688  13.507  -1.164  0.00  0.00    +0.155 HD
ATOM     23  C   UNL     1      23.414  10.682   0.955  0.00  0.00    +0.005 A 
ATOM     24  C   UNL     1      22.297  13.635  -2.249  0.00  0.00    +0.242 C 
ATOM     25  O   UNL     1      21.823  14.713  -2.629  0.00  0.00    -0.273 OA
ENDBRANCH  11  13
ENDBRANCH   7   9
ENDBRANCH   6   7
ENDBRANCH   5   6
ENDBRANCH   1   5
BRANCH   2  26
ATOM     26  C   UNL     1      29.123  15.135  -0.263  0.00  0.00    +0.152 C 
BRANCH  26  27
ATOM     27  C   UNL     1      30.658  15.042  -0.149  0.00  0.00    +0.193 C 
ATOM     28  O   UNL     1      31.154  16.398  -0.098  0.00  0.00    -0.219 OA
BRANCH  27  29
ATOM     29  C   UNL     1      31.242  14.371   1.113  0.00  0.00    +0.212 C 
ATOM     30  O   UNL     1      31.484  15.351   2.136  0.00  0.00    -0.218 OA
BRANCH  29  31
ATOM     31  C   UNL     1      30.315  13.242   1.706  0.00  0.00    +0.171 C 
ATOM     32  O   UNL     1      30.098  13.390   3.105  0.00  0.00    -0.343 OA
ATOM     33  C   UNL     1      29.526  12.411   3.922  0.00  0.00    +0.220 C 
ATOM     34  C   UNL     1      30.206  11.044   3.736  0.00  0.00    +0.076 C 
ATOM     35  C   UNL     1      30.193  10.721   2.232  0.00  0.00    +0.177 C 
ATOM     36  O   UNL     1      30.777   9.446   2.008  0.00  0.00    -0.221 OA
ATOM     37  C   UNL     1      30.942  11.835   1.437  0.00  0.00    +0.155 C 
BRANCH  37  38
ATOM     38  N   UNL     1      30.938  11.529   0.009  0.00  0.00    -0.202 NA
ATOM     39  C   UNL     1      31.976  11.425  -0.860  0.00  0.00    +0.242 C 
ATOM     40  C   UNL     1      31.720  10.809  -2.211  0.00  0.00    +0.096 C 
ATOM     41  O   UNL     1      33.089  11.829  -0.528  0.00  0.00    -0.273 OA
ENDBRANCH  37  38
BRANCH  33  42
ATOM     42  C   UNL     1      27.912  12.301   3.767  0.00  0.00    +0.391 C 
ATOM     43  O   UNL     1      27.598  11.087   4.258  0.00  0.00    -0.243 OA
ATOM     44  O   UNL     1      27.481  13.540   3.501  0.00  0.00    -0.243 OA
ENDBRANCH  33  42
ENDBRANCH  29  31
ENDBRANCH  27  29
ENDBRANCH  26  27
ENDBRANCH   2  26
TORSDOF 11
