REMARK VINA RESULT:    -7.353      2.025      2.758
REMARK INTER + INTRA:         -14.272
REMARK INTER:                 -12.219
REMARK INTRA:                  -2.053
REMARK UNBOUND:                -2.191
REMARK  Name = lig_assembled_93.pdb
REMARK  11 active torsions:
REMARK  status: ('A' for Active; 'I' for Inactive)
REMARK    1  A    between atoms: _2  and  _8
REMARK    2  A    between atoms: _5  and  _6
REMARK    3  A    between atoms: _5  and  _13
REMARK    4  A    between atoms: _13  and  _15
REMARK    5  A    between atoms: _14  and  _19
REMARK    6  A    between atoms: _15  and  _18
REMARK    7  A    between atoms: _23  and  _33
REMARK    8  A    between atoms: _25  and  _26
REMARK    9  A    between atoms: _27  and  _29
REMARK   10  A    between atoms: _29  and  _31
REMARK   11  A    between atoms: _31  and  _33
REMARK                            x       y       z     vdW  Elec       q    Type
REMARK                         _______ _______ _______ _____ _____    ______ ____
ROOT
ATOM      1  C   UNL     1      28.177  16.854  -0.795  0.00  0.00    +0.400 C 
ATOM      2  N   UNL     1      28.386  15.608  -0.253  0.00  0.00    -0.278 N 
ATOM      3  H   UNL     1      28.805  15.822   0.707  0.00  0.00    +0.152 HD
ATOM      4  O   UNL     1      28.320  17.833  -0.067  0.00  0.00    -0.226 OA
ENDROOT
BRANCH   1   5
ATOM      5  O   UNL     1      27.875  16.875  -2.051  0.00  0.00    -0.450 OA
BRANCH   5   6
ATOM      6  C   UNL     1      26.857  17.356  -2.898  0.00  0.00    +0.240 C 
BRANCH   6   7
ATOM      7  C   UNL     1      26.497  16.505  -4.131  0.00  0.00    +0.100 C 
BRANCH   7   9
ATOM      8  N   UNL     1      25.046  14.586  -4.674  0.00  0.00    -0.134 NA
ATOM      9  C   UNL     1      25.420  15.555  -3.799  0.00  0.00    +0.086 A 
ATOM     10  C   UNL     1      24.652  15.448  -2.662  0.00  0.00    +0.139 A 
ATOM     11  N   UNL     1      23.814  14.366  -2.880  0.00  0.00    -0.219 N 
ATOM     12  N   UNL     1      24.076  13.880  -4.113  0.00  0.00    -0.061 NA
BRANCH  11  13
ATOM     13  C   UNL     1      22.840  13.811  -1.992  0.00  0.00    +0.080 A 
ATOM     14  C   UNL     1      21.546  14.384  -1.998  0.00  0.00    +0.029 A 
ATOM     15  C   UNL     1      20.532  13.924  -1.152  0.00  0.00    +0.002 A 
ATOM     16  C   UNL     1      20.781  12.879  -0.279  0.00  0.00    +0.001 A 
ATOM     17  C   UNL     1      22.044  12.292  -0.255  0.00  0.00    +0.016 A 
ATOM     18  C   UNL     1      23.079  12.742  -1.102  0.00  0.00    +0.039 A 
ATOM     19  I   UNL     1      24.871  11.648  -0.836  0.00  0.00    -0.042 I 
ENDBRANCH  11  13
ENDBRANCH   7   9
ENDBRANCH   6   7
ENDBRANCH   5   6
ENDBRANCH   1   5
BRANCH   2  20
ATOM     20  C   UNL     1      28.280  14.157  -0.391  0.00  0.00    +0.152 C 
BRANCH  20  21
ATOM     21  C   UNL     1      27.975  13.372   0.902  0.00  0.00    +0.193 C 
ATOM     22  O   UNL     1      28.468  12.030   0.698  0.00  0.00    -0.219 OA
BRANCH  21  23
ATOM     23  C   UNL     1      28.662  13.842   2.203  0.00  0.00    +0.212 C 
ATOM     24  O   UNL     1      27.697  13.977   3.259  0.00  0.00    -0.218 OA
BRANCH  23  25
ATOM     25  C   UNL     1      29.808  12.874   2.688  0.00  0.00    +0.171 C 
ATOM     26  O   UNL     1      29.602  12.404   4.016  0.00  0.00    -0.343 OA
ATOM     27  C   UNL     1      30.567  11.739   4.775  0.00  0.00    +0.220 C 
ATOM     28  C   UNL     1      31.904  12.501   4.793  0.00  0.00    +0.076 C 
ATOM     29  C   UNL     1      32.302  12.772   3.333  0.00  0.00    +0.177 C 
ATOM     30  O   UNL     1      33.554  13.442   3.291  0.00  0.00    -0.221 OA
ATOM     31  C   UNL     1      31.190  13.602   2.618  0.00  0.00    +0.155 C 
BRANCH  31  32
ATOM     32  N   UNL     1      31.568  13.867   1.232  0.00  0.00    -0.202 NA
ATOM     33  C   UNL     1      31.636  15.045   0.561  0.00  0.00    +0.242 C 
ATOM     34  C   UNL     1      32.337  15.069  -0.772  0.00  0.00    +0.096 C 
ATOM     35  O   UNL     1      31.131  16.053   1.051  0.00  0.00    -0.273 OA
ENDBRANCH  31  32
BRANCH  27  36
ATOM     36  C   UNL     1      30.772  10.186   4.345  0.00  0.00    +0.391 C 
ATOM     37  O   UNL     1      31.823   9.759   5.073  0.00  0.00    -0.243 OA
ATOM     38  O   UNL     1      29.665   9.837   3.679  0.00  0.00    -0.243 OA
ENDBRANCH  27  36
ENDBRANCH  23  25
ENDBRANCH  21  23
ENDBRANCH  20  21
ENDBRANCH   2  20
TORSDOF 11
