REMARK VINA RESULT:    -6.539      1.877      2.406
REMARK INTER + INTRA:         -13.226
REMARK INTER:                 -11.739
REMARK INTRA:                  -1.488
REMARK UNBOUND:                -1.336
REMARK  Name = lig_assembled_19.pdb
REMARK  15 active torsions:
REMARK  status: ('A' for Active; 'I' for Inactive)
REMARK    1  A    between atoms: _2  and  _8
REMARK    2  A    between atoms: _4  and  _10
REMARK    3  A    between atoms: _5  and  _6
REMARK    4  A    between atoms: _5  and  _13
REMARK    5  A    between atoms: _8  and  _9
REMARK    6  A    between atoms: _9  and  _12
REMARK    7  A    between atoms: _10  and  _12
REMARK    8  A    between atoms: _13  and  _15
REMARK    9  A    between atoms: _14  and  _19
REMARK   10  A    between atoms: _15  and  _18
REMARK   11  A    between atoms: _23  and  _33
REMARK   12  A    between atoms: _25  and  _26
REMARK   13  A    between atoms: _27  and  _29
REMARK   14  A    between atoms: _29  and  _31
REMARK   15  A    between atoms: _31  and  _33
REMARK                            x       y       z     vdW  Elec       q    Type
REMARK                         _______ _______ _______ _____ _____    ______ ____
ROOT
ATOM      1  C   UNL     1      29.266  14.497   0.299  0.00  0.00    +0.152 C 
ENDROOT
BRANCH   1   3
ATOM      2  C   UNL     1      28.649  17.032  -0.498  0.00  0.00    +0.400 C 
ATOM      3  N   UNL     1      29.149  15.948   0.183  0.00  0.00    -0.278 N 
ATOM      4  H   UNL     1      29.681  16.392   0.998  0.00  0.00    +0.152 HD
ATOM      5  O   UNL     1      28.744  18.140   0.024  0.00  0.00    -0.226 OA
BRANCH   2   6
ATOM      6  O   UNL     1      28.143  16.778  -1.661  0.00  0.00    -0.450 OA
BRANCH   6   7
ATOM      7  C   UNL     1      27.152  17.279  -2.527  0.00  0.00    +0.240 C 
BRANCH   7   8
ATOM      8  C   UNL     1      26.993  16.592  -3.897  0.00  0.00    +0.100 C 
BRANCH   8  10
ATOM      9  N   UNL     1      25.163  15.297  -4.954  0.00  0.00    -0.134 NA
ATOM     10  C   UNL     1      25.916  15.587  -3.845  0.00  0.00    +0.086 A 
ATOM     11  C   UNL     1      25.482  14.812  -2.793  0.00  0.00    +0.133 A 
ATOM     12  N   UNL     1      24.461  14.084  -3.323  0.00  0.00    -0.248 N 
ATOM     13  N   UNL     1      24.273  14.371  -4.621  0.00  0.00    -0.065 NA
BRANCH  12  14
ATOM     14  C   UNL     1      23.637  13.096  -2.662  0.00  0.00    +0.186 C 
BRANCH  14  15
ATOM     15  C   UNL     1      22.156  13.303  -2.960  0.00  0.00    +0.255 C 
BRANCH  15  16
ATOM     16  O   UNL     1      21.575  14.343  -2.149  0.00  0.00    -0.463 OA
BRANCH  16  17
ATOM     17  C   UNL     1      20.392  14.043  -1.552  0.00  0.00    +0.304 C 
ATOM     18  O   UNL     1      20.227  13.927  -0.346  0.00  0.00    -0.251 OA
ATOM     19  C   UNL     1      19.300  13.905  -2.568  0.00  0.00    +0.136 C 
ENDBRANCH  16  17
ENDBRANCH  15  16
ENDBRANCH  14  15
ENDBRANCH  12  14
ENDBRANCH   8  10
ENDBRANCH   7   8
ENDBRANCH   6   7
ENDBRANCH   2   6
ENDBRANCH   1   3
BRANCH   1  20
ATOM     20  C   UNL     1      30.701  13.935   0.382  0.00  0.00    +0.193 C 
ATOM     21  O   UNL     1      30.580  12.497   0.449  0.00  0.00    -0.219 OA
BRANCH  20  22
ATOM     22  C   UNL     1      31.638  14.187  -0.820  0.00  0.00    +0.212 C 
ATOM     23  O   UNL     1      32.011  15.573  -0.884  0.00  0.00    -0.218 OA
BRANCH  22  24
ATOM     24  C   UNL     1      32.949  13.313  -0.783  0.00  0.00    +0.171 C 
ATOM     25  O   UNL     1      33.827  13.687   0.273  0.00  0.00    -0.343 OA
ATOM     26  C   UNL     1      35.149  13.252   0.391  0.00  0.00    +0.220 C 
ATOM     27  C   UNL     1      35.936  13.461  -0.915  0.00  0.00    +0.076 C 
ATOM     28  C   UNL     1      35.136  12.799  -2.048  0.00  0.00    +0.177 C 
ATOM     29  O   UNL     1      35.840  12.928  -3.275  0.00  0.00    -0.221 OA
ATOM     30  C   UNL     1      33.713  13.433  -2.143  0.00  0.00    +0.155 C 
BRANCH  30  31
ATOM     31  N   UNL     1      32.951  12.812  -3.223  0.00  0.00    -0.202 NA
ATOM     32  C   UNL     1      32.827  13.184  -4.522  0.00  0.00    +0.242 C 
ATOM     33  C   UNL     1      32.221  12.203  -5.492  0.00  0.00    +0.096 C 
ATOM     34  O   UNL     1      33.209  14.298  -4.875  0.00  0.00    -0.273 OA
ENDBRANCH  30  31
BRANCH  26  35
ATOM     35  C   UNL     1      35.283  11.726   0.932  0.00  0.00    +0.391 C 
ATOM     36  O   UNL     1      36.560  11.379   0.680  0.00  0.00    -0.243 OA
ATOM     37  O   UNL     1      34.194  11.502   1.678  0.00  0.00    -0.243 OA
ENDBRANCH  26  35
ENDBRANCH  22  24
ENDBRANCH  20  22
ENDBRANCH   1  20
TORSDOF 14
