REMARK VINA RESULT:    -7.271      1.918      2.767
REMARK INTER + INTRA:         -15.291
REMARK INTER:                 -12.898
REMARK INTRA:                  -2.394
REMARK UNBOUND:                -2.494
REMARK  Name = lig_assembled_79.pdb
REMARK  15 active torsions:
REMARK  status: ('A' for Active; 'I' for Inactive)
REMARK    1  A    between atoms: _2  and  _9
REMARK    2  A    between atoms: _6  and  _7
REMARK    3  A    between atoms: _6  and  _21
REMARK    4  A    between atoms: _9  and  _10
REMARK    5  A    between atoms: _9  and  _11
REMARK    6  A    between atoms: _9  and  _12
REMARK    7  A    between atoms: _12  and  _13
REMARK    8  A    between atoms: _21  and  _23
REMARK    9  A    between atoms: _22  and  _27
REMARK   10  A    between atoms: _23  and  _26
REMARK   11  A    between atoms: _31  and  _41
REMARK   12  A    between atoms: _33  and  _34
REMARK   13  A    between atoms: _35  and  _37
REMARK   14  A    between atoms: _37  and  _39
REMARK   15  A    between atoms: _39  and  _41
REMARK                            x       y       z     vdW  Elec       q    Type
REMARK                         _______ _______ _______ _____ _____    ______ ____
ROOT
ATOM      1  O   UNL     1      27.265  16.682  -2.125  0.00  0.00    -0.450 OA
ENDROOT
BRANCH   1   2
ATOM      2  C   UNL     1      27.603  17.340  -1.066  0.00  0.00    +0.400 C 
ATOM      3  N   UNL     1      28.295  16.625  -0.116  0.00  0.00    -0.278 N 
ATOM      4  H   UNL     1      28.640  17.379   0.558  0.00  0.00    +0.152 HD
ATOM      5  O   UNL     1      27.390  18.531  -0.853  0.00  0.00    -0.226 OA
BRANCH   3   6
ATOM      6  C   UNL     1      28.746  15.328   0.380  0.00  0.00    +0.152 C 
BRANCH   6   7
ATOM      7  C   UNL     1      30.071  14.799  -0.208  0.00  0.00    +0.193 C 
ATOM      8  O   UNL     1      30.839  15.955  -0.608  0.00  0.00    -0.219 OA
BRANCH   7   9
ATOM      9  C   UNL     1      31.011  14.018   0.736  0.00  0.00    +0.212 C 
ATOM     10  O   UNL     1      30.400  12.785   1.147  0.00  0.00    -0.218 OA
BRANCH   9  11
ATOM     11  C   UNL     1      32.414  13.695   0.093  0.00  0.00    +0.171 C 
ATOM     12  O   UNL     1      32.305  12.948  -1.114  0.00  0.00    -0.343 OA
ATOM     13  C   UNL     1      33.378  12.325  -1.755  0.00  0.00    +0.220 C 
ATOM     14  C   UNL     1      34.194  11.454  -0.784  0.00  0.00    +0.076 C 
ATOM     15  C   UNL     1      34.580  12.335   0.415  0.00  0.00    +0.177 C 
ATOM     16  O   UNL     1      35.372  11.587   1.327  0.00  0.00    -0.221 OA
ATOM     17  C   UNL     1      33.297  12.895   1.105  0.00  0.00    +0.155 C 
BRANCH  17  18
ATOM     18  N   UNL     1      33.660  13.727   2.250  0.00  0.00    -0.202 NA
ATOM     19  C   UNL     1      33.578  13.459   3.578  0.00  0.00    +0.242 C 
ATOM     20  C   UNL     1      34.293  14.375   4.538  0.00  0.00    +0.096 C 
ATOM     21  O   UNL     1      32.932  12.487   3.963  0.00  0.00    -0.273 OA
ENDBRANCH  17  18
BRANCH  13  22
ATOM     22  C   UNL     1      34.328  13.355  -2.576  0.00  0.00    +0.391 C 
ATOM     23  O   UNL     1      35.471  12.675  -2.795  0.00  0.00    -0.243 OA
ATOM     24  O   UNL     1      33.531  14.352  -2.981  0.00  0.00    -0.243 OA
ENDBRANCH  13  22
ENDBRANCH   9  11
ENDBRANCH   7   9
ENDBRANCH   6   7
ENDBRANCH   3   6
ENDBRANCH   1   2
BRANCH   1  25
ATOM     25  C   UNL     1      26.470  15.577  -2.488  0.00  0.00    +0.240 C 
BRANCH  25  26
ATOM     26  C   UNL     1      25.076  15.867  -3.078  0.00  0.00    +0.100 C 
BRANCH  26  28
ATOM     27  N   UNL     1      24.372  13.547  -3.532  0.00  0.00    -0.134 NA
ATOM     28  C   UNL     1      24.182  14.717  -2.855  0.00  0.00    +0.086 A 
ATOM     29  C   UNL     1      23.090  14.588  -2.028  0.00  0.00    +0.134 A 
ATOM     30  N   UNL     1      22.703  13.284  -2.170  0.00  0.00    -0.238 N 
ATOM     31  N   UNL     1      23.439  12.693  -3.143  0.00  0.00    -0.065 NA
BRANCH  30  32
ATOM     32  C   UNL     1      21.541  12.542  -1.599  0.00  0.00    +0.122 C 
ATOM     33  C   UNL     1      20.650  12.132  -2.796  0.00  0.00    +0.044 C 
ATOM     34  C   UNL     1      20.883  13.528  -0.614  0.00  0.00    +0.044 C 
BRANCH  32  35
ATOM     35  C   UNL     1      21.940  11.248  -0.860  0.00  0.00    +0.192 C 
ATOM     36  O   UNL     1      21.544  10.152  -1.265  0.00  0.00    -0.289 OA
BRANCH  35  37
ATOM     37  C   UNL     1      22.787  11.253   0.368  0.00  0.00    +0.045 A 
ATOM     38  C   UNL     1      22.248  10.837   1.582  0.00  0.00    +0.095 A 
ATOM     39  N   UNL     1      23.185  10.951   2.563  0.00  0.00    -0.360 N 
ATOM     40  H   UNL     1      23.041  10.723   3.538  0.00  0.00    +0.165 HD
ATOM     41  C   UNL     1      24.355  11.435   2.040  0.00  0.00    +0.047 A 
ATOM     42  C   UNL     1      25.564  11.711   2.698  0.00  0.00    +0.026 A 
ATOM     43  C   UNL     1      26.626  12.210   1.944  0.00  0.00    +0.002 A 
ATOM     44  C   UNL     1      26.483  12.419   0.582  0.00  0.00    +0.001 A 
ATOM     45  C   UNL     1      25.270  12.135  -0.056  0.00  0.00    +0.011 A 
ATOM     46  C   UNL     1      24.157  11.632   0.667  0.00  0.00    +0.010 A 
ENDBRANCH  35  37
ENDBRANCH  32  35
ENDBRANCH  30  32
ENDBRANCH  26  28
ENDBRANCH  25  26
ENDBRANCH   1  25
TORSDOF 13
