REMARK VINA RESULT:    -7.049      2.174      4.213
REMARK INTER + INTRA:         -13.667
REMARK INTER:                 -11.697
REMARK INTRA:                  -1.971
REMARK UNBOUND:                -2.085
REMARK  Name = lig_assembled_51.pdb
REMARK  11 active torsions:
REMARK  status: ('A' for Active; 'I' for Inactive)
REMARK    1  A    between atoms: _2  and  _8
REMARK    2  A    between atoms: _5  and  _6
REMARK    3  A    between atoms: _5  and  _17
REMARK    4  A    between atoms: _17  and  _19
REMARK    5  A    between atoms: _18  and  _23
REMARK    6  A    between atoms: _19  and  _22
REMARK    7  A    between atoms: _27  and  _37
REMARK    8  A    between atoms: _29  and  _30
REMARK    9  A    between atoms: _31  and  _33
REMARK   10  A    between atoms: _33  and  _35
REMARK   11  A    between atoms: _35  and  _37
REMARK                            x       y       z     vdW  Elec       q    Type
REMARK                         _______ _______ _______ _____ _____    ______ ____
ROOT
ATOM      1  C   UNL     1      28.322  17.713  -0.518  0.00  0.00    +0.400 C 
ATOM      2  N   UNL     1      29.473  17.453   0.187  0.00  0.00    -0.278 N 
ATOM      3  H   UNL     1      29.446  18.171   0.978  0.00  0.00    +0.152 HD
ATOM      4  O   UNL     1      27.508  18.494  -0.031  0.00  0.00    -0.226 OA
ENDROOT
BRANCH   1   5
ATOM      5  O   UNL     1      28.221  17.123  -1.663  0.00  0.00    -0.450 OA
BRANCH   5   6
ATOM      6  C   UNL     1      27.451  16.120  -2.284  0.00  0.00    +0.240 C 
BRANCH   6   7
ATOM      7  C   UNL     1      26.592  16.530  -3.495  0.00  0.00    +0.100 C 
BRANCH   7   9
ATOM      8  N   UNL     1      24.971  15.201  -4.812  0.00  0.00    -0.134 NA
ATOM      9  C   UNL     1      25.405  15.664  -3.600  0.00  0.00    +0.086 A 
ATOM     10  C   UNL     1      24.570  15.190  -2.615  0.00  0.00    +0.134 A 
ATOM     11  N   UNL     1      23.639  14.446  -3.289  0.00  0.00    -0.245 N 
ATOM     12  N   UNL     1      23.892  14.458  -4.611  0.00  0.00    -0.065 NA
BRANCH  11  13
ATOM     13  C   UNL     1      22.498  13.718  -2.729  0.00  0.00    +0.066 C 
ATOM     14  C   UNL     1      22.940  12.914  -1.477  0.00  0.00    +0.034 C 
ATOM     15  C   UNL     1      21.746  12.178  -0.847  0.00  0.00    -0.008 C 
ATOM     16  C   UNL     1      20.675  13.205  -0.444  0.00  0.00    +0.007 C 
ATOM     17  C   UNL     1      20.192  13.979  -1.682  0.00  0.00    -0.008 C 
ATOM     18  C   UNL     1      19.608  12.991  -2.703  0.00  0.00    +0.007 C 
ATOM     19  C   UNL     1      20.678  11.969  -3.116  0.00  0.00    -0.008 C 
ATOM     20  C   UNL     1      21.152  11.200  -1.872  0.00  0.00    +0.007 C 
ATOM     21  C   UNL     1      21.385  14.717  -2.313  0.00  0.00    +0.034 C 
ATOM     22  C   UNL     1      21.873  12.710  -3.741  0.00  0.00    +0.034 C 
ENDBRANCH  11  13
ENDBRANCH   7   9
ENDBRANCH   6   7
ENDBRANCH   5   6
ENDBRANCH   1   5
BRANCH   2  23
ATOM     23  C   UNL     1      30.680  16.646   0.344  0.00  0.00    +0.152 C 
BRANCH  23  24
ATOM     24  C   UNL     1      30.546  15.148  -0.001  0.00  0.00    +0.193 C 
ATOM     25  O   UNL     1      31.879  14.592   0.040  0.00  0.00    -0.219 OA
BRANCH  24  26
ATOM     26  C   UNL     1      29.728  14.262   0.964  0.00  0.00    +0.212 C 
ATOM     27  O   UNL     1      28.354  14.682   0.988  0.00  0.00    -0.218 OA
BRANCH  26  28
ATOM     28  C   UNL     1      29.780  12.729   0.600  0.00  0.00    +0.171 C 
ATOM     29  O   UNL     1      28.583  12.273  -0.022  0.00  0.00    -0.343 OA
ATOM     30  C   UNL     1      28.264  10.928  -0.225  0.00  0.00    +0.220 C 
ATOM     31  C   UNL     1      28.418  10.104   1.065  0.00  0.00    +0.076 C 
ATOM     32  C   UNL     1      29.833  10.358   1.611  0.00  0.00    +0.177 C 
ATOM     33  O   UNL     1      30.043   9.587   2.785  0.00  0.00    -0.221 OA
ATOM     34  C   UNL     1      30.037  11.880   1.888  0.00  0.00    +0.155 C 
BRANCH  34  35
ATOM     35  N   UNL     1      31.378  12.125   2.413  0.00  0.00    -0.202 NA
ATOM     36  C   UNL     1      31.771  12.464   3.667  0.00  0.00    +0.242 C 
ATOM     37  C   UNL     1      33.235  12.367   4.009  0.00  0.00    +0.096 C 
ATOM     38  O   UNL     1      30.933  12.836   4.486  0.00  0.00    -0.273 OA
ENDBRANCH  34  35
BRANCH  30  39
ATOM     39  C   UNL     1      29.068  10.253  -1.464  0.00  0.00    +0.391 C 
ATOM     40  O   UNL     1      28.892   8.926  -1.310  0.00  0.00    -0.243 OA
ATOM     41  O   UNL     1      29.336  11.248  -2.318  0.00  0.00    -0.243 OA
ENDBRANCH  30  39
ENDBRANCH  26  28
ENDBRANCH  24  26
ENDBRANCH  23  24
ENDBRANCH   2  23
TORSDOF 11
