REMARK VINA RESULT:    -6.834      1.869      3.178
REMARK INTER + INTRA:         -12.918
REMARK INTER:                 -11.371
REMARK INTRA:                  -1.548
REMARK UNBOUND:                -1.689
REMARK  Name = lig_assembled_49.pdb
REMARK  11 active torsions:
REMARK  status: ('A' for Active; 'I' for Inactive)
REMARK    1  A    between atoms: _2  and  _8
REMARK    2  A    between atoms: _5  and  _6
REMARK    3  A    between atoms: _5  and  _12
REMARK    4  A    between atoms: _12  and  _14
REMARK    5  A    between atoms: _13  and  _18
REMARK    6  A    between atoms: _14  and  _17
REMARK    7  A    between atoms: _22  and  _32
REMARK    8  A    between atoms: _24  and  _25
REMARK    9  A    between atoms: _26  and  _28
REMARK   10  A    between atoms: _28  and  _30
REMARK   11  A    between atoms: _30  and  _32
REMARK                            x       y       z     vdW  Elec       q    Type
REMARK                         _______ _______ _______ _____ _____    ______ ____
ROOT
ATOM      1  C   UNL     1      28.961  15.071   0.023  0.00  0.00    +0.152 C 
ENDROOT
BRANCH   1   3
ATOM      2  C   UNL     1      27.892  17.389  -0.943  0.00  0.00    +0.400 C 
ATOM      3  N   UNL     1      28.501  16.447  -0.147  0.00  0.00    -0.278 N 
ATOM      4  H   UNL     1      28.716  16.985   0.751  0.00  0.00    +0.152 HD
ATOM      5  O   UNL     1      27.587  18.466  -0.437  0.00  0.00    -0.226 OA
BRANCH   2   6
ATOM      6  O   UNL     1      27.724  17.052  -2.180  0.00  0.00    -0.450 OA
BRANCH   6   7
ATOM      7  C   UNL     1      26.927  17.408  -3.285  0.00  0.00    +0.240 C 
BRANCH   7   8
ATOM      8  C   UNL     1      26.357  16.265  -4.148  0.00  0.00    +0.100 C 
BRANCH   8  10
ATOM      9  N   UNL     1      25.883  14.082  -3.087  0.00  0.00    -0.134 NA
ATOM     10  C   UNL     1      25.510  15.377  -3.330  0.00  0.00    +0.086 A 
ATOM     11  C   UNL     1      24.304  15.623  -2.712  0.00  0.00    +0.134 A 
ATOM     12  N   UNL     1      23.992  14.435  -2.116  0.00  0.00    -0.248 N 
ATOM     13  N   UNL     1      24.944  13.513  -2.343  0.00  0.00    -0.065 NA
BRANCH  12  14
ATOM     14  C   UNL     1      22.811  14.116  -1.352  0.00  0.00    +0.109 C 
ATOM     15  C   UNL     1      21.503  14.512  -2.039  0.00  0.00    +0.027 C 
ATOM     16  C   UNL     1      20.464  13.699  -1.284  0.00  0.00    +0.002 C 
ATOM     17  C   UNL     1      21.138  12.352  -1.056  0.00  0.00    +0.002 C 
ATOM     18  C   UNL     1      22.644  12.624  -1.033  0.00  0.00    +0.027 C 
ENDBRANCH  12  14
ENDBRANCH   8  10
ENDBRANCH   7   8
ENDBRANCH   6   7
ENDBRANCH   2   6
ENDBRANCH   1   3
BRANCH   1  19
ATOM     19  C   UNL     1      30.486  14.875   0.146  0.00  0.00    +0.193 C 
ATOM     20  O   UNL     1      30.929  15.731   1.221  0.00  0.00    -0.219 OA
BRANCH  19  21
ATOM     21  C   UNL     1      30.997  13.471   0.535  0.00  0.00    +0.212 C 
ATOM     22  O   UNL     1      32.087  13.079  -0.316  0.00  0.00    -0.218 OA
BRANCH  21  23
ATOM     23  C   UNL     1      31.469  13.372   2.036  0.00  0.00    +0.171 C 
ATOM     24  O   UNL     1      32.858  13.083   2.156  0.00  0.00    -0.343 OA
ATOM     25  C   UNL     1      33.485  12.704   3.345  0.00  0.00    +0.220 C 
ATOM     26  C   UNL     1      32.745  11.546   4.036  0.00  0.00    +0.076 C 
ATOM     27  C   UNL     1      31.271  11.960   4.184  0.00  0.00    +0.177 C 
ATOM     28  O   UNL     1      30.548  10.938   4.855  0.00  0.00    -0.221 OA
ATOM     29  C   UNL     1      30.655  12.265   2.783  0.00  0.00    +0.155 C 
BRANCH  29  30
ATOM     30  N   UNL     1      29.254  12.652   2.919  0.00  0.00    -0.202 NA
ATOM     31  C   UNL     1      28.143  12.097   2.371  0.00  0.00    +0.242 C 
ATOM     32  C   UNL     1      26.797  12.510   2.909  0.00  0.00    +0.096 C 
ATOM     33  O   UNL     1      28.258  11.279   1.460  0.00  0.00    -0.273 OA
ENDBRANCH  29  30
BRANCH  25  34
ATOM     34  C   UNL     1      33.739  13.943   4.365  0.00  0.00    +0.391 C 
ATOM     35  O   UNL     1      34.036  13.366   5.546  0.00  0.00    -0.243 OA
ATOM     36  O   UNL     1      33.855  15.035   3.599  0.00  0.00    -0.243 OA
ENDBRANCH  25  34
ENDBRANCH  21  23
ENDBRANCH  19  21
ENDBRANCH   1  19
TORSDOF 11
