REMARK VINA RESULT:    -7.471      3.296      9.152
REMARK INTER + INTRA:         -15.342
REMARK INTER:                 -11.451
REMARK INTRA:                  -3.890
REMARK UNBOUND:                -1.975
REMARK  Name = lig_assembled_77.pdb
REMARK  14 active torsions:
REMARK  status: ('A' for Active; 'I' for Inactive)
REMARK    1  A    between atoms: _2  and  _9
REMARK    2  A    between atoms: _3  and  _16
REMARK    3  A    between atoms: _6  and  _7
REMARK    4  A    between atoms: _6  and  _22
REMARK    5  A    between atoms: _12  and  _50
REMARK    6  A    between atoms: _13  and  _50
REMARK    7  A    between atoms: _22  and  _24
REMARK    8  A    between atoms: _23  and  _28
REMARK    9  A    between atoms: _24  and  _27
REMARK   10  A    between atoms: _32  and  _42
REMARK   11  A    between atoms: _34  and  _35
REMARK   12  A    between atoms: _36  and  _38
REMARK   13  A    between atoms: _38  and  _40
REMARK   14  A    between atoms: _40  and  _42
REMARK                            x       y       z     vdW  Elec       q    Type
REMARK                         _______ _______ _______ _____ _____    ______ ____
ROOT
ATOM      1  C   UNL     1      33.330  11.648   3.665  0.00  0.00    +0.240 C 
ENDROOT
BRANCH   1   2
ATOM      2  C   UNL     1      31.995  11.579   4.431  0.00  0.00    +0.100 C 
BRANCH   2   4
ATOM      3  N   UNL     1      31.103  10.575   2.356  0.00  0.00    -0.134 NA
ATOM      4  C   UNL     1      30.886  11.272   3.508  0.00  0.00    +0.086 A 
ATOM      5  C   UNL     1      29.549  11.582   3.602  0.00  0.00    +0.139 A 
ATOM      6  N   UNL     1      28.978  11.038   2.473  0.00  0.00    -0.220 N 
ATOM      7  N   UNL     1      29.942  10.445   1.728  0.00  0.00    -0.061 NA
BRANCH   6   8
ATOM      8  C   UNL     1      27.608  10.995   2.100  0.00  0.00    +0.067 A 
ATOM      9  C   UNL     1      26.641  11.712   2.822  0.00  0.00    +0.030 A 
ATOM     10  C   UNL     1      25.285  11.562   2.517  0.00  0.00    +0.029 A 
ATOM     11  C   UNL     1      24.898  10.699   1.489  0.00  0.00    +0.094 A 
ATOM     12  C   UNL     1      25.857  10.052   0.706  0.00  0.00    +0.029 A 
ATOM     13  C   UNL     1      27.211  10.189   1.019  0.00  0.00    +0.030 A 
BRANCH  11  14
ATOM     14  S   UNL     1      23.167  10.455   1.148  0.00  0.00    +0.025 S 
ATOM     15  O   UNL     1      23.085   9.290   0.284  0.00  0.00    -0.164 OA
ATOM     16  O   UNL     1      22.466  10.485   2.418  0.00  0.00    -0.164 OA
BRANCH  14  17
ATOM     17  C   UNL     1      22.564  11.844   0.210  0.00  0.00    +0.094 A 
ATOM     18  C   UNL     1      21.215  12.203   0.244  0.00  0.00    +0.029 A 
ATOM     19  C   UNL     1      20.765  13.261  -0.554  0.00  0.00    +0.024 A 
ATOM     20  C   UNL     1      21.653  13.995  -1.352  0.00  0.00    +0.025 A 
ATOM     21  C   UNL     1      22.993  13.601  -1.396  0.00  0.00    +0.024 A 
ATOM     22  C   UNL     1      23.457  12.545  -0.605  0.00  0.00    +0.029 A 
BRANCH  20  23
ATOM     23  N   UNL     1      21.166  14.931  -2.268  0.00  0.00    -0.358 N 
ATOM     24  H   UNL     1      21.644  14.938  -3.163  0.00  0.00    +0.142 HD
ATOM     25  H   UNL     1      20.156  14.936  -2.366  0.00  0.00    +0.142 HD
ENDBRANCH  20  23
ENDBRANCH  14  17
ENDBRANCH  11  14
ENDBRANCH   6   8
ENDBRANCH   2   4
ENDBRANCH   1   2
BRANCH   1  26
ATOM     26  O   UNL     1      33.726  12.902   3.159  0.00  0.00    -0.450 OA
BRANCH  26  27
ATOM     27  C   UNL     1      33.704  13.562   2.048  0.00  0.00    +0.400 C 
ATOM     28  N   UNL     1      32.605  14.365   1.855  0.00  0.00    -0.278 N 
ATOM     29  H   UNL     1      32.874  14.952   1.003  0.00  0.00    +0.152 HD
ATOM     30  O   UNL     1      34.576  13.556   1.183  0.00  0.00    -0.226 OA
BRANCH  28  31
ATOM     31  C   UNL     1      31.261  14.757   2.272  0.00  0.00    +0.152 C 
BRANCH  31  32
ATOM     32  C   UNL     1      30.117  14.405   1.299  0.00  0.00    +0.193 C 
ATOM     33  O   UNL     1      28.909  14.334   2.087  0.00  0.00    -0.219 OA
BRANCH  32  34
ATOM     34  C   UNL     1      29.790  15.422   0.183  0.00  0.00    +0.212 C 
ATOM     35  O   UNL     1      30.988  16.072  -0.270  0.00  0.00    -0.218 OA
BRANCH  34  36
ATOM     36  C   UNL     1      29.067  14.774  -1.059  0.00  0.00    +0.171 C 
ATOM     37  O   UNL     1      27.661  14.654  -0.873  0.00  0.00    -0.343 OA
ATOM     38  C   UNL     1      26.818  13.905  -1.698  0.00  0.00    +0.220 C 
ATOM     39  C   UNL     1      27.347  12.475  -1.906  0.00  0.00    +0.076 C 
ATOM     40  C   UNL     1      28.800  12.586  -2.395  0.00  0.00    +0.177 C 
ATOM     41  O   UNL     1      29.325  11.289  -2.641  0.00  0.00    -0.221 OA
ATOM     42  C   UNL     1      29.663  13.357  -1.348  0.00  0.00    +0.155 C 
BRANCH  42  43
ATOM     43  N   UNL     1      31.046  13.458  -1.806  0.00  0.00    -0.202 NA
ATOM     44  C   UNL     1      32.138  12.745  -1.432  0.00  0.00    +0.242 C 
ATOM     45  C   UNL     1      33.384  12.850  -2.273  0.00  0.00    +0.096 C 
ATOM     46  O   UNL     1      32.087  12.036  -0.429  0.00  0.00    -0.273 OA
ENDBRANCH  42  43
BRANCH  38  47
ATOM     47  C   UNL     1      26.486  14.630  -3.113  0.00  0.00    +0.391 C 
ATOM     48  O   UNL     1      25.982  13.654  -3.894  0.00  0.00    -0.243 OA
ATOM     49  O   UNL     1      26.550  15.946  -2.879  0.00  0.00    -0.243 OA
ENDBRANCH  38  47
ENDBRANCH  34  36
ENDBRANCH  32  34
ENDBRANCH  31  32
ENDBRANCH  28  31
ENDBRANCH  26  27
ENDBRANCH   1  26
TORSDOF 14
