REMARK VINA RESULT:    -7.029      4.129      9.965
REMARK INTER + INTRA:         -12.613
REMARK INTER:                 -11.213
REMARK INTRA:                  -1.400
REMARK UNBOUND:                -1.064
REMARK  Name = lig_assembled_27.pdb
REMARK  11 active torsions:
REMARK  status: ('A' for Active; 'I' for Inactive)
REMARK    1  A    between atoms: _2  and  _8
REMARK    2  A    between atoms: _5  and  _6
REMARK    3  A    between atoms: _5  and  _13
REMARK    4  A    between atoms: _13  and  _15
REMARK    5  A    between atoms: _14  and  _19
REMARK    6  A    between atoms: _15  and  _18
REMARK    7  A    between atoms: _23  and  _33
REMARK    8  A    between atoms: _25  and  _26
REMARK    9  A    between atoms: _27  and  _29
REMARK   10  A    between atoms: _29  and  _31
REMARK   11  A    between atoms: _31  and  _33
REMARK                            x       y       z     vdW  Elec       q    Type
REMARK                         _______ _______ _______ _____ _____    ______ ____
ROOT
ATOM      1  C   UNL     1      27.955  17.816  -1.023  0.00  0.00    +0.400 C 
ATOM      2  N   UNL     1      27.176  17.594  -2.133  0.00  0.00    -0.278 N 
ATOM      3  H   UNL     1      26.204  17.912  -1.821  0.00  0.00    +0.152 HD
ATOM      4  O   UNL     1      27.464  18.441  -0.086  0.00  0.00    -0.226 OA
ENDROOT
BRANCH   1   5
ATOM      5  O   UNL     1      29.143  17.308  -1.062  0.00  0.00    -0.450 OA
BRANCH   5   6
ATOM      6  C   UNL     1      30.084  16.722  -0.192  0.00  0.00    +0.240 C 
BRANCH   6   7
ATOM      7  C   UNL     1      30.162  15.184  -0.161  0.00  0.00    +0.100 C 
BRANCH   7   9
ATOM      8  N   UNL     1      32.398  14.806  -1.153  0.00  0.00    -0.134 NA
ATOM      9  C   UNL     1      31.566  14.744  -0.072  0.00  0.00    +0.086 A 
ATOM     10  C   UNL     1      32.263  14.236   1.000  0.00  0.00    +0.139 A 
ATOM     11  N   UNL     1      33.534  14.006   0.525  0.00  0.00    -0.220 N 
ATOM     12  N   UNL     1      33.590  14.357  -0.783  0.00  0.00    -0.061 NA
BRANCH  11  13
ATOM     13  C   UNL     1      34.662  13.494   1.216  0.00  0.00    +0.068 A 
ATOM     14  C   UNL     1      34.885  13.864   2.552  0.00  0.00    +0.028 A 
ATOM     15  C   UNL     1      35.994  13.369   3.243  0.00  0.00    +0.003 A 
ATOM     16  C   UNL     1      36.886  12.506   2.607  0.00  0.00    +0.020 A 
ATOM     17  C   UNL     1      36.663  12.137   1.282  0.00  0.00    +0.043 A 
ATOM     18 CL   UNL     1      37.762  11.069   0.498  0.00  0.00    -0.083 Cl
ATOM     19  C   UNL     1      35.557  12.623   0.581  0.00  0.00    +0.047 A 
ENDBRANCH  11  13
ENDBRANCH   7   9
ENDBRANCH   6   7
ENDBRANCH   5   6
ENDBRANCH   1   5
BRANCH   2  20
ATOM     20  C   UNL     1      27.084  17.142  -3.519  0.00  0.00    +0.152 C 
BRANCH  20  21
ATOM     21  C   UNL     1      25.990  16.099  -3.823  0.00  0.00    +0.193 C 
ATOM     22  O   UNL     1      25.986  15.907  -5.255  0.00  0.00    -0.219 OA
BRANCH  21  23
ATOM     23  C   UNL     1      26.176  14.678  -3.245  0.00  0.00    +0.212 C 
ATOM     24  O   UNL     1      26.913  14.731  -2.013  0.00  0.00    -0.218 OA
BRANCH  23  25
ATOM     25  C   UNL     1      24.814  13.927  -2.986  0.00  0.00    +0.171 C 
ATOM     26  O   UNL     1      23.919  14.680  -2.174  0.00  0.00    -0.343 OA
ATOM     27  C   UNL     1      22.758  14.164  -1.593  0.00  0.00    +0.220 C 
ATOM     28  C   UNL     1      23.036  12.858  -0.828  0.00  0.00    +0.076 C 
ATOM     29  C   UNL     1      23.758  11.901  -1.792  0.00  0.00    +0.177 C 
ATOM     30  O   UNL     1      24.003  10.661  -1.145  0.00  0.00    -0.221 OA
ATOM     31  C   UNL     1      25.084  12.549  -2.298  0.00  0.00    +0.155 C 
BRANCH  31  32
ATOM     32  N   UNL     1      25.777  11.640  -3.208  0.00  0.00    -0.202 NA
ATOM     33  C   UNL     1      26.989  11.042  -3.082  0.00  0.00    +0.242 C 
ATOM     34  C   UNL     1      27.336   9.922  -4.028  0.00  0.00    +0.096 C 
ATOM     35  O   UNL     1      27.765  11.422  -2.208  0.00  0.00    -0.273 OA
ENDBRANCH  31  32
BRANCH  27  36
ATOM     36  C   UNL     1      21.531  13.991  -2.643  0.00  0.00    +0.391 C 
ATOM     37  O   UNL     1      21.957  14.582  -3.777  0.00  0.00    -0.243 OA
ATOM     38  O   UNL     1      20.705  13.087  -2.102  0.00  0.00    -0.243 OA
ENDBRANCH  27  36
ENDBRANCH  23  25
ENDBRANCH  21  23
ENDBRANCH  20  21
ENDBRANCH   2  20
TORSDOF 11
