REMARK VINA RESULT:    -5.784      2.877      8.320
REMARK INTER + INTRA:         -12.752
REMARK INTER:                 -10.175
REMARK INTRA:                  -2.577
REMARK UNBOUND:                -2.235
REMARK  Name = lig_assembled_50.pdb
REMARK  15 active torsions:
REMARK  status: ('A' for Active; 'I' for Inactive)
REMARK    1  A    between atoms: _2  and  _8
REMARK    2  A    between atoms: _4  and  _9
REMARK    3  A    between atoms: _4  and  _10
REMARK    4  A    between atoms: _5  and  _6
REMARK    5  A    between atoms: _5  and  _12
REMARK    6  A    between atoms: _8  and  _9
REMARK    7  A    between atoms: _9  and  _11
REMARK    8  A    between atoms: _12  and  _14
REMARK    9  A    between atoms: _13  and  _18
REMARK   10  A    between atoms: _14  and  _17
REMARK   11  A    between atoms: _22  and  _32
REMARK   12  A    between atoms: _24  and  _25
REMARK   13  A    between atoms: _26  and  _28
REMARK   14  A    between atoms: _28  and  _30
REMARK   15  A    between atoms: _30  and  _32
REMARK                            x       y       z     vdW  Elec       q    Type
REMARK                         _______ _______ _______ _____ _____    ______ ____
ROOT
ATOM      1  C   UNL     1      31.667  15.189   2.127  0.00  0.00    +0.400 C 
ATOM      2  N   UNL     1      31.200  16.175   1.291  0.00  0.00    -0.278 N 
ATOM      3  H   UNL     1      31.308  17.064   1.873  0.00  0.00    +0.152 HD
ATOM      4  O   UNL     1      32.225  15.528   3.167  0.00  0.00    -0.226 OA
ENDROOT
BRANCH   2   5
ATOM      5  C   UNL     1      30.648  16.545  -0.010  0.00  0.00    +0.152 C 
BRANCH   5   6
ATOM      6  C   UNL     1      29.160  16.208  -0.238  0.00  0.00    +0.193 C 
ATOM      7  O   UNL     1      28.647  17.196  -1.159  0.00  0.00    -0.219 OA
BRANCH   6   8
ATOM      8  C   UNL     1      28.827  14.854  -0.901  0.00  0.00    +0.212 C 
ATOM      9  O   UNL     1      30.025  14.087  -1.106  0.00  0.00    -0.218 OA
BRANCH   8  10
ATOM     10  C   UNL     1      27.809  13.984  -0.068  0.00  0.00    +0.171 C 
ATOM     11  O   UNL     1      28.458  13.123   0.861  0.00  0.00    -0.343 OA
ATOM     12  C   UNL     1      27.825  12.082   1.546  0.00  0.00    +0.220 C 
ATOM     13  C   UNL     1      27.037  11.168   0.592  0.00  0.00    +0.076 C 
ATOM     14  C   UNL     1      26.100  12.062  -0.237  0.00  0.00    +0.177 C 
ATOM     15  O   UNL     1      25.317  11.261  -1.111  0.00  0.00    -0.221 OA
ATOM     16  C   UNL     1      26.929  13.121  -1.030  0.00  0.00    +0.155 C 
BRANCH  16  17
ATOM     17  N   UNL     1      26.043  13.968  -1.824  0.00  0.00    -0.202 NA
ATOM     18  C   UNL     1      26.043  14.213  -3.159  0.00  0.00    +0.242 C 
ATOM     19  C   UNL     1      24.841  14.891  -3.763  0.00  0.00    +0.096 C 
ATOM     20  O   UNL     1      27.013  13.879  -3.837  0.00  0.00    -0.273 OA
ENDBRANCH  16  17
BRANCH  12  21
ATOM     21  C   UNL     1      26.903  12.589   2.784  0.00  0.00    +0.391 C 
ATOM     22  O   UNL     1      25.995  11.610   2.965  0.00  0.00    -0.243 OA
ATOM     23  O   UNL     1      27.561  13.614   3.340  0.00  0.00    -0.243 OA
ENDBRANCH  12  21
ENDBRANCH   8  10
ENDBRANCH   6   8
ENDBRANCH   5   6
ENDBRANCH   2   5
BRANCH   1  24
ATOM     24  O   UNL     1      31.442  13.975   1.742  0.00  0.00    -0.450 OA
BRANCH  24  25
ATOM     25  C   UNL     1      32.109  12.736   1.670  0.00  0.00    +0.240 C 
BRANCH  25  26
ATOM     26  C   UNL     1      33.452  12.694   0.917  0.00  0.00    +0.100 C 
BRANCH  26  28
ATOM     27  N   UNL     1      33.520  14.319  -0.952  0.00  0.00    -0.134 NA
ATOM     28  C   UNL     1      33.257  13.050  -0.502  0.00  0.00    +0.086 A 
ATOM     29  C   UNL     1      32.832  12.276  -1.562  0.00  0.00    +0.133 A 
ATOM     30  N   UNL     1      32.849  13.130  -2.619  0.00  0.00    -0.249 N 
ATOM     31  N   UNL     1      33.279  14.353  -2.254  0.00  0.00    -0.065 NA
BRANCH  30  32
ATOM     32  C   UNL     1      32.470  12.872  -3.988  0.00  0.00    +0.178 C 
BRANCH  32  33
ATOM     33  C   UNL     1      33.556  13.221  -5.013  0.00  0.00    +0.161 C 
BRANCH  33  34
ATOM     34  O   UNL     1      33.899  14.609  -5.003  0.00  0.00    -0.388 OA
ATOM     35  H   UNL     1      34.801  14.705  -4.634  0.00  0.00    +0.210 HD
ENDBRANCH  33  34
BRANCH  33  36
ATOM     36  C   UNL     1      34.827  12.372  -4.874  0.00  0.00    +0.189 C 
BRANCH  36  37
ATOM     37  O   UNL     1      35.684  12.884  -3.855  0.00  0.00    -0.392 OA
ATOM     38  H   UNL     1      35.312  12.631  -2.988  0.00  0.00    +0.210 HD
ENDBRANCH  36  37
ENDBRANCH  33  36
ENDBRANCH  32  33
ENDBRANCH  30  32
ENDBRANCH  26  28
ENDBRANCH  25  26
ENDBRANCH  24  25
ENDBRANCH   1  24
TORSDOF 15
