REMARK VINA RESULT:    -6.993      2.570      4.283
REMARK INTER + INTRA:         -15.220
REMARK INTER:                 -12.862
REMARK INTRA:                  -2.358
REMARK UNBOUND:                -2.913
REMARK  Name = lig_assembled_92.pdb
REMARK  13 active torsions:
REMARK  status: ('A' for Active; 'I' for Inactive)
REMARK    1  A    between atoms: _2  and  _10
REMARK    2  A    between atoms: _3  and  _49
REMARK    3  A    between atoms: _7  and  _8
REMARK    4  A    between atoms: _7  and  _20
REMARK    5  A    between atoms: _13  and  _49
REMARK    6  A    between atoms: _20  and  _22
REMARK    7  A    between atoms: _21  and  _26
REMARK    8  A    between atoms: _22  and  _25
REMARK    9  A    between atoms: _30  and  _40
REMARK   10  A    between atoms: _32  and  _33
REMARK   11  A    between atoms: _34  and  _36
REMARK   12  A    between atoms: _36  and  _38
REMARK   13  A    between atoms: _38  and  _40
REMARK                            x       y       z     vdW  Elec       q    Type
REMARK                         _______ _______ _______ _____ _____    ______ ____
ROOT
ATOM      1  O   UNL     1      24.981  16.219  -3.781  0.00  0.00    -0.450 OA
ENDROOT
BRANCH   1   2
ATOM      2  C   UNL     1      26.222  16.209  -4.145  0.00  0.00    +0.400 C 
ATOM      3  N   UNL     1      27.122  16.648  -3.203  0.00  0.00    -0.278 N 
ATOM      4  H   UNL     1      28.068  16.378  -3.620  0.00  0.00    +0.152 HD
ATOM      5  O   UNL     1      26.657  15.822  -5.226  0.00  0.00    -0.226 OA
BRANCH   3   6
ATOM      6  C   UNL     1      27.360  17.315  -1.925  0.00  0.00    +0.152 C 
BRANCH   6   7
ATOM      7  C   UNL     1      28.536  16.774  -1.085  0.00  0.00    +0.193 C 
ATOM      8  O   UNL     1      28.723  17.698   0.010  0.00  0.00    -0.219 OA
BRANCH   7   9
ATOM      9  C   UNL     1      28.355  15.400  -0.403  0.00  0.00    +0.212 C 
ATOM     10  O   UNL     1      27.534  14.543  -1.213  0.00  0.00    -0.218 OA
BRANCH   9  11
ATOM     11  C   UNL     1      29.718  14.664  -0.111  0.00  0.00    +0.171 C 
ATOM     12  O   UNL     1      30.507  14.487  -1.283  0.00  0.00    -0.343 OA
ATOM     13  C   UNL     1      31.632  13.663  -1.359  0.00  0.00    +0.220 C 
ATOM     14  C   UNL     1      31.343  12.251  -0.819  0.00  0.00    +0.076 C 
ATOM     15  C   UNL     1      30.748  12.408   0.591  0.00  0.00    +0.177 C 
ATOM     16  O   UNL     1      30.498  11.127   1.153  0.00  0.00    -0.221 OA
ATOM     17  C   UNL     1      29.446  13.265   0.532  0.00  0.00    +0.155 C 
BRANCH  17  18
ATOM     18  N   UNL     1      28.874  13.410   1.868  0.00  0.00    -0.202 NA
ATOM     19  C   UNL     1      27.689  12.965   2.358  0.00  0.00    +0.242 C 
ATOM     20  C   UNL     1      27.475  12.995   3.849  0.00  0.00    +0.096 C 
ATOM     21  O   UNL     1      26.828  12.551   1.584  0.00  0.00    -0.273 OA
ENDBRANCH  17  18
BRANCH  13  22
ATOM     22  C   UNL     1      32.953  14.307  -0.667  0.00  0.00    +0.391 C 
ATOM     23  O   UNL     1      33.596  13.264  -0.106  0.00  0.00    -0.243 OA
ATOM     24  O   UNL     1      33.062  15.546  -1.161  0.00  0.00    -0.243 OA
ENDBRANCH  13  22
ENDBRANCH   9  11
ENDBRANCH   7   9
ENDBRANCH   6   7
ENDBRANCH   3   6
ENDBRANCH   1   2
BRANCH   1  25
ATOM     25  C   UNL     1      24.163  15.694  -2.761  0.00  0.00    +0.240 C 
BRANCH  25  26
ATOM     26  C   UNL     1      22.716  15.320  -3.133  0.00  0.00    +0.100 C 
BRANCH  26  28
ATOM     27  N   UNL     1      20.837  14.408  -1.796  0.00  0.00    -0.134 NA
ATOM     28  C   UNL     1      22.158  14.382  -2.142  0.00  0.00    +0.086 A 
ATOM     29  C   UNL     1      22.785  13.379  -1.440  0.00  0.00    +0.139 A 
ATOM     30  N   UNL     1      21.792  12.793  -0.690  0.00  0.00    -0.220 N 
ATOM     31  N   UNL     1      20.623  13.444  -0.910  0.00  0.00    -0.061 NA
BRANCH  30  32
ATOM     32  C   UNL     1      21.883  11.666   0.166  0.00  0.00    +0.067 A 
ATOM     33  C   UNL     1      21.761  11.819   1.555  0.00  0.00    +0.030 A 
ATOM     34  C   UNL     1      21.910  10.719   2.397  0.00  0.00    +0.031 A 
ATOM     35  C   UNL     1      22.170   9.458   1.855  0.00  0.00    +0.109 A 
ATOM     36  C   UNL     1      22.284   9.288   0.474  0.00  0.00    +0.031 A 
ATOM     37  C   UNL     1      22.130  10.392  -0.373  0.00  0.00    +0.030 A 
BRANCH  35  38
ATOM     38  S   UNL     1      22.503   8.114   2.962  0.00  0.00    +0.074 S 
ATOM     39  O   UNL     1      21.250   7.745   3.591  0.00  0.00    -0.150 OA
ATOM     40  O   UNL     1      23.282   7.120   2.261  0.00  0.00    -0.150 OA
BRANCH  38  41
ATOM     41  N   UNL     1      23.414   8.830   4.190  0.00  0.00    -0.194 N 
ATOM     42  H   UNL     1      23.109   8.399   5.059  0.00  0.00    +0.176 HD
ATOM     43  C   UNL     1      24.800   8.712   3.961  0.00  0.00    +0.177 A 
ATOM     44  S   UNL     1      25.756   7.494   4.686  0.00  0.00    -0.059 S 
ATOM     45  C   UNL     1      27.152   8.203   3.983  0.00  0.00    +0.068 A 
ATOM     46  C   UNL     1      26.795   9.357   3.316  0.00  0.00    +0.120 A 
ATOM     47  N   UNL     1      25.440   9.629   3.278  0.00  0.00    -0.232 NA
ENDBRANCH  38  41
ENDBRANCH  35  38
ENDBRANCH  30  32
ENDBRANCH  26  28
ENDBRANCH  25  26
ENDBRANCH   1  25
TORSDOF 13
