REMARK VINA RESULT:    -6.626      1.806      3.619
REMARK INTER + INTRA:         -13.788
REMARK INTER:                 -12.064
REMARK INTRA:                  -1.724
REMARK UNBOUND:                -2.513
REMARK  Name = lig_assembled_28.pdb
REMARK  12 active torsions:
REMARK  status: ('A' for Active; 'I' for Inactive)
REMARK    1  A    between atoms: _2  and  _8
REMARK    2  A    between atoms: _5  and  _6
REMARK    3  A    between atoms: _5  and  _17
REMARK    4  A    between atoms: _8  and  _9
REMARK    5  A    between atoms: _17  and  _19
REMARK    6  A    between atoms: _18  and  _23
REMARK    7  A    between atoms: _19  and  _22
REMARK    8  A    between atoms: _27  and  _37
REMARK    9  A    between atoms: _29  and  _30
REMARK   10  A    between atoms: _31  and  _33
REMARK   11  A    between atoms: _33  and  _35
REMARK   12  A    between atoms: _35  and  _37
REMARK                            x       y       z     vdW  Elec       q    Type
REMARK                         _______ _______ _______ _____ _____    ______ ____
ROOT
ATOM      1  C   UNL     1      28.650  16.996  -0.442  0.00  0.00    +0.400 C 
ATOM      2  N   UNL     1      28.792  15.845   0.296  0.00  0.00    -0.278 N 
ATOM      3  H   UNL     1      29.586  16.080   0.972  0.00  0.00    +0.152 HD
ATOM      4  O   UNL     1      29.263  17.997  -0.078  0.00  0.00    -0.226 OA
ENDROOT
BRANCH   2   5
ATOM      5  C   UNL     1      28.345  14.482   0.574  0.00  0.00    +0.152 C 
BRANCH   5   6
ATOM      6  C   UNL     1      28.670  13.934   1.978  0.00  0.00    +0.193 C 
ATOM      7  O   UNL     1      27.472  13.284   2.458  0.00  0.00    -0.219 OA
BRANCH   6   8
ATOM      8  C   UNL     1      29.766  12.850   2.087  0.00  0.00    +0.212 C 
ATOM      9  O   UNL     1      29.345  11.643   1.431  0.00  0.00    -0.218 OA
BRANCH   8  10
ATOM     10  C   UNL     1      31.149  13.299   1.478  0.00  0.00    +0.171 C 
ATOM     11  O   UNL     1      31.214  13.111   0.068  0.00  0.00    -0.343 OA
ATOM     12  C   UNL     1      32.387  13.192  -0.685  0.00  0.00    +0.220 C 
ATOM     13  C   UNL     1      33.511  12.329  -0.086  0.00  0.00    +0.076 C 
ATOM     14  C   UNL     1      33.661  12.726   1.392  0.00  0.00    +0.177 C 
ATOM     15  O   UNL     1      34.717  11.983   1.985  0.00  0.00    -0.221 OA
ATOM     16  C   UNL     1      32.315  12.501   2.149  0.00  0.00    +0.155 C 
BRANCH  16  17
ATOM     17  N   UNL     1      32.455  12.870   3.555  0.00  0.00    -0.202 NA
ATOM     18  C   UNL     1      32.356  12.101   4.668  0.00  0.00    +0.242 C 
ATOM     19  C   UNL     1      32.837  12.671   5.977  0.00  0.00    +0.096 C 
ATOM     20  O   UNL     1      31.884  10.969   4.584  0.00  0.00    -0.273 OA
ENDBRANCH  16  17
BRANCH  12  21
ATOM     21  C   UNL     1      32.882  14.717  -0.949  0.00  0.00    +0.391 C 
ATOM     22  O   UNL     1      31.805  15.483  -0.685  0.00  0.00    -0.243 OA
ATOM     23  O   UNL     1      34.218  14.664  -1.029  0.00  0.00    -0.243 OA
ENDBRANCH  12  21
ENDBRANCH   8  10
ENDBRANCH   6   8
ENDBRANCH   5   6
ENDBRANCH   2   5
BRANCH   1  24
ATOM     24  O   UNL     1      27.895  16.902  -1.487  0.00  0.00    -0.450 OA
BRANCH  24  25
ATOM     25  C   UNL     1      27.083  17.722  -2.295  0.00  0.00    +0.240 C 
BRANCH  25  26
ATOM     26  C   UNL     1      26.986  17.371  -3.792  0.00  0.00    +0.100 C 
BRANCH  26  28
ATOM     27  N   UNL     1      25.982  15.563  -5.157  0.00  0.00    -0.134 NA
ATOM     28  C   UNL     1      25.997  16.298  -4.004  0.00  0.00    +0.086 A 
ATOM     29  C   UNL     1      25.010  15.837  -3.163  0.00  0.00    +0.134 A 
ATOM     30  N   UNL     1      24.493  14.756  -3.818  0.00  0.00    -0.247 N 
ATOM     31  N   UNL     1      25.048  14.628  -5.040  0.00  0.00    -0.065 NA
BRANCH  30  32
ATOM     32  C   UNL     1      23.555  13.737  -3.366  0.00  0.00    +0.180 C 
BRANCH  32  33
ATOM     33  C   UNL     1      23.919  13.128  -2.031  0.00  0.00    -0.022 A 
ATOM     34  C   UNL     1      22.913  12.793  -1.109  0.00  0.00    +0.055 A 
ATOM     35  C   UNL     1      23.284  12.136   0.045  0.00  0.00    +0.167 A 
ATOM     36  O   UNL     1      22.436  11.691   1.011  0.00  0.00    -0.453 OA
ATOM     37  C   UNL     1      23.358  10.991   1.874  0.00  0.00    +0.466 C 
ATOM     38  O   UNL     1      24.740  11.157   1.490  0.00  0.00    -0.453 OA
ATOM     39  C   UNL     1      24.595  11.833   0.319  0.00  0.00    +0.166 A 
ATOM     40  C   UNL     1      25.614  12.178  -0.544  0.00  0.00    +0.050 A 
ATOM     41  C   UNL     1      25.269  12.825  -1.734  0.00  0.00    +0.009 A 
ENDBRANCH  32  33
ENDBRANCH  30  32
ENDBRANCH  26  28
ENDBRANCH  25  26
ENDBRANCH  24  25
ENDBRANCH   1  24
TORSDOF 12
