REMARK VINA RESULT:    -7.430      3.043      5.691
REMARK INTER + INTRA:         -15.845
REMARK INTER:                 -12.945
REMARK INTRA:                  -2.900
REMARK UNBOUND:                -2.551
REMARK  Name = lig_assembled_64.pdb
REMARK  14 active torsions:
REMARK  status: ('A' for Active; 'I' for Inactive)
REMARK    1  A    between atoms: _2  and  _9
REMARK    2  A    between atoms: _6  and  _7
REMARK    3  A    between atoms: _6  and  _22
REMARK    4  A    between atoms: _11  and  _12
REMARK    5  A    between atoms: _12  and  _20
REMARK    6  A    between atoms: _13  and  _14
REMARK    7  A    between atoms: _22  and  _24
REMARK    8  A    between atoms: _23  and  _28
REMARK    9  A    between atoms: _24  and  _27
REMARK   10  A    between atoms: _32  and  _42
REMARK   11  A    between atoms: _34  and  _35
REMARK   12  A    between atoms: _36  and  _38
REMARK   13  A    between atoms: _38  and  _40
REMARK   14  A    between atoms: _40  and  _42
REMARK                            x       y       z     vdW  Elec       q    Type
REMARK                         _______ _______ _______ _____ _____    ______ ____
ROOT
ATOM      1  O   UNL     1      28.010  17.418  -1.680  0.00  0.00    -0.450 OA
ENDROOT
BRANCH   1   2
ATOM      2  C   UNL     1      28.229  17.612  -0.421  0.00  0.00    +0.400 C 
ATOM      3  N   UNL     1      29.444  17.169   0.047  0.00  0.00    -0.278 N 
ATOM      4  H   UNL     1      29.501  17.594   1.027  0.00  0.00    +0.152 HD
ATOM      5  O   UNL     1      27.474  18.174   0.368  0.00  0.00    -0.226 OA
BRANCH   3   6
ATOM      6  C   UNL     1      30.655  16.385  -0.181  0.00  0.00    +0.152 C 
BRANCH   6   7
ATOM      7  C   UNL     1      30.444  14.907  -0.571  0.00  0.00    +0.193 C 
ATOM      8  O   UNL     1      31.752  14.362  -0.852  0.00  0.00    -0.219 OA
BRANCH   7   9
ATOM      9  C   UNL     1      29.854  13.963   0.499  0.00  0.00    +0.212 C 
ATOM     10  O   UNL     1      29.320  14.720   1.597  0.00  0.00    -0.218 OA
BRANCH   9  11
ATOM     11  C   UNL     1      28.723  13.016  -0.058  0.00  0.00    +0.171 C 
ATOM     12  O   UNL     1      28.056  13.567  -1.189  0.00  0.00    -0.343 OA
ATOM     13  C   UNL     1      26.870  13.063  -1.727  0.00  0.00    +0.220 C 
ATOM     14  C   UNL     1      25.792  12.868  -0.647  0.00  0.00    +0.076 C 
ATOM     15  C   UNL     1      26.408  12.014   0.474  0.00  0.00    +0.177 C 
ATOM     16  O   UNL     1      25.438  11.770   1.482  0.00  0.00    -0.221 OA
ATOM     17  C   UNL     1      27.668  12.725   1.059  0.00  0.00    +0.155 C 
BRANCH  17  18
ATOM     18  N   UNL     1      28.253  11.920   2.129  0.00  0.00    -0.202 NA
ATOM     19  C   UNL     1      28.095  12.017   3.473  0.00  0.00    +0.242 C 
ATOM     20  C   UNL     1      28.578  10.879   4.334  0.00  0.00    +0.096 C 
ATOM     21  O   UNL     1      27.567  13.019   3.952  0.00  0.00    -0.273 OA
ENDBRANCH  17  18
BRANCH  13  22
ATOM     22  C   UNL     1      27.080  11.716  -2.610  0.00  0.00    +0.391 C 
ATOM     23  O   UNL     1      25.843  11.210  -2.772  0.00  0.00    -0.243 OA
ATOM     24  O   UNL     1      28.329  11.780  -3.090  0.00  0.00    -0.243 OA
ENDBRANCH  13  22
ENDBRANCH   9  11
ENDBRANCH   7   9
ENDBRANCH   6   7
ENDBRANCH   3   6
ENDBRANCH   1   2
BRANCH   1  25
ATOM     25  C   UNL     1      27.072  17.773  -2.668  0.00  0.00    +0.240 C 
BRANCH  25  26
ATOM     26  C   UNL     1      27.057  16.943  -3.966  0.00  0.00    +0.100 C 
BRANCH  26  28
ATOM     27  N   UNL     1      25.494  15.432  -5.162  0.00  0.00    -0.134 NA
ATOM     28  C   UNL     1      25.851  16.093  -4.023  0.00  0.00    +0.086 A 
ATOM     29  C   UNL     1      24.931  15.820  -3.038  0.00  0.00    +0.139 A 
ATOM     30  N   UNL     1      24.014  14.983  -3.629  0.00  0.00    -0.220 N 
ATOM     31  N   UNL     1      24.377  14.757  -4.915  0.00  0.00    -0.061 NA
BRANCH  30  32
ATOM     32  C   UNL     1      22.855  14.404  -3.060  0.00  0.00    +0.071 A 
ATOM     33  C   UNL     1      21.593  14.870  -3.412  0.00  0.00    +0.063 A 
ATOM     34  CA  UNL     1      20.503  14.263  -2.821  0.00  0.00    +0.150 A 
ATOM     35  N   UNL     1      20.573  13.247  -1.914  0.00  0.00    -0.240 NA
ATOM     36  C   UNL     1      21.812  12.806  -1.565  0.00  0.00    +0.074 A 
ATOM     37  C   UNL     1      22.966  13.357  -2.132  0.00  0.00    +0.056 A 
BRANCH  36  38
ATOM     38  C   UNL     1      21.846  11.736  -0.539  0.00  0.00    +0.000 A 
ATOM     39  C   UNL     1      21.966  10.375  -0.881  0.00  0.00    +0.010 A 
ATOM     40  C   UNL     1      22.034   9.376   0.097  0.00  0.00    +0.001 A 
ATOM     41  C   UNL     1      21.983   9.714   1.446  0.00  0.00    +0.000 A 
ATOM     42  C   UNL     1      21.857  11.048   1.815  0.00  0.00    +0.001 A 
ATOM     43  C   UNL     1      21.788  12.045   0.834  0.00  0.00    +0.010 A 
ENDBRANCH  36  38
BRANCH  34  44
ATOM     44  C   UNL     1      19.129  14.730  -3.168  0.00  0.00    +0.355 C 
ATOM     45  OXT UNL     1      18.109  14.335  -2.630  0.00  0.00    -0.243 OA
BRANCH  44  46
ATOM     46  O   UNL     1      19.172  15.648  -4.161  0.00  0.00    -0.476 OA
ATOM     47  H   UNL     1      19.528  15.223  -4.974  0.00  0.00    +0.295 HD
ENDBRANCH  44  46
ENDBRANCH  34  44
ENDBRANCH  30  32
ENDBRANCH  26  28
ENDBRANCH  25  26
ENDBRANCH   1  25
TORSDOF 14
