REMARK VINA RESULT:    -6.493     23.263     25.613
REMARK INTER + INTRA:         -14.293
REMARK INTER:                 -12.648
REMARK INTRA:                  -1.645
REMARK UNBOUND:                -2.486
REMARK  Name = lig_assembled_29.pdb
REMARK  16 active torsions:
REMARK  status: ('A' for Active; 'I' for Inactive)
REMARK    1  A    between atoms: _2  and  _8
REMARK    2  A    between atoms: _5  and  _6
REMARK    3  A    between atoms: _5  and  _18
REMARK    4  A    between atoms: _8  and  _9
REMARK    5  A    between atoms: _11  and  _17
REMARK    6  A    between atoms: _12  and  _17
REMARK    7  A    between atoms: _13  and  _16
REMARK    8  A    between atoms: _14  and  _16
REMARK    9  A    between atoms: _18  and  _20
REMARK   10  A    between atoms: _19  and  _24
REMARK   11  A    between atoms: _20  and  _23
REMARK   12  A    between atoms: _28  and  _38
REMARK   13  A    between atoms: _30  and  _31
REMARK   14  A    between atoms: _32  and  _34
REMARK   15  A    between atoms: _34  and  _36
REMARK   16  A    between atoms: _36  and  _38
REMARK                            x       y       z     vdW  Elec       q    Type
REMARK                         _______ _______ _______ _____ _____    ______ ____
ROOT
ATOM      1  C   UNL     1      32.573  40.535   4.830  0.00  0.00    +0.400 C 
ATOM      2  N   UNL     1      33.641  39.972   5.488  0.00  0.00    -0.278 N 
ATOM      3  H   UNL     1      34.012  39.254   4.789  0.00  0.00    +0.152 HD
ATOM      4  O   UNL     1      32.414  40.260   3.643  0.00  0.00    -0.226 OA
ENDROOT
BRANCH   2   5
ATOM      5  C   UNL     1      34.485  39.927   6.680  0.00  0.00    +0.152 C 
BRANCH   5   6
ATOM      6  C   UNL     1      36.007  39.899   6.434  0.00  0.00    +0.193 C 
ATOM      7  O   UNL     1      36.636  39.800   7.731  0.00  0.00    -0.219 OA
BRANCH   6   8
ATOM      8  C   UNL     1      36.581  38.708   5.635  0.00  0.00    +0.212 C 
ATOM      9  O   UNL     1      35.663  37.603   5.653  0.00  0.00    -0.218 OA
BRANCH   8  10
ATOM     10  C   UNL     1      36.914  39.063   4.136  0.00  0.00    +0.171 C 
ATOM     11  O   UNL     1      36.013  40.020   3.587  0.00  0.00    -0.343 OA
ATOM     12  C   UNL     1      35.924  40.329   2.228  0.00  0.00    +0.220 C 
ATOM     13  C   UNL     1      35.786  39.065   1.362  0.00  0.00    +0.076 C 
ATOM     14  C   UNL     1      36.940  38.120   1.737  0.00  0.00    +0.177 C 
ATOM     15  O   UNL     1      36.883  36.948   0.936  0.00  0.00    -0.221 OA
ATOM     16  C   UNL     1      36.877  37.770   3.257  0.00  0.00    +0.155 C 
BRANCH  16  17
ATOM     17  N   UNL     1      37.967  36.867   3.615  0.00  0.00    -0.202 NA
ATOM     18  C   UNL     1      39.297  37.114   3.728  0.00  0.00    +0.242 C 
ATOM     19  C   UNL     1      40.163  36.079   4.399  0.00  0.00    +0.096 C 
ATOM     20  O   UNL     1      39.760  38.165   3.288  0.00  0.00    -0.273 OA
ENDBRANCH  16  17
BRANCH  12  21
ATOM     21  C   UNL     1      37.129  41.284   1.702  0.00  0.00    +0.391 C 
ATOM     22  O   UNL     1      37.091  41.184   0.359  0.00  0.00    -0.243 OA
ATOM     23  O   UNL     1      37.497  42.027   2.752  0.00  0.00    -0.243 OA
ENDBRANCH  12  21
ENDBRANCH   8  10
ENDBRANCH   6   8
ENDBRANCH   5   6
ENDBRANCH   2   5
BRANCH   1  24
ATOM     24  O   UNL     1      31.808  41.290   5.548  0.00  0.00    -0.450 OA
BRANCH  24  25
ATOM     25  C   UNL     1      30.561  41.234   6.201  0.00  0.00    +0.240 C 
BRANCH  25  26
ATOM     26  C   UNL     1      30.361  40.129   7.256  0.00  0.00    +0.100 C 
BRANCH  26  28
ATOM     27  N   UNL     1      29.680  38.797   5.279  0.00  0.00    -0.134 NA
ATOM     28  C   UNL     1      29.765  38.929   6.640  0.00  0.00    +0.086 A 
ATOM     29  C   UNL     1      29.254  37.800   7.235  0.00  0.00    +0.134 A 
ATOM     30  N   UNL     1      28.960  36.980   6.185  0.00  0.00    -0.247 N 
ATOM     31  N   UNL     1      29.173  37.600   5.010  0.00  0.00    -0.065 NA
BRANCH  30  32
ATOM     32  C   UNL     1      28.526  35.596   6.222  0.00  0.00    +0.180 C 
BRANCH  32  33
ATOM     33  C   UNL     1      28.059  35.217   7.608  0.00  0.00    -0.022 A 
ATOM     34  C   UNL     1      26.737  35.483   8.007  0.00  0.00    +0.054 A 
ATOM     35  C   UNL     1      26.268  35.067   9.262  0.00  0.00    +0.162 A 
ATOM     36  C   UNL     1      27.135  34.382  10.137  0.00  0.00    +0.162 A 
ATOM     37  C   UNL     1      28.449  34.119   9.738  0.00  0.00    +0.050 A 
ATOM     38  C   UNL     1      28.908  34.535   8.485  0.00  0.00    +0.009 A 
BRANCH  36  39
ATOM     39  O   UNL     1      26.605  34.012  11.349  0.00  0.00    -0.491 OA
ATOM     40  C   UNL     1      27.135  34.624  12.516  0.00  0.00    +0.277 C 
ENDBRANCH  36  39
BRANCH  35  41
ATOM     41  O   UNL     1      24.989  35.269   9.715  0.00  0.00    -0.491 OA
ATOM     42  C   UNL     1      24.298  36.425   9.261  0.00  0.00    +0.277 C 
ENDBRANCH  35  41
ENDBRANCH  32  33
ENDBRANCH  30  32
ENDBRANCH  26  28
ENDBRANCH  25  26
ENDBRANCH  24  25
ENDBRANCH   1  24
TORSDOF 14
