REMARK VINA RESULT:    -7.192      4.625     10.609
REMARK INTER + INTRA:         -16.099
REMARK INTER:                 -11.853
REMARK INTRA:                  -4.246
REMARK UNBOUND:                -3.231
REMARK  Name = lig_assembled_34.pdb
REMARK  14 active torsions:
REMARK  status: ('A' for Active; 'I' for Inactive)
REMARK    1  A    between atoms: _2  and  _8
REMARK    2  A    between atoms: _5  and  _6
REMARK    3  A    between atoms: _5  and  _32
REMARK    4  A    between atoms: _10  and  _11
REMARK    5  A    between atoms: _12  and  _13
REMARK    6  A    between atoms: _17  and  _30
REMARK    7  A    between atoms: _32  and  _34
REMARK    8  A    between atoms: _33  and  _38
REMARK    9  A    between atoms: _34  and  _37
REMARK   10  A    between atoms: _42  and  _52
REMARK   11  A    between atoms: _44  and  _45
REMARK   12  A    between atoms: _46  and  _48
REMARK   13  A    between atoms: _48  and  _50
REMARK   14  A    between atoms: _50  and  _52
REMARK                            x       y       z     vdW  Elec       q    Type
REMARK                         _______ _______ _______ _____ _____    ______ ____
ROOT
ATOM      1  N   UNL     1      34.167  13.843  -4.995  0.00  0.00    -0.134 NA
ATOM      2  C   UNL     1      35.079  12.913  -4.583  0.00  0.00    +0.086 A 
ATOM      3  C   UNL     1      34.760  12.513  -3.309  0.00  0.00    +0.139 A 
ATOM      4  N   UNL     1      33.616  13.207  -2.978  0.00  0.00    -0.220 N 
ATOM      5  N   UNL     1      33.289  14.029  -4.011  0.00  0.00    -0.061 NA
ENDROOT
BRANCH   4   6
ATOM      6  C   UNL     1      32.834  13.093  -1.798  0.00  0.00    +0.068 A 
ATOM      7  C   UNL     1      32.088  14.190  -1.354  0.00  0.00    +0.038 A 
ATOM      8  C   UNL     1      31.390  14.191  -0.122  0.00  0.00    +0.007 A 
ATOM      9  C   UNL     1      31.386  13.012   0.650  0.00  0.00    -0.008 A 
ATOM     10  C   UNL     1      32.104  11.890   0.171  0.00  0.00    +0.011 A 
ATOM     11  C   UNL     1      32.835  11.929  -1.029  0.00  0.00    +0.028 A 
BRANCH   9  12
ATOM     12  C   UNL     1      30.740  12.878   1.997  0.00  0.00    +0.004 A 
ATOM     13  C   UNL     1      29.434  12.518   2.147  0.00  0.00    +0.026 A 
ATOM     14  C   UNL     1      28.536  12.294   1.006  0.00  0.00    +0.016 A 
ATOM     15  C   UNL     1      27.216  12.127   1.174  0.00  0.00    +0.051 A 
ATOM     16  C   UNL     1      26.621  12.130   2.533  0.00  0.00    +0.183 A 
ATOM     17  O   UNL     1      25.407  12.042   2.698  0.00  0.00    -0.288 OA
ATOM     18  C   UNL     1      27.548  12.163   3.681  0.00  0.00    +0.097 A 
ATOM     19  C   UNL     1      28.865  12.310   3.493  0.00  0.00    +0.140 A 
ATOM     20  O   UNL     1      29.704  12.196   4.591  0.00  0.00    -0.455 OA
ATOM     21  C   UNL     1      31.010  12.591   4.460  0.00  0.00    +0.140 A 
ATOM     22  C   UNL     1      31.788  12.543   5.618  0.00  0.00    +0.092 A 
ATOM     23  C   UNL     1      33.101  12.983   5.572  0.00  0.00    +0.120 A 
ATOM     24  C   UNL     1      33.617  13.542   4.408  0.00  0.00    +0.046 A 
ATOM     25  C   UNL     1      32.829  13.571   3.253  0.00  0.00    +0.016 A 
ATOM     26  C   UNL     1      31.533  13.036   3.249  0.00  0.00    +0.026 A 
BRANCH  23  27
ATOM     27  O   UNL     1      33.869  12.842   6.691  0.00  0.00    -0.507 OA
ATOM     28  H   UNL     1      33.322  12.418   7.371  0.00  0.00    +0.292 HD
ENDBRANCH  23  27
ENDBRANCH   9  12
BRANCH   8  29
ATOM     29  C   UNL     1      30.760  15.505   0.297  0.00  0.00    +0.072 C 
ATOM     30  O   UNL     1      31.237  16.043   1.348  0.00  0.00    -0.545 OA
ATOM     31  O   UNL     1      29.768  15.934  -0.363  0.00  0.00    -0.545 OA
ENDBRANCH   8  29
ENDBRANCH   4   6
BRANCH   2  32
ATOM     32  C   UNL     1      36.195  12.466  -5.437  0.00  0.00    +0.100 C 
BRANCH  32  33
ATOM     33  C   UNL     1      37.209  13.606  -5.652  0.00  0.00    +0.240 C 
BRANCH  33  34
ATOM     34  O   UNL     1      38.228  13.759  -4.691  0.00  0.00    -0.450 OA
BRANCH  34  35
ATOM     35  C   UNL     1      39.455  14.160  -4.619  0.00  0.00    +0.400 C 
ATOM     36  N   UNL     1      40.349  13.253  -4.101  0.00  0.00    -0.278 N 
ATOM     37  H   UNL     1      41.299  13.695  -4.311  0.00  0.00    +0.152 HD
ATOM     38  O   UNL     1      39.885  15.249  -4.993  0.00  0.00    -0.226 OA
BRANCH  36  39
ATOM     39  C   UNL     1      40.576  11.993  -3.397  0.00  0.00    +0.152 C 
BRANCH  39  40
ATOM     40  C   UNL     1      39.491  11.576  -2.384  0.00  0.00    +0.193 C 
ATOM     41  O   UNL     1      39.723  10.183  -2.078  0.00  0.00    -0.219 OA
BRANCH  40  42
ATOM     42  C   UNL     1      39.490  12.277  -1.008  0.00  0.00    +0.212 C 
ATOM     43  O   UNL     1      39.263  13.688  -1.164  0.00  0.00    -0.218 OA
BRANCH  42  44
ATOM     44  C   UNL     1      38.410  11.701  -0.014  0.00  0.00    +0.171 C 
ATOM     45  O   UNL     1      37.111  11.637  -0.593  0.00  0.00    -0.343 OA
ATOM     46  C   UNL     1      35.938  11.400   0.127  0.00  0.00    +0.220 C 
ATOM     47  C   UNL     1      35.818  12.332   1.345  0.00  0.00    +0.076 C 
ATOM     48  C   UNL     1      37.116  12.198   2.159  0.00  0.00    +0.177 C 
ATOM     49  O   UNL     1      37.041  13.012   3.321  0.00  0.00    -0.221 OA
ATOM     50  C   UNL     1      38.345  12.580   1.278  0.00  0.00    +0.155 C 
BRANCH  50  51
ATOM     51  N   UNL     1      39.580  12.461   2.050  0.00  0.00    -0.202 NA
ATOM     52  C   UNL     1      40.407  13.430   2.518  0.00  0.00    +0.242 C 
ATOM     53  C   UNL     1      41.450  13.049   3.536  0.00  0.00    +0.096 C 
ATOM     54  O   UNL     1      40.287  14.582   2.108  0.00  0.00    -0.273 OA
ENDBRANCH  50  51
BRANCH  46  55
ATOM     55  C   UNL     1      35.738   9.843   0.545  0.00  0.00    +0.391 C 
ATOM     56  O   UNL     1      34.748   9.852   1.458  0.00  0.00    -0.243 OA
ATOM     57  O   UNL     1      36.401   9.126  -0.371  0.00  0.00    -0.243 OA
ENDBRANCH  46  55
ENDBRANCH  42  44
ENDBRANCH  40  42
ENDBRANCH  39  40
ENDBRANCH  36  39
ENDBRANCH  34  35
ENDBRANCH  33  34
ENDBRANCH  32  33
ENDBRANCH   2  32
TORSDOF 14
