REMARK VINA RESULT:    -6.455      3.878      9.073
REMARK INTER + INTRA:         -12.455
REMARK INTER:                 -10.924
REMARK INTRA:                  -1.531
REMARK UNBOUND:                -1.850
REMARK  Name = lig_assembled_2.pdb
REMARK  11 active torsions:
REMARK  status: ('A' for Active; 'I' for Inactive)
REMARK    1  A    between atoms: _2  and  _8
REMARK    2  A    between atoms: _5  and  _6
REMARK    3  A    between atoms: _5  and  _13
REMARK    4  A    between atoms: _13  and  _15
REMARK    5  A    between atoms: _14  and  _19
REMARK    6  A    between atoms: _15  and  _18
REMARK    7  A    between atoms: _23  and  _33
REMARK    8  A    between atoms: _25  and  _26
REMARK    9  A    between atoms: _27  and  _29
REMARK   10  A    between atoms: _29  and  _31
REMARK   11  A    between atoms: _31  and  _33
REMARK                            x       y       z     vdW  Elec       q    Type
REMARK                         _______ _______ _______ _____ _____    ______ ____
ROOT
ATOM      1  C   UNL     1      27.510  17.387  -1.589  0.00  0.00    +0.400 C 
ATOM      2  N   UNL     1      26.419  16.873  -2.250  0.00  0.00    -0.278 N 
ATOM      3  H   UNL     1      25.698  17.659  -2.186  0.00  0.00    +0.152 HD
ATOM      4  O   UNL     1      27.490  18.574  -1.274  0.00  0.00    -0.226 OA
ENDROOT
BRANCH   1   5
ATOM      5  O   UNL     1      28.457  16.545  -1.332  0.00  0.00    -0.450 OA
BRANCH   5   6
ATOM      6  C   UNL     1      29.276  16.155  -0.255  0.00  0.00    +0.240 C 
BRANCH   6   7
ATOM      7  C   UNL     1      29.188  14.689   0.212  0.00  0.00    +0.100 C 
BRANCH   7   9
ATOM      8  N   UNL     1      31.235  15.268   1.475  0.00  0.00    -0.134 NA
ATOM      9  C   UNL     1      30.177  14.430   1.275  0.00  0.00    +0.086 A 
ATOM     10  C   UNL     1      30.232  13.409   2.196  0.00  0.00    +0.139 A 
ATOM     11  N   UNL     1      31.340  13.684   2.966  0.00  0.00    -0.220 N 
ATOM     12  N   UNL     1      31.940  14.805   2.497  0.00  0.00    -0.061 NA
BRANCH  11  13
ATOM     13  C   UNL     1      31.829  12.985   4.100  0.00  0.00    +0.067 A 
ATOM     14  C   UNL     1      30.964  12.234   4.911  0.00  0.00    +0.029 A 
ATOM     15  C   UNL     1      31.461  11.583   6.046  0.00  0.00    +0.022 A 
ATOM     16  C   UNL     1      32.812  11.678   6.371  0.00  0.00    +0.041 A 
ATOM     17 CL   UNL     1      33.408  10.892   7.780  0.00  0.00    -0.084 Cl
ATOM     18  C   UNL     1      33.680  12.408   5.563  0.00  0.00    +0.022 A 
ATOM     19  C   UNL     1      33.193  13.061   4.427  0.00  0.00    +0.029 A 
ENDBRANCH  11  13
ENDBRANCH   7   9
ENDBRANCH   6   7
ENDBRANCH   5   6
ENDBRANCH   1   5
BRANCH   2  20
ATOM     20  C   UNL     1      25.824  15.767  -2.996  0.00  0.00    +0.152 C 
BRANCH  20  21
ATOM     21  C   UNL     1      24.686  15.004  -2.287  0.00  0.00    +0.193 C 
ATOM     22  O   UNL     1      23.469  15.316  -3.001  0.00  0.00    -0.219 OA
BRANCH  21  23
ATOM     23  C   UNL     1      24.750  13.461  -2.290  0.00  0.00    +0.212 C 
ATOM     24  O   UNL     1      26.003  13.011  -2.831  0.00  0.00    -0.218 OA
BRANCH  23  25
ATOM     25  C   UNL     1      24.561  12.825  -0.860  0.00  0.00    +0.171 C 
ATOM     26  O   UNL     1      25.614  11.931  -0.515  0.00  0.00    -0.343 OA
ATOM     27  C   UNL     1      25.579  11.054   0.572  0.00  0.00    +0.220 C 
ATOM     28  C   UNL     1      24.286  10.222   0.592  0.00  0.00    +0.076 C 
ATOM     29  C   UNL     1      23.103  11.202   0.513  0.00  0.00    +0.177 C 
ATOM     30  O   UNL     1      21.879  10.485   0.569  0.00  0.00    -0.221 OA
ATOM     31  C   UNL     1      23.201  12.057  -0.789  0.00  0.00    +0.155 C 
BRANCH  31  32
ATOM     32  N   UNL     1      22.076  12.985  -0.871  0.00  0.00    -0.202 NA
ATOM     33  C   UNL     1      21.089  13.071  -1.799  0.00  0.00    +0.242 C 
ATOM     34  C   UNL     1      19.888  13.927  -1.489  0.00  0.00    +0.096 C 
ATOM     35  O   UNL     1      21.194  12.456  -2.858  0.00  0.00    -0.273 OA
ENDBRANCH  31  32
BRANCH  27  36
ATOM     36  C   UNL     1      25.843  11.784   1.999  0.00  0.00    +0.391 C 
ATOM     37  O   UNL     1      25.275  10.973   2.914  0.00  0.00    -0.243 OA
ATOM     38  O   UNL     1      26.762  12.729   1.768  0.00  0.00    -0.243 OA
ENDBRANCH  27  36
ENDBRANCH  23  25
ENDBRANCH  21  23
ENDBRANCH  20  21
ENDBRANCH   2  20
TORSDOF 11
