REMARK VINA RESULT:    -7.300      2.677     10.691
REMARK INTER + INTRA:         -16.292
REMARK INTER:                 -12.676
REMARK INTRA:                  -3.616
REMARK UNBOUND:                -3.231
REMARK  Name = lig_assembled_34.pdb
REMARK  14 active torsions:
REMARK  status: ('A' for Active; 'I' for Inactive)
REMARK    1  A    between atoms: _2  and  _8
REMARK    2  A    between atoms: _5  and  _6
REMARK    3  A    between atoms: _5  and  _32
REMARK    4  A    between atoms: _10  and  _11
REMARK    5  A    between atoms: _12  and  _13
REMARK    6  A    between atoms: _17  and  _30
REMARK    7  A    between atoms: _32  and  _34
REMARK    8  A    between atoms: _33  and  _38
REMARK    9  A    between atoms: _34  and  _37
REMARK   10  A    between atoms: _42  and  _52
REMARK   11  A    between atoms: _44  and  _45
REMARK   12  A    between atoms: _46  and  _48
REMARK   13  A    between atoms: _48  and  _50
REMARK   14  A    between atoms: _50  and  _52
REMARK                            x       y       z     vdW  Elec       q    Type
REMARK                         _______ _______ _______ _____ _____    ______ ____
ROOT
ATOM      1  N   UNL     1      33.682  15.071  -1.235  0.00  0.00    -0.134 NA
ATOM      2  C   UNL     1      34.093  13.928  -0.612  0.00  0.00    +0.086 A 
ATOM      3  C   UNL     1      32.988  13.223  -0.202  0.00  0.00    +0.139 A 
ATOM      4  N   UNL     1      31.902  13.961  -0.622  0.00  0.00    -0.220 N 
ATOM      5  N   UNL     1      32.351  15.094  -1.226  0.00  0.00    -0.061 NA
ENDROOT
BRANCH   4   6
ATOM      6  C   UNL     1      30.526  13.628  -0.518  0.00  0.00    +0.068 A 
ATOM      7  C   UNL     1      30.081  12.378  -0.963  0.00  0.00    +0.038 A 
ATOM      8  C   UNL     1      28.709  12.028  -1.010  0.00  0.00    +0.007 A 
ATOM      9  C   UNL     1      27.763  12.948  -0.518  0.00  0.00    -0.008 A 
ATOM     10  C   UNL     1      28.225  14.192  -0.024  0.00  0.00    +0.011 A 
ATOM     11  C   UNL     1      29.587  14.541  -0.038  0.00  0.00    +0.028 A 
BRANCH   9  12
ATOM     12  C   UNL     1      26.277  12.743  -0.551  0.00  0.00    +0.004 A 
ATOM     13  C   UNL     1      25.602  12.130   0.462  0.00  0.00    +0.026 A 
ATOM     14  C   UNL     1      26.277  11.566   1.638  0.00  0.00    +0.016 A 
ATOM     15  C   UNL     1      25.621  10.805   2.526  0.00  0.00    +0.051 A 
ATOM     16  C   UNL     1      24.171  10.536   2.365  0.00  0.00    +0.183 A 
ATOM     17  O   UNL     1      23.571   9.790   3.135  0.00  0.00    -0.288 OA
ATOM     18  C   UNL     1      23.460  11.260   1.293  0.00  0.00    +0.097 A 
ATOM     19  C   UNL     1      24.131  12.031   0.428  0.00  0.00    +0.140 A 
ATOM     20  O   UNL     1      23.404  12.797  -0.472  0.00  0.00    -0.455 OA
ATOM     21  C   UNL     1      24.068  13.386  -1.515  0.00  0.00    +0.140 A 
ATOM     22  C   UNL     1      23.279  14.069  -2.442  0.00  0.00    +0.092 A 
ATOM     23  C   UNL     1      23.877  14.639  -3.554  0.00  0.00    +0.120 A 
ATOM     24  C   UNL     1      25.237  14.466  -3.789  0.00  0.00    +0.046 A 
ATOM     25  C   UNL     1      26.017  13.791  -2.844  0.00  0.00    +0.016 A 
ATOM     26  C   UNL     1      25.450  13.296  -1.661  0.00  0.00    +0.026 A 
BRANCH  23  27
ATOM     27  O   UNL     1      23.102  15.377  -4.398  0.00  0.00    -0.507 OA
ATOM     28  H   UNL     1      23.376  15.170  -5.306  0.00  0.00    +0.292 HD
ENDBRANCH  23  27
ENDBRANCH   9  12
BRANCH   8  29
ATOM     29  C   UNL     1      28.372  10.703  -1.665  0.00  0.00    +0.072 C 
ATOM     30  O   UNL     1      28.583   9.662  -0.962  0.00  0.00    -0.545 OA
ATOM     31  O   UNL     1      27.986  10.709  -2.871  0.00  0.00    -0.545 OA
ENDBRANCH   8  29
ENDBRANCH   4   6
BRANCH   2  32
ATOM     32  C   UNL     1      35.518  13.582  -0.451  0.00  0.00    +0.100 C 
BRANCH  32  33
ATOM     33  C   UNL     1      35.694  12.456   0.586  0.00  0.00    +0.240 C 
BRANCH  33  34
ATOM     34  O   UNL     1      36.702  12.616   1.556  0.00  0.00    -0.450 OA
BRANCH  34  35
ATOM     35  C   UNL     1      36.998  12.195   2.742  0.00  0.00    +0.400 C 
ATOM     36  N   UNL     1      36.127  12.566   3.739  0.00  0.00    -0.278 N 
ATOM     37  H   UNL     1      36.433  11.968   4.570  0.00  0.00    +0.152 HD
ATOM     38  O   UNL     1      37.953  11.483   3.042  0.00  0.00    -0.226 OA
BRANCH  36  39
ATOM     39  C   UNL     1      35.007  13.401   4.166  0.00  0.00    +0.152 C 
BRANCH  39  40
ATOM     40  C   UNL     1      33.661  12.678   4.375  0.00  0.00    +0.193 C 
ATOM     41  O   UNL     1      33.339  12.031   3.124  0.00  0.00    -0.219 OA
BRANCH  40  42
ATOM     42  C   UNL     1      33.614  11.541   5.420  0.00  0.00    +0.212 C 
ATOM     43  O   UNL     1      34.936  11.241   5.894  0.00  0.00    -0.218 OA
BRANCH  42  44
ATOM     44  C   UNL     1      32.696  11.869   6.658  0.00  0.00    +0.171 C 
ATOM     45  O   UNL     1      33.143  11.238   7.854  0.00  0.00    -0.343 OA
ATOM     46  C   UNL     1      32.395  11.158   9.030  0.00  0.00    +0.220 C 
ATOM     47  C   UNL     1      30.976  10.624   8.769  0.00  0.00    +0.076 C 
ATOM     48  C   UNL     1      30.352  11.490   7.662  0.00  0.00    +0.177 C 
ATOM     49  O   UNL     1      29.021  11.062   7.408  0.00  0.00    -0.221 OA
ATOM     50  C   UNL     1      31.225  11.423   6.370  0.00  0.00    +0.155 C 
BRANCH  50  51
ATOM     51  N   UNL     1      30.632  12.239   5.314  0.00  0.00    -0.202 NA
ATOM     52  C   UNL     1      30.042  11.860   4.152  0.00  0.00    +0.242 C 
ATOM     53  C   UNL     1      29.251  12.886   3.383  0.00  0.00    +0.096 C 
ATOM     54  O   UNL     1      30.163  10.701   3.759  0.00  0.00    -0.273 OA
ENDBRANCH  50  51
BRANCH  46  55
ATOM     55  C   UNL     1      32.363  12.547   9.873  0.00  0.00    +0.391 C 
ATOM     56  O   UNL     1      31.209  12.506  10.567  0.00  0.00    -0.243 OA
ATOM     57  O   UNL     1      33.601  13.053   9.799  0.00  0.00    -0.243 OA
ENDBRANCH  46  55
ENDBRANCH  42  44
ENDBRANCH  40  42
ENDBRANCH  39  40
ENDBRANCH  36  39
ENDBRANCH  34  35
ENDBRANCH  33  34
ENDBRANCH  32  33
ENDBRANCH   2  32
TORSDOF 14
