REMARK VINA RESULT:    -7.035      3.248      7.633
REMARK INTER + INTRA:         -15.745
REMARK INTER:                 -13.108
REMARK INTRA:                  -2.637
REMARK UNBOUND:                -2.540
REMARK  Name = lig_assembled_31.pdb
REMARK  15 active torsions:
REMARK  status: ('A' for Active; 'I' for Inactive)
REMARK    1  A    between atoms: _2  and  _10
REMARK    2  A    between atoms: _3  and  _11
REMARK    3  A    between atoms: _4  and  _13
REMARK    4  A    between atoms: _7  and  _8
REMARK    5  A    between atoms: _7  and  _19
REMARK    6  A    between atoms: _10  and  _11
REMARK    7  A    between atoms: _13  and  _14
REMARK    8  A    between atoms: _19  and  _21
REMARK    9  A    between atoms: _20  and  _25
REMARK   10  A    between atoms: _21  and  _24
REMARK   11  A    between atoms: _29  and  _39
REMARK   12  A    between atoms: _31  and  _32
REMARK   13  A    between atoms: _33  and  _35
REMARK   14  A    between atoms: _35  and  _37
REMARK   15  A    between atoms: _37  and  _39
REMARK                            x       y       z     vdW  Elec       q    Type
REMARK                         _______ _______ _______ _____ _____    ______ ____
ROOT
ATOM      1  C   UNL     1      32.533  14.575  -0.821  0.00  0.00    +0.400 C 
ATOM      2  N   UNL     1      31.855  13.572  -1.473  0.00  0.00    -0.278 N 
ATOM      3  H   UNL     1      32.143  13.703  -2.494  0.00  0.00    +0.152 HD
ATOM      4  O   UNL     1      33.377  15.209  -1.451  0.00  0.00    -0.226 OA
ENDROOT
BRANCH   2   5
ATOM      5  C   UNL     1      30.952  12.427  -1.396  0.00  0.00    +0.152 C 
BRANCH   5   6
ATOM      6  C   UNL     1      30.553  11.971   0.023  0.00  0.00    +0.193 C 
ATOM      7  O   UNL     1      29.518  10.975  -0.137  0.00  0.00    -0.219 OA
BRANCH   6   8
ATOM      8  C   UNL     1      31.632  11.271   0.879  0.00  0.00    +0.212 C 
ATOM      9  O   UNL     1      32.784  10.960   0.078  0.00  0.00    -0.218 OA
BRANCH   8  10
ATOM     10  C   UNL     1      32.097  12.126   2.119  0.00  0.00    +0.171 C 
ATOM     11  O   UNL     1      33.454  11.882   2.474  0.00  0.00    -0.343 OA
ATOM     12  C   UNL     1      34.046  12.313   3.664  0.00  0.00    +0.220 C 
ATOM     13  C   UNL     1      33.205  11.926   4.893  0.00  0.00    +0.076 C 
ATOM     14  C   UNL     1      31.776  12.444   4.657  0.00  0.00    +0.177 C 
ATOM     15  O   UNL     1      30.964  12.148   5.784  0.00  0.00    -0.221 OA
ATOM     16  C   UNL     1      31.187  11.821   3.353  0.00  0.00    +0.155 C 
BRANCH  16  17
ATOM     17  N   UNL     1      29.827  12.305   3.129  0.00  0.00    -0.202 NA
ATOM     18  C   UNL     1      28.645  11.645   3.223  0.00  0.00    +0.242 C 
ATOM     19  C   UNL     1      27.373  12.454   3.228  0.00  0.00    +0.096 C 
ATOM     20  O   UNL     1      28.638  10.419   3.302  0.00  0.00    -0.273 OA
ENDBRANCH  16  17
BRANCH  12  21
ATOM     21  C   UNL     1      34.416  13.894   3.667  0.00  0.00    +0.391 C 
ATOM     22  O   UNL     1      34.389  14.255   4.965  0.00  0.00    -0.243 OA
ATOM     23  O   UNL     1      34.895  14.165   2.447  0.00  0.00    -0.243 OA
ENDBRANCH  12  21
ENDBRANCH   8  10
ENDBRANCH   6   8
ENDBRANCH   5   6
ENDBRANCH   2   5
BRANCH   1  24
ATOM     24  O   UNL     1      32.187  14.778   0.408  0.00  0.00    -0.450 OA
BRANCH  24  25
ATOM     25  C   UNL     1      31.177  15.433   1.139  0.00  0.00    +0.240 C 
BRANCH  25  26
ATOM     26  C   UNL     1      30.746  16.833   0.659  0.00  0.00    +0.100 C 
BRANCH  26  28
ATOM     27  N   UNL     1      29.115  15.506  -0.647  0.00  0.00    -0.134 NA
ATOM     28  C   UNL     1      29.621  16.727  -0.290  0.00  0.00    +0.086 A 
ATOM     29  C   UNL     1      28.918  17.714  -0.946  0.00  0.00    +0.133 A 
ATOM     30  N   UNL     1      28.007  17.026  -1.692  0.00  0.00    -0.250 N 
ATOM     31  N   UNL     1      28.123  15.702  -1.506  0.00  0.00    -0.065 NA
BRANCH  30  32
ATOM     32  C   UNL     1      27.009  17.557  -2.597  0.00  0.00    +0.164 C 
BRANCH  32  33
ATOM     33  C   UNL     1      26.093  16.459  -3.117  0.00  0.00    +0.129 C 
BRANCH  33  34
ATOM     34  N   UNL     1      24.987  16.121  -2.230  0.00  0.00    -0.298 N 
ATOM     35  H   UNL     1      24.975  16.443  -1.273  0.00  0.00    +0.150 HD
ATOM     36  C   UNL     1      24.206  15.040  -2.548  0.00  0.00    +0.300 C 
ATOM     37  O   UNL     1      24.338  14.411  -3.596  0.00  0.00    -0.253 OA
ATOM     38  N   UNL     1      23.256  14.740  -1.622  0.00  0.00    -0.292 N 
ATOM     39  H   UNL     1      23.176  15.231  -0.743  0.00  0.00    +0.151 HD
BRANCH  38  40
ATOM     40  C   UNL     1      22.379  13.621  -1.870  0.00  0.00    +0.180 C 
BRANCH  40  41
ATOM     41  C   UNL     1      22.239  12.713  -0.703  0.00  0.00    +0.122 A 
ATOM     42  O   UNL     1      23.358  12.123  -0.185  0.00  0.00    -0.466 OA
ATOM     43  C   UNL     1      22.946  11.354   0.862  0.00  0.00    +0.195 A 
ATOM     44  C   UNL     1      21.583  11.439   1.022  0.00  0.00    +0.041 A 
ATOM     45  C   UNL     1      21.125  12.315   0.011  0.00  0.00    +0.046 A 
ENDBRANCH  40  41
ENDBRANCH  38  40
ENDBRANCH  33  34
ENDBRANCH  32  33
ENDBRANCH  30  32
ENDBRANCH  26  28
ENDBRANCH  25  26
ENDBRANCH  24  25
ENDBRANCH   1  24
TORSDOF 15
