REMARK VINA RESULT:    -6.932      2.803      3.561
REMARK INTER + INTRA:         -13.164
REMARK INTER:                 -11.730
REMARK INTRA:                  -1.434
REMARK UNBOUND:                -1.775
REMARK  Name = lig_assembled_42.pdb
REMARK  11 active torsions:
REMARK  status: ('A' for Active; 'I' for Inactive)
REMARK    1  A    between atoms: _2  and  _8
REMARK    2  A    between atoms: _5  and  _6
REMARK    3  A    between atoms: _5  and  _16
REMARK    4  A    between atoms: _16  and  _18
REMARK    5  A    between atoms: _17  and  _22
REMARK    6  A    between atoms: _18  and  _21
REMARK    7  A    between atoms: _26  and  _36
REMARK    8  A    between atoms: _28  and  _29
REMARK    9  A    between atoms: _30  and  _32
REMARK   10  A    between atoms: _32  and  _34
REMARK   11  A    between atoms: _34  and  _36
REMARK                            x       y       z     vdW  Elec       q    Type
REMARK                         _______ _______ _______ _____ _____    ______ ____
ROOT
ATOM      1  C   UNL     1      27.851  16.734  -1.118  0.00  0.00    +0.400 C 
ATOM      2  N   UNL     1      28.439  16.093  -0.053  0.00  0.00    -0.278 N 
ATOM      3  H   UNL     1      28.845  16.895   0.524  0.00  0.00    +0.152 HD
ATOM      4  O   UNL     1      27.761  17.958  -1.080  0.00  0.00    -0.226 OA
ENDROOT
BRANCH   1   5
ATOM      5  O   UNL     1      27.471  15.970  -2.090  0.00  0.00    -0.450 OA
BRANCH   5   6
ATOM      6  C   UNL     1      26.872  14.711  -2.288  0.00  0.00    +0.240 C 
BRANCH   6   7
ATOM      7  C   UNL     1      25.949  14.547  -3.510  0.00  0.00    +0.100 C 
BRANCH   7   9
ATOM      8  N   UNL     1      24.124  14.336  -1.842  0.00  0.00    -0.134 NA
ATOM      9  C   UNL     1      24.534  14.644  -3.107  0.00  0.00    +0.086 A 
ATOM     10  C   UNL     1      23.443  15.025  -3.850  0.00  0.00    +0.139 A 
ATOM     11  N   UNL     1      22.374  14.936  -2.991  0.00  0.00    -0.220 N 
ATOM     12  N   UNL     1      22.810  14.517  -1.777  0.00  0.00    -0.061 NA
BRANCH  11  13
ATOM     13  C   UNL     1      21.008  15.216  -3.255  0.00  0.00    +0.071 A 
ATOM     14  C   UNL     1      20.008  14.383  -2.731  0.00  0.00    +0.077 A 
ATOM     15  C   UNL     1      18.696  14.697  -3.017  0.00  0.00    +0.168 A 
ATOM     16  O   UNL     1      17.613  13.998  -2.586  0.00  0.00    -0.453 OA
ATOM     17  C   UNL     1      16.545  14.773  -3.168  0.00  0.00    +0.466 C 
ATOM     18  O   UNL     1      17.010  15.904  -3.936  0.00  0.00    -0.453 OA
ATOM     19  C   UNL     1      18.356  15.783  -3.785  0.00  0.00    +0.166 A 
ATOM     20  C   UNL     1      19.311  16.621  -4.317  0.00  0.00    +0.051 A 
ATOM     21  C   UNL     1      20.656  16.333  -4.048  0.00  0.00    +0.031 A 
ENDBRANCH  11  13
ENDBRANCH   7   9
ENDBRANCH   6   7
ENDBRANCH   5   6
ENDBRANCH   1   5
BRANCH   2  22
ATOM     22  C   UNL     1      28.738  14.839   0.634  0.00  0.00    +0.152 C 
BRANCH  22  23
ATOM     23  C   UNL     1      30.083  14.173   0.279  0.00  0.00    +0.193 C 
ATOM     24  O   UNL     1      30.134  14.084  -1.162  0.00  0.00    -0.219 OA
BRANCH  23  25
ATOM     25  C   UNL     1      31.377  14.924   0.665  0.00  0.00    +0.212 C 
ATOM     26  O   UNL     1      31.065  16.100   1.429  0.00  0.00    -0.218 OA
BRANCH  25  27
ATOM     27  C   UNL     1      32.389  14.040   1.489  0.00  0.00    +0.171 C 
ATOM     28  O   UNL     1      32.721  14.618   2.747  0.00  0.00    -0.343 OA
ATOM     29  C   UNL     1      33.766  14.179   3.564  0.00  0.00    +0.220 C 
ATOM     30  C   UNL     1      35.087  14.059   2.786  0.00  0.00    +0.076 C 
ATOM     31  C   UNL     1      34.819  13.182   1.552  0.00  0.00    +0.177 C 
ATOM     32  O   UNL     1      36.021  13.005   0.815  0.00  0.00    -0.221 OA
ATOM     33  C   UNL     1      33.703  13.823   0.669  0.00  0.00    +0.155 C 
BRANCH  33  34
ATOM     34  N   UNL     1      33.450  12.996  -0.508  0.00  0.00    -0.202 NA
ATOM     35  C   UNL     1      33.414  13.341  -1.820  0.00  0.00    +0.242 C 
ATOM     36  C   UNL     1      33.425  12.242  -2.850  0.00  0.00    +0.096 C 
ATOM     37  O   UNL     1      33.377  14.529  -2.135  0.00  0.00    -0.273 OA
ENDBRANCH  33  34
BRANCH  29  38
ATOM     38  C   UNL     1      33.424  12.814   4.375  0.00  0.00    +0.391 C 
ATOM     39  O   UNL     1      34.541  12.536   5.074  0.00  0.00    -0.243 OA
ATOM     40  O   UNL     1      32.098  12.652   4.284  0.00  0.00    -0.243 OA
ENDBRANCH  29  38
ENDBRANCH  25  27
ENDBRANCH  23  25
ENDBRANCH  22  23
ENDBRANCH   2  22
TORSDOF 11
