REMARK VINA RESULT:    -7.262      2.615      3.264
REMARK INTER + INTRA:         -14.664
REMARK INTER:                 -12.231
REMARK INTRA:                  -2.433
REMARK UNBOUND:                -2.096
REMARK  Name = lig_assembled_88.pdb
REMARK  13 active torsions:
REMARK  status: ('A' for Active; 'I' for Inactive)
REMARK    1  A    between atoms: _2  and  _8
REMARK    2  A    between atoms: _4  and  _14
REMARK    3  A    between atoms: _5  and  _6
REMARK    4  A    between atoms: _5  and  _15
REMARK    5  A    between atoms: _8  and  _9
REMARK    6  A    between atoms: _15  and  _17
REMARK    7  A    between atoms: _16  and  _21
REMARK    8  A    between atoms: _17  and  _20
REMARK    9  A    between atoms: _25  and  _35
REMARK   10  A    between atoms: _27  and  _28
REMARK   11  A    between atoms: _29  and  _31
REMARK   12  A    between atoms: _31  and  _33
REMARK   13  A    between atoms: _33  and  _35
REMARK                            x       y       z     vdW  Elec       q    Type
REMARK                         _______ _______ _______ _____ _____    ______ ____
ROOT
ATOM      1  C   UNL     1      27.869  17.376  -1.067  0.00  0.00    +0.400 C 
ATOM      2  N   UNL     1      28.307  16.255  -0.403  0.00  0.00    -0.278 N 
ATOM      3  H   UNL     1      28.534  16.620   0.576  0.00  0.00    +0.152 HD
ATOM      4  O   UNL     1      27.671  18.397  -0.412  0.00  0.00    -0.226 OA
ENDROOT
BRANCH   1   5
ATOM      5  O   UNL     1      27.735  17.253  -2.346  0.00  0.00    -0.450 OA
BRANCH   5   6
ATOM      6  C   UNL     1      26.748  17.416  -3.338  0.00  0.00    +0.240 C 
BRANCH   6   7
ATOM      7  C   UNL     1      26.446  16.209  -4.246  0.00  0.00    +0.100 C 
BRANCH   7   9
ATOM      8  N   UNL     1      25.017  15.165  -2.514  0.00  0.00    -0.134 NA
ATOM      9  C   UNL     1      26.022  15.049  -3.439  0.00  0.00    +0.086 A 
ATOM     10  C   UNL     1      26.500  13.758  -3.426  0.00  0.00    +0.134 A 
ATOM     11  N   UNL     1      25.798  13.160  -2.419  0.00  0.00    -0.247 N 
ATOM     12  N   UNL     1      24.872  13.994  -1.909  0.00  0.00    -0.065 NA
BRANCH  11  13
ATOM     13  C   UNL     1      25.998  11.838  -1.848  0.00  0.00    +0.184 C 
BRANCH  13  14
ATOM     14  C   UNL     1      25.616  11.756  -0.383  0.00  0.00    +0.017 A 
ATOM     15  C   UNL     1      26.515  12.083   0.651  0.00  0.00    +0.024 A 
ATOM     16  C   UNL     1      26.128  11.996   1.990  0.00  0.00    +0.019 A 
ATOM     17 BR   UNL     1      27.378  12.394   3.353  0.00  0.00    -0.050 Br
ATOM     18  C   UNL     1      24.835  11.616   2.335  0.00  0.00    +0.034 A 
ATOM     19  C   UNL     1      23.921  11.337   1.323  0.00  0.00    +0.061 A 
ATOM     20 BR   UNL     1      22.149  10.855   1.797  0.00  0.00    -0.046 Br
ATOM     21  C   UNL     1      24.307  11.411  -0.023  0.00  0.00    +0.136 A 
BRANCH  21  22
ATOM     22  O   UNL     1      23.411  11.152  -1.026  0.00  0.00    -0.505 OA
ATOM     23  H   UNL     1      22.750  11.871  -1.024  0.00  0.00    +0.292 HD
ENDBRANCH  21  22
ENDBRANCH  13  14
ENDBRANCH  11  13
ENDBRANCH   7   9
ENDBRANCH   6   7
ENDBRANCH   5   6
ENDBRANCH   1   5
BRANCH   2  24
ATOM     24  C   UNL     1      28.581  14.820  -0.430  0.00  0.00    +0.152 C 
BRANCH  24  25
ATOM     25  C   UNL     1      29.565  14.296   0.636  0.00  0.00    +0.193 C 
ATOM     26  O   UNL     1      29.762  12.891   0.364  0.00  0.00    -0.219 OA
BRANCH  25  27
ATOM     27  C   UNL     1      30.990  14.890   0.649  0.00  0.00    +0.212 C 
ATOM     28  O   UNL     1      30.984  16.196   1.248  0.00  0.00    -0.218 OA
BRANCH  27  29
ATOM     29  C   UNL     1      32.035  13.991   1.412  0.00  0.00    +0.171 C 
ATOM     30  O   UNL     1      32.340  14.487   2.711  0.00  0.00    -0.343 OA
ATOM     31  C   UNL     1      33.399  14.033   3.500  0.00  0.00    +0.220 C 
ATOM     32  C   UNL     1      34.727  14.024   2.723  0.00  0.00    +0.076 C 
ATOM     33  C   UNL     1      34.498  13.230   1.426  0.00  0.00    +0.177 C 
ATOM     34  O   UNL     1      35.709  13.157   0.686  0.00  0.00    -0.221 OA
ATOM     35  C   UNL     1      33.360  13.888   0.586  0.00  0.00    +0.155 C 
BRANCH  35  36
ATOM     36  N   UNL     1      33.144  13.140  -0.650  0.00  0.00    -0.202 NA
ATOM     37  C   UNL     1      33.205  13.559  -1.939  0.00  0.00    +0.242 C 
ATOM     38  C   UNL     1      33.231  12.519  -3.029  0.00  0.00    +0.096 C 
ATOM     39  O   UNL     1      33.238  14.763  -2.186  0.00  0.00    -0.273 OA
ENDBRANCH  35  36
BRANCH  31  40
ATOM     40  C   UNL     1      33.111  12.598   4.206  0.00  0.00    +0.391 C 
ATOM     41  O   UNL     1      34.330  12.070   4.431  0.00  0.00    -0.243 OA
ATOM     42  O   UNL     1      31.822  12.615   4.566  0.00  0.00    -0.243 OA
ENDBRANCH  31  40
ENDBRANCH  27  29
ENDBRANCH  25  27
ENDBRANCH  24  25
ENDBRANCH   2  24
TORSDOF 13
