REMARK VINA RESULT:    -6.573      1.964      3.607
REMARK INTER + INTRA:         -13.780
REMARK INTER:                 -12.518
REMARK INTRA:                  -1.262
REMARK UNBOUND:                -2.596
REMARK  Name = lig_assembled_4.pdb
REMARK  14 active torsions:
REMARK  status: ('A' for Active; 'I' for Inactive)
REMARK    1  A    between atoms: _2  and  _8
REMARK    2  A    between atoms: _5  and  _6
REMARK    3  A    between atoms: _5  and  _16
REMARK    4  A    between atoms: _9  and  _10
REMARK    5  A    between atoms: _10  and  _11
REMARK    6  A    between atoms: _10  and  _12
REMARK    7  A    between atoms: _16  and  _18
REMARK    8  A    between atoms: _17  and  _22
REMARK    9  A    between atoms: _18  and  _21
REMARK   10  A    between atoms: _26  and  _36
REMARK   11  A    between atoms: _28  and  _29
REMARK   12  A    between atoms: _30  and  _32
REMARK   13  A    between atoms: _32  and  _34
REMARK   14  A    between atoms: _34  and  _36
REMARK                            x       y       z     vdW  Elec       q    Type
REMARK                         _______ _______ _______ _____ _____    ______ ____
ROOT
ATOM      1  C   UNL     1      28.444  17.406  -0.488  0.00  0.00    +0.400 C 
ATOM      2  N   UNL     1      29.621  17.135   0.169  0.00  0.00    -0.278 N 
ATOM      3  H   UNL     1      29.743  17.978   0.815  0.00  0.00    +0.152 HD
ATOM      4  O   UNL     1      27.766  18.352  -0.096  0.00  0.00    -0.226 OA
ENDROOT
BRANCH   2   5
ATOM      5  C   UNL     1      30.744  16.228   0.386  0.00  0.00    +0.152 C 
BRANCH   5   6
ATOM      6  C   UNL     1      30.734  14.924  -0.439  0.00  0.00    +0.193 C 
ATOM      7  O   UNL     1      31.974  14.893  -1.180  0.00  0.00    -0.219 OA
BRANCH   6   8
ATOM      8  C   UNL     1      30.714  13.588   0.336  0.00  0.00    +0.212 C 
ATOM      9  O   UNL     1      31.419  12.573  -0.397  0.00  0.00    -0.218 OA
BRANCH   8  10
ATOM     10  C   UNL     1      31.340  13.693   1.779  0.00  0.00    +0.171 C 
ATOM     11  O   UNL     1      32.756  13.547   1.774  0.00  0.00    -0.343 OA
ATOM     12  C   UNL     1      33.533  13.356   2.919  0.00  0.00    +0.220 C 
ATOM     13  C   UNL     1      32.987  12.215   3.795  0.00  0.00    +0.076 C 
ATOM     14  C   UNL     1      31.501  12.507   4.062  0.00  0.00    +0.177 C 
ATOM     15  O   UNL     1      30.956  11.500   4.903  0.00  0.00    -0.221 OA
ATOM     16  C   UNL     1      30.721  12.603   2.713  0.00  0.00    +0.155 C 
BRANCH  16  17
ATOM     17  N   UNL     1      29.308  12.873   2.963  0.00  0.00    -0.202 NA
ATOM     18  C   UNL     1      28.209  12.182   2.566  0.00  0.00    +0.242 C 
ATOM     19  C   UNL     1      26.886  12.512   3.207  0.00  0.00    +0.096 C 
ATOM     20  O   UNL     1      28.317  11.312   1.704  0.00  0.00    -0.273 OA
ENDBRANCH  16  17
BRANCH  12  21
ATOM     21  C   UNL     1      33.759  14.714   3.781  0.00  0.00    +0.391 C 
ATOM     22  O   UNL     1      32.977  15.636   3.188  0.00  0.00    -0.243 OA
ATOM     23  O   UNL     1      34.382  14.339   4.905  0.00  0.00    -0.243 OA
ENDBRANCH  12  21
ENDBRANCH   8  10
ENDBRANCH   6   8
ENDBRANCH   5   6
ENDBRANCH   2   5
BRANCH   1  24
ATOM     24  O   UNL     1      28.176  16.641  -1.494  0.00  0.00    -0.450 OA
BRANCH  24  25
ATOM     25  C   UNL     1      27.222  16.526  -2.525  0.00  0.00    +0.240 C 
BRANCH  25  26
ATOM     26  C   UNL     1      26.932  15.115  -3.071  0.00  0.00    +0.100 C 
BRANCH  26  28
ATOM     27  N   UNL     1      24.539  15.350  -2.517  0.00  0.00    -0.134 NA
ATOM     28  C   UNL     1      25.668  14.592  -2.519  0.00  0.00    +0.086 A 
ATOM     29  C   UNL     1      25.401  13.383  -1.919  0.00  0.00    +0.139 A 
ATOM     30  N   UNL     1      24.110  13.501  -1.443  0.00  0.00    -0.220 N 
ATOM     31  N   UNL     1      23.593  14.667  -1.884  0.00  0.00    -0.061 NA
BRANCH  30  32
ATOM     32  C   UNL     1      23.408  12.586  -0.601  0.00  0.00    +0.070 A 
ATOM     33  C   UNL     1      22.023  12.301  -0.741  0.00  0.00    -0.019 A 
ATOM     34  C   UNL     1      21.446  11.399   0.181  0.00  0.00    +0.006 A 
ATOM     35  C   UNL     1      22.189  10.809   1.206  0.00  0.00    +0.000 A 
ATOM     36  C   UNL     1      23.540  11.089   1.328  0.00  0.00    +0.002 A 
ATOM     37  C   UNL     1      24.147  11.971   0.435  0.00  0.00    +0.028 A 
BRANCH  33  38
ATOM     38  C   UNL     1      21.121  12.915  -1.814  0.00  0.00    +0.015 C 
ATOM     39  C   UNL     1      20.014  13.838  -1.284  0.00  0.00    +0.012 C 
ATOM     40  C   UNL     1      20.506  11.808  -2.675  0.00  0.00    +0.012 C 
ENDBRANCH  33  38
ENDBRANCH  30  32
ENDBRANCH  26  28
ENDBRANCH  25  26
ENDBRANCH  24  25
ENDBRANCH   1  24
TORSDOF 12
