REMARK VINA RESULT:    -6.721      1.509      1.890
REMARK INTER + INTRA:         -14.023
REMARK INTER:                 -12.289
REMARK INTRA:                  -1.734
REMARK UNBOUND:                -2.194
REMARK  Name = lig_assembled_14.pdb
REMARK  13 active torsions:
REMARK  status: ('A' for Active; 'I' for Inactive)
REMARK    1  A    between atoms: _2  and  _9
REMARK    2  A    between atoms: _3  and  _10
REMARK    3  A    between atoms: _6  and  _7
REMARK    4  A    between atoms: _6  and  _14
REMARK    5  A    between atoms: _9  and  _10
REMARK    6  A    between atoms: _14  and  _16
REMARK    7  A    between atoms: _15  and  _20
REMARK    8  A    between atoms: _16  and  _19
REMARK    9  A    between atoms: _24  and  _34
REMARK   10  A    between atoms: _26  and  _27
REMARK   11  A    between atoms: _28  and  _30
REMARK   12  A    between atoms: _30  and  _32
REMARK   13  A    between atoms: _32  and  _34
REMARK                            x       y       z     vdW  Elec       q    Type
REMARK                         _______ _______ _______ _____ _____    ______ ____
ROOT
ATOM      1  C   UNL     1      27.981  17.134  -0.752  0.00  0.00    +0.400 C 
ATOM      2  N   UNL     1      28.413  16.065  -0.003  0.00  0.00    -0.278 N 
ATOM      3  H   UNL     1      28.753  16.519   0.903  0.00  0.00    +0.152 HD
ATOM      4  O   UNL     1      27.907  18.232  -0.206  0.00  0.00    -0.226 OA
ENDROOT
BRANCH   2   5
ATOM      5  C   UNL     1      28.597  14.621   0.114  0.00  0.00    +0.152 C 
BRANCH   5   6
ATOM      6  C   UNL     1      29.685  14.152   1.102  0.00  0.00    +0.193 C 
ATOM      7  O   UNL     1      29.887  12.742   0.858  0.00  0.00    -0.219 OA
BRANCH   6   8
ATOM      8  C   UNL     1      31.092  14.773   0.964  0.00  0.00    +0.212 C 
ATOM      9  O   UNL     1      31.103  16.112   1.486  0.00  0.00    -0.218 OA
BRANCH   8  10
ATOM     10  C   UNL     1      32.216  13.940   1.691  0.00  0.00    +0.171 C 
ATOM     11  O   UNL     1      32.611  14.519   2.930  0.00  0.00    -0.343 OA
ATOM     12  C   UNL     1      33.741  14.133   3.656  0.00  0.00    +0.220 C 
ATOM     13  C   UNL     1      35.002  14.103   2.775  0.00  0.00    +0.076 C 
ATOM     14  C   UNL     1      34.689  13.228   1.549  0.00  0.00    +0.177 C 
ATOM     15  O   UNL     1      35.838  13.135   0.719  0.00  0.00    -0.221 OA
ATOM     16  C   UNL     1      33.472  13.814   0.768  0.00  0.00    +0.155 C 
BRANCH  16  17
ATOM     17  N   UNL     1      33.176  12.990  -0.401  0.00  0.00    -0.202 NA
ATOM     18  C   UNL     1      33.123  13.332  -1.714  0.00  0.00    +0.242 C 
ATOM     19  C   UNL     1      33.087  12.230  -2.740  0.00  0.00    +0.096 C 
ATOM     20  O   UNL     1      33.108  14.520  -2.031  0.00  0.00    -0.273 OA
ENDBRANCH  16  17
BRANCH  12  21
ATOM     21  C   UNL     1      33.544  12.737   4.464  0.00  0.00    +0.391 C 
ATOM     22  O   UNL     1      34.786  12.378   4.844  0.00  0.00    -0.243 OA
ATOM     23  O   UNL     1      32.232  12.632   4.706  0.00  0.00    -0.243 OA
ENDBRANCH  12  21
ENDBRANCH   8  10
ENDBRANCH   6   8
ENDBRANCH   5   6
ENDBRANCH   2   5
BRANCH   1  24
ATOM     24  O   UNL     1      27.719  16.880  -1.992  0.00  0.00    -0.450 OA
BRANCH  24  25
ATOM     25  C   UNL     1      26.882  17.345  -3.024  0.00  0.00    +0.240 C 
BRANCH  25  26
ATOM     26  C   UNL     1      26.395  16.317  -4.063  0.00  0.00    +0.100 C 
BRANCH  26  28
ATOM     27  N   UNL     1      25.687  13.991  -3.605  0.00  0.00    -0.134 NA
ATOM     28  C   UNL     1      25.493  15.336  -3.433  0.00  0.00    +0.086 A 
ATOM     29  C   UNL     1      24.385  15.533  -2.638  0.00  0.00    +0.133 A 
ATOM     30  N   UNL     1      23.944  14.273  -2.375  0.00  0.00    -0.250 N 
ATOM     31  N   UNL     1      24.733  13.347  -2.948  0.00  0.00    -0.065 NA
BRANCH  30  32
ATOM     32  C   UNL     1      22.765  13.872  -1.641  0.00  0.00    +0.160 C 
BRANCH  32  33
ATOM     33  C   UNL     1      22.414  12.399  -1.881  0.00  0.00    +0.107 C 
BRANCH  33  34
ATOM     34  N   UNL     1      22.251  11.634  -0.633  0.00  0.00    -0.301 NA
ATOM     35  C   UNL     1      23.440  11.673   0.225  0.00  0.00    +0.084 C 
ATOM     36  C   UNL     1      22.897  11.202   1.559  0.00  0.00    +0.017 C 
ATOM     37  C   UNL     1      21.518  11.833   1.631  0.00  0.00    +0.017 C 
ATOM     38  C   UNL     1      21.147  12.156   0.186  0.00  0.00    +0.084 C 
ENDBRANCH  33  34
ENDBRANCH  32  33
ENDBRANCH  30  32
ENDBRANCH  26  28
ENDBRANCH  25  26
ENDBRANCH  24  25
ENDBRANCH   1  24
TORSDOF 13
