REMARK VINA RESULT:    -6.579      2.503      7.877
REMARK INTER + INTRA:         -14.843
REMARK INTER:                 -11.788
REMARK INTRA:                  -3.055
REMARK UNBOUND:                -2.880
REMARK  Name = lig_assembled_21.pdb
REMARK  15 active torsions:
REMARK  status: ('A' for Active; 'I' for Inactive)
REMARK    1  A    between atoms: _2  and  _8
REMARK    2  A    between atoms: _5  and  _6
REMARK    3  A    between atoms: _5  and  _18
REMARK    4  A    between atoms: _8  and  _9
REMARK    5  A    between atoms: _10  and  _17
REMARK    6  A    between atoms: _11  and  _12
REMARK    7  A    between atoms: _11  and  _17
REMARK    8  A    between atoms: _18  and  _20
REMARK    9  A    between atoms: _19  and  _24
REMARK   10  A    between atoms: _20  and  _23
REMARK   11  A    between atoms: _28  and  _38
REMARK   12  A    between atoms: _30  and  _31
REMARK   13  A    between atoms: _32  and  _34
REMARK   14  A    between atoms: _34  and  _36
REMARK   15  A    between atoms: _36  and  _38
REMARK                            x       y       z     vdW  Elec       q    Type
REMARK                         _______ _______ _______ _____ _____    ______ ____
ROOT
ATOM      1  C   UNL     1      25.615  16.090  -4.018  0.00  0.00    +0.400 C 
ATOM      2  N   UNL     1      24.284  15.762  -3.907  0.00  0.00    -0.278 N 
ATOM      3  H   UNL     1      24.060  15.316  -4.853  0.00  0.00    +0.152 HD
ATOM      4  O   UNL     1      26.236  15.673  -4.993  0.00  0.00    -0.226 OA
ENDROOT
BRANCH   2   5
ATOM      5  C   UNL     1      23.073  15.736  -3.092  0.00  0.00    +0.152 C 
BRANCH   5   6
ATOM      6  C   UNL     1      22.907  14.518  -2.160  0.00  0.00    +0.193 C 
ATOM      7  O   UNL     1      21.525  14.503  -1.738  0.00  0.00    -0.219 OA
BRANCH   6   8
ATOM      8  C   UNL     1      23.139  13.117  -2.767  0.00  0.00    +0.212 C 
ATOM      9  O   UNL     1      23.133  13.184  -4.202  0.00  0.00    -0.218 OA
BRANCH   8  10
ATOM     10  C   UNL     1      24.489  12.450  -2.300  0.00  0.00    +0.171 C 
ATOM     11  O   UNL     1      25.319  12.070  -3.392  0.00  0.00    -0.343 OA
ATOM     12  C   UNL     1      26.445  11.251  -3.279  0.00  0.00    +0.220 C 
ATOM     13  C   UNL     1      26.133   9.956  -2.508  0.00  0.00    +0.076 C 
ATOM     14  C   UNL     1      25.488  10.359  -1.171  0.00  0.00    +0.177 C 
ATOM     15  O   UNL     1      25.215   9.198  -0.399  0.00  0.00    -0.221 OA
ATOM     16  C   UNL     1      24.190  11.187  -1.428  0.00  0.00    +0.155 C 
BRANCH  16  17
ATOM     17  N   UNL     1      23.571  11.565  -0.160  0.00  0.00    -0.202 NA
ATOM     18  C   UNL     1      22.308  11.347   0.288  0.00  0.00    +0.242 C 
ATOM     19  C   UNL     1      22.017  11.580   1.747  0.00  0.00    +0.096 C 
ATOM     20  O   UNL     1      21.442  10.967  -0.498  0.00  0.00    -0.273 OA
ENDBRANCH  16  17
BRANCH  12  21
ATOM     21  C   UNL     1      27.742  12.013  -2.666  0.00  0.00    +0.391 C 
ATOM     22  O   UNL     1      28.488  11.039  -2.111  0.00  0.00    -0.243 OA
ATOM     23  O   UNL     1      27.731  13.243  -3.194  0.00  0.00    -0.243 OA
ENDBRANCH  12  21
ENDBRANCH   8  10
ENDBRANCH   6   8
ENDBRANCH   5   6
ENDBRANCH   2   5
BRANCH   1  24
ATOM     24  O   UNL     1      26.084  16.848  -3.082  0.00  0.00    -0.450 OA
BRANCH  24  25
ATOM     25  C   UNL     1      27.123  17.778  -2.881  0.00  0.00    +0.240 C 
BRANCH  25  26
ATOM     26  C   UNL     1      27.585  18.026  -1.432  0.00  0.00    +0.100 C 
BRANCH  26  28
ATOM     27  N   UNL     1      29.770  17.242  -0.585  0.00  0.00    -0.134 NA
ATOM     28  C   UNL     1      28.499  16.953  -0.999  0.00  0.00    +0.086 A 
ATOM     29  C   UNL     1      28.289  15.596  -0.893  0.00  0.00    +0.134 A 
ATOM     30  N   UNL     1      29.441  15.126  -0.321  0.00  0.00    -0.247 N 
ATOM     31  N   UNL     1      30.338  16.118  -0.176  0.00  0.00    -0.065 NA
BRANCH  30  32
ATOM     32  C   UNL     1      29.666  13.767   0.161  0.00  0.00    +0.184 C 
BRANCH  32  33
ATOM     33  C   UNL     1      28.716  13.285   1.230  0.00  0.00    +0.016 A 
ATOM     34  C   UNL     1      29.031  13.371   2.598  0.00  0.00    +0.137 A 
ATOM     35  C   UNL     1      28.138  12.925   3.572  0.00  0.00    +0.047 A 
ATOM     36  C   UNL     1      26.904  12.398   3.188  0.00  0.00    +0.004 A 
ATOM     37  C   UNL     1      26.578  12.291   1.838  0.00  0.00    +0.001 A 
ATOM     38  C   UNL     1      27.476  12.734   0.865  0.00  0.00    +0.009 A 
BRANCH  34  39
ATOM     39  O   UNL     1      30.322  13.850   2.927  0.00  0.00    -0.426 OA
BRANCH  39  40
ATOM     40  C   UNL     1      31.420  13.001   3.087  0.00  0.00    +0.309 C 
ATOM     41  O   UNL     1      32.257  12.707   2.244  0.00  0.00    -0.251 OA
ATOM     42  C   UNL     1      31.477  12.542   4.514  0.00  0.00    +0.136 C 
ENDBRANCH  39  40
ENDBRANCH  34  39
ENDBRANCH  32  33
ENDBRANCH  30  32
ENDBRANCH  26  28
ENDBRANCH  25  26
ENDBRANCH  24  25
ENDBRANCH   1  24
TORSDOF 14
