REMARK VINA RESULT:    -6.758      3.846      7.859
REMARK INTER + INTRA:         -13.377
REMARK INTER:                 -10.515
REMARK INTRA:                  -2.861
REMARK UNBOUND:                -1.681
REMARK  Name = lig_assembled_59.pdb
REMARK  13 active torsions:
REMARK  status: ('A' for Active; 'I' for Inactive)
REMARK    1  A    between atoms: _2  and  _9
REMARK    2  A    between atoms: _6  and  _7
REMARK    3  A    between atoms: _6  and  _15
REMARK    4  A    between atoms: _12  and  _13
REMARK    5  A    between atoms: _13  and  _14
REMARK    6  A    between atoms: _15  and  _17
REMARK    7  A    between atoms: _16  and  _21
REMARK    8  A    between atoms: _17  and  _20
REMARK    9  A    between atoms: _25  and  _35
REMARK   10  A    between atoms: _27  and  _28
REMARK   11  A    between atoms: _29  and  _31
REMARK   12  A    between atoms: _31  and  _33
REMARK   13  A    between atoms: _33  and  _35
REMARK                            x       y       z     vdW  Elec       q    Type
REMARK                         _______ _______ _______ _____ _____    ______ ____
ROOT
ATOM      1  C   UNL     1      27.907  17.660  -1.059  0.00  0.00    +0.400 C 
ATOM      2  N   UNL     1      27.208  17.533  -2.236  0.00  0.00    -0.278 N 
ATOM      3  H   UNL     1      26.295  18.053  -2.038  0.00  0.00    +0.152 HD
ATOM      4  O   UNL     1      27.466  18.420  -0.201  0.00  0.00    -0.226 OA
ENDROOT
BRANCH   1   5
ATOM      5  O   UNL     1      28.967  16.927  -0.956  0.00  0.00    -0.450 OA
BRANCH   5   6
ATOM      6  C   UNL     1      30.245  16.973  -0.364  0.00  0.00    +0.240 C 
BRANCH   6   7
ATOM      7  C   UNL     1      30.611  15.850   0.625  0.00  0.00    +0.100 C 
BRANCH   7   9
ATOM      8  N   UNL     1      29.937  13.827  -0.626  0.00  0.00    -0.134 NA
ATOM      9  C   UNL     1      29.732  14.682   0.421  0.00  0.00    +0.087 A 
ATOM     10  C   UNL     1      28.648  14.253   1.149  0.00  0.00    +0.141 A 
ATOM     11  N   UNL     1      28.216  13.118   0.501  0.00  0.00    -0.202 N 
ATOM     12  N   UNL     1      29.014  12.876  -0.570  0.00  0.00    -0.059 NA
BRANCH  11  13
ATOM     13  C   UNL     1      27.108  12.297   0.844  0.00  0.00    +0.156 A 
ATOM     14  C   UNL     1      26.552  11.468  -0.129  0.00  0.00    +0.048 A 
ATOM     15  C   UNL     1      25.438  10.698   0.202  0.00  0.00    +0.011 A 
ATOM     16  C   UNL     1      24.906  10.760   1.492  0.00  0.00    -0.004 A 
ATOM     17  C   UNL     1      25.528  11.615   2.397  0.00  0.00    +0.119 A 
ATOM     18  N   UNL     1      26.614  12.373   2.110  0.00  0.00    -0.236 NA
BRANCH  16  19
ATOM     19  C   UNL     1      23.654  10.010   1.843  0.00  0.00    +0.192 C 
BRANCH  19  20
ATOM     20  O   UNL     1      22.728  10.017   0.767  0.00  0.00    -0.390 OA
ATOM     21  H   UNL     1      22.060  10.693   0.973  0.00  0.00    +0.210 HD
ENDBRANCH  19  20
ENDBRANCH  16  19
ENDBRANCH  11  13
ENDBRANCH   7   9
ENDBRANCH   6   7
ENDBRANCH   5   6
ENDBRANCH   1   5
BRANCH   2  22
ATOM     22  C   UNL     1      27.160  17.032  -3.607  0.00  0.00    +0.152 C 
BRANCH  22  23
ATOM     23  C   UNL     1      25.952  16.142  -3.963  0.00  0.00    +0.193 C 
ATOM     24  O   UNL     1      26.016  15.904  -5.386  0.00  0.00    -0.219 OA
BRANCH  23  25
ATOM     25  C   UNL     1      25.895  14.730  -3.338  0.00  0.00    +0.212 C 
ATOM     26  O   UNL     1      26.555  14.719  -2.062  0.00  0.00    -0.218 OA
BRANCH  25  27
ATOM     27  C   UNL     1      24.426  14.189  -3.151  0.00  0.00    +0.171 C 
ATOM     28  O   UNL     1      23.756  14.793  -2.049  0.00  0.00    -0.343 OA
ATOM     29  C   UNL     1      22.551  14.334  -1.512  0.00  0.00    +0.220 C 
ATOM     30  C   UNL     1      22.599  12.826  -1.210  0.00  0.00    +0.076 C 
ATOM     31  C   UNL     1      23.049  12.111  -2.495  0.00  0.00    +0.177 C 
ATOM     32  O   UNL     1      23.072  10.706  -2.282  0.00  0.00    -0.221 OA
ATOM     33  C   UNL     1      24.447  12.639  -2.943  0.00  0.00    +0.155 C 
BRANCH  33  34
ATOM     34  N   UNL     1      24.881  11.957  -4.160  0.00  0.00    -0.202 NA
ATOM     35  C   UNL     1      26.014  11.251  -4.402  0.00  0.00    +0.242 C 
ATOM     36  C   UNL     1      26.077  10.404  -5.646  0.00  0.00    +0.096 C 
ATOM     37  O   UNL     1      26.951  11.316  -3.609  0.00  0.00    -0.273 OA
ENDBRANCH  33  34
BRANCH  29  38
ATOM     38  C   UNL     1      21.253  14.722  -2.408  0.00  0.00    +0.391 C 
ATOM     39  O   UNL     1      21.726  15.538  -3.370  0.00  0.00    -0.243 OA
ATOM     40  O   UNL     1      20.286  13.869  -2.047  0.00  0.00    -0.243 OA
ENDBRANCH  29  38
ENDBRANCH  25  27
ENDBRANCH  23  25
ENDBRANCH  22  23
ENDBRANCH   2  22
TORSDOF 13
