REMARK VINA RESULT:    -6.259      1.631      3.810
REMARK INTER + INTRA:         -13.307
REMARK INTER:                 -11.962
REMARK INTRA:                  -1.345
REMARK UNBOUND:                -2.657
REMARK  Name = lig_assembled_46.pdb
REMARK  12 active torsions:
REMARK  status: ('A' for Active; 'I' for Inactive)
REMARK    1  A    between atoms: _2  and  _8
REMARK    2  A    between atoms: _5  and  _6
REMARK    3  A    between atoms: _5  and  _14
REMARK    4  A    between atoms: _8  and  _9
REMARK    5  A    between atoms: _14  and  _16
REMARK    6  A    between atoms: _15  and  _20
REMARK    7  A    between atoms: _16  and  _19
REMARK    8  A    between atoms: _24  and  _34
REMARK    9  A    between atoms: _26  and  _27
REMARK   10  A    between atoms: _28  and  _30
REMARK   11  A    between atoms: _30  and  _32
REMARK   12  A    between atoms: _32  and  _34
REMARK                            x       y       z     vdW  Elec       q    Type
REMARK                         _______ _______ _______ _____ _____    ______ ____
ROOT
ATOM      1  C   UNL     1      27.862  17.298  -0.787  0.00  0.00    +0.400 C 
ATOM      2  N   UNL     1      28.617  16.495   0.036  0.00  0.00    -0.278 N 
ATOM      3  H   UNL     1      28.849  17.135   0.860  0.00  0.00    +0.152 HD
ATOM      4  O   UNL     1      27.497  18.389  -0.355  0.00  0.00    -0.226 OA
ENDROOT
BRANCH   2   5
ATOM      5  C   UNL     1      29.216  15.188   0.289  0.00  0.00    +0.152 C 
BRANCH   5   6
ATOM      6  C   UNL     1      30.489  14.856  -0.516  0.00  0.00    +0.193 C 
ATOM      7  O   UNL     1      31.314  16.042  -0.495  0.00  0.00    -0.219 OA
BRANCH   6   8
ATOM      8  C   UNL     1      31.407  13.738   0.025  0.00  0.00    +0.212 C 
ATOM      9  O   UNL     1      30.699  12.489   0.077  0.00  0.00    -0.218 OA
BRANCH   8  10
ATOM     10  C   UNL     1      32.718  13.539  -0.828  0.00  0.00    +0.171 C 
ATOM     11  O   UNL     1      32.485  12.811  -2.029  0.00  0.00    -0.343 OA
ATOM     12  C   UNL     1      33.493  12.286  -2.841  0.00  0.00    +0.220 C 
ATOM     13  C   UNL     1      34.507  11.461  -2.030  0.00  0.00    +0.076 C 
ATOM     14  C   UNL     1      35.002  12.345  -0.873  0.00  0.00    +0.177 C 
ATOM     15  O   UNL     1      35.975  11.642  -0.112  0.00  0.00    -0.221 OA
ATOM     16  C   UNL     1      33.799  12.789   0.017  0.00  0.00    +0.155 C 
BRANCH  16  17
ATOM     17  N   UNL     1      34.266  13.623   1.121  0.00  0.00    -0.202 NA
ATOM     18  C   UNL     1      34.142  13.438   2.460  0.00  0.00    +0.242 C 
ATOM     19  C   UNL     1      34.971  14.297   3.381  0.00  0.00    +0.096 C 
ATOM     20  O   UNL     1      33.367  12.585   2.887  0.00  0.00    -0.273 OA
ENDBRANCH  16  17
BRANCH  12  21
ATOM     21  C   UNL     1      34.231  13.404  -3.760  0.00  0.00    +0.391 C 
ATOM     22  O   UNL     1      35.351  12.803  -4.206  0.00  0.00    -0.243 OA
ATOM     23  O   UNL     1      33.325  14.367  -3.970  0.00  0.00    -0.243 OA
ENDBRANCH  12  21
ENDBRANCH   8  10
ENDBRANCH   6   8
ENDBRANCH   5   6
ENDBRANCH   2   5
BRANCH   1  24
ATOM     24  O   UNL     1      27.632  16.830  -1.969  0.00  0.00    -0.450 OA
BRANCH  24  25
ATOM     25  C   UNL     1      27.215  17.283  -3.236  0.00  0.00    +0.240 C 
BRANCH  25  26
ATOM     26  C   UNL     1      25.708  17.232  -3.549  0.00  0.00    +0.100 C 
BRANCH  26  28
ATOM     27  N   UNL     1      25.173  15.102  -4.693  0.00  0.00    -0.134 NA
ATOM     28  C   UNL     1      25.228  15.837  -3.538  0.00  0.00    +0.086 A 
ATOM     29  C   UNL     1      24.823  15.048  -2.483  0.00  0.00    +0.134 A 
ATOM     30  N   UNL     1      24.589  13.829  -3.052  0.00  0.00    -0.247 N 
ATOM     31  N   UNL     1      24.788  13.871  -4.384  0.00  0.00    -0.065 NA
BRANCH  30  32
ATOM     32  C   UNL     1      24.427  12.554  -2.375  0.00  0.00    +0.180 C 
BRANCH  32  33
ATOM     33  C   UNL     1      23.255  12.514  -1.427  0.00  0.00    -0.026 A 
ATOM     34  C   UNL     1      21.996  12.998  -1.814  0.00  0.00    +0.005 A 
ATOM     35  C   UNL     1      20.894  12.869  -0.964  0.00  0.00    +0.000 A 
ATOM     36  C   UNL     1      21.037  12.254   0.278  0.00  0.00    +0.000 A 
ATOM     37  C   UNL     1      22.283  11.776   0.678  0.00  0.00    +0.000 A 
ATOM     38  C   UNL     1      23.386  11.904  -0.169  0.00  0.00    +0.005 A 
ENDBRANCH  32  33
ENDBRANCH  30  32
ENDBRANCH  26  28
ENDBRANCH  25  26
ENDBRANCH  24  25
ENDBRANCH   1  24
TORSDOF 12
