REMARK VINA RESULT:    -6.761      1.927      3.366
REMARK INTER + INTRA:         -12.916
REMARK INTER:                 -11.217
REMARK INTRA:                  -1.699
REMARK UNBOUND:                -1.808
REMARK  Name = lig_assembled_8.pdb
REMARK  11 active torsions:
REMARK  status: ('A' for Active; 'I' for Inactive)
REMARK    1  A    between atoms: _2  and  _8
REMARK    2  A    between atoms: _5  and  _6
REMARK    3  A    between atoms: _5  and  _13
REMARK    4  A    between atoms: _13  and  _15
REMARK    5  A    between atoms: _14  and  _19
REMARK    6  A    between atoms: _15  and  _18
REMARK    7  A    between atoms: _23  and  _33
REMARK    8  A    between atoms: _25  and  _26
REMARK    9  A    between atoms: _27  and  _29
REMARK   10  A    between atoms: _29  and  _31
REMARK   11  A    between atoms: _31  and  _33
REMARK                            x       y       z     vdW  Elec       q    Type
REMARK                         _______ _______ _______ _____ _____    ______ ____
ROOT
ATOM      1  C   UNL     1      28.247  16.908  -0.788  0.00  0.00    +0.400 C 
ATOM      2  N   UNL     1      28.418  15.643  -0.277  0.00  0.00    -0.278 N 
ATOM      3  H   UNL     1      28.855  15.820   0.682  0.00  0.00    +0.152 HD
ATOM      4  O   UNL     1      28.432  17.865  -0.040  0.00  0.00    -0.226 OA
ENDROOT
BRANCH   1   5
ATOM      5  O   UNL     1      27.933  16.968  -2.040  0.00  0.00    -0.450 OA
BRANCH   5   6
ATOM      6  C   UNL     1      26.919  17.497  -2.862  0.00  0.00    +0.240 C 
BRANCH   6   7
ATOM      7  C   UNL     1      26.416  16.619  -4.024  0.00  0.00    +0.100 C 
BRANCH   7   9
ATOM      8  N   UNL     1      26.001  14.196  -3.807  0.00  0.00    -0.134 NA
ATOM      9  C   UNL     1      25.648  15.473  -3.504  0.00  0.00    +0.086 A 
ATOM     10  C   UNL     1      24.542  15.447  -2.686  0.00  0.00    +0.139 A 
ATOM     11  N   UNL     1      24.257  14.106  -2.491  0.00  0.00    -0.219 N 
ATOM     12  N   UNL     1      25.153  13.381  -3.197  0.00  0.00    -0.061 NA
BRANCH  11  13
ATOM     13  C   UNL     1      23.225  13.532  -1.686  0.00  0.00    +0.081 A 
ATOM     14  C   UNL     1      21.890  13.917  -1.945  0.00  0.00    +0.029 A 
ATOM     15  C   UNL     1      20.826  13.419  -1.187  0.00  0.00    +0.002 A 
ATOM     16  C   UNL     1      21.067  12.526  -0.155  0.00  0.00    +0.001 A 
ATOM     17  C   UNL     1      22.373  12.126   0.113  0.00  0.00    +0.017 A 
ATOM     18  C   UNL     1      23.458  12.616  -0.640  0.00  0.00    +0.043 A 
ATOM     19 BR   UNL     1      25.143  11.921  -0.089  0.00  0.00    -0.048 Br
ENDBRANCH  11  13
ENDBRANCH   7   9
ENDBRANCH   6   7
ENDBRANCH   5   6
ENDBRANCH   1   5
BRANCH   2  20
ATOM     20  C   UNL     1      28.260  14.201  -0.447  0.00  0.00    +0.152 C 
BRANCH  20  21
ATOM     21  C   UNL     1      29.423  13.467  -1.145  0.00  0.00    +0.193 C 
ATOM     22  O   UNL     1      30.535  14.389  -1.179  0.00  0.00    -0.219 OA
BRANCH  21  23
ATOM     23  C   UNL     1      29.990  12.206  -0.455  0.00  0.00    +0.212 C 
ATOM     24  O   UNL     1      30.488  11.280  -1.434  0.00  0.00    -0.218 OA
BRANCH  23  25
ATOM     25  C   UNL     1      31.143  12.522   0.572  0.00  0.00    +0.171 C 
ATOM     26  O   UNL     1      32.400  11.992   0.164  0.00  0.00    -0.343 OA
ATOM     27  C   UNL     1      33.526  11.912   0.987  0.00  0.00    +0.220 C 
ATOM     28  C   UNL     1      33.200  11.250   2.337  0.00  0.00    +0.076 C 
ATOM     29  C   UNL     1      32.006  12.004   2.946  0.00  0.00    +0.177 C 
ATOM     30  O   UNL     1      31.688  11.456   4.217  0.00  0.00    -0.221 OA
ATOM     31  C   UNL     1      30.783  11.942   1.979  0.00  0.00    +0.155 C 
BRANCH  31  32
ATOM     32  N   UNL     1      29.644  12.651   2.557  0.00  0.00    -0.202 NA
ATOM     33  C   UNL     1      28.379  12.217   2.791  0.00  0.00    +0.242 C 
ATOM     34  C   UNL     1      27.485  13.057   3.666  0.00  0.00    +0.096 C 
ATOM     35  O   UNL     1      27.997  11.161   2.292  0.00  0.00    -0.273 OA
ENDBRANCH  31  32
BRANCH  27  36
ATOM     36  C   UNL     1      34.284  13.335   1.188  0.00  0.00    +0.391 C 
ATOM     37  O   UNL     1      33.686  14.173   0.319  0.00  0.00    -0.243 OA
ATOM     38  O   UNL     1      34.988  13.223   2.321  0.00  0.00    -0.243 OA
ENDBRANCH  27  36
ENDBRANCH  23  25
ENDBRANCH  21  23
ENDBRANCH  20  21
ENDBRANCH   2  20
TORSDOF 11
