REMARK VINA RESULT:    -6.013     23.720     26.378
REMARK INTER + INTRA:         -12.888
REMARK INTER:                 -11.720
REMARK INTRA:                  -1.168
REMARK UNBOUND:                -2.657
REMARK  Name = lig_assembled_46.pdb
REMARK  12 active torsions:
REMARK  status: ('A' for Active; 'I' for Inactive)
REMARK    1  A    between atoms: _2  and  _8
REMARK    2  A    between atoms: _5  and  _6
REMARK    3  A    between atoms: _5  and  _14
REMARK    4  A    between atoms: _8  and  _9
REMARK    5  A    between atoms: _14  and  _16
REMARK    6  A    between atoms: _15  and  _20
REMARK    7  A    between atoms: _16  and  _19
REMARK    8  A    between atoms: _24  and  _34
REMARK    9  A    between atoms: _26  and  _27
REMARK   10  A    between atoms: _28  and  _30
REMARK   11  A    between atoms: _30  and  _32
REMARK   12  A    between atoms: _32  and  _34
REMARK                            x       y       z     vdW  Elec       q    Type
REMARK                         _______ _______ _______ _____ _____    ______ ____
ROOT
ATOM      1  C   UNL     1      31.700  43.136   6.209  0.00  0.00    +0.400 C 
ATOM      2  N   UNL     1      32.640  42.149   6.027  0.00  0.00    -0.278 N 
ATOM      3  H   UNL     1      33.551  42.694   5.907  0.00  0.00    +0.152 HD
ATOM      4  O   UNL     1      32.094  44.289   6.370  0.00  0.00    -0.226 OA
ENDROOT
BRANCH   2   5
ATOM      5  C   UNL     1      32.947  40.724   5.941  0.00  0.00    +0.152 C 
BRANCH   5   6
ATOM      6  C   UNL     1      33.552  40.238   4.609  0.00  0.00    +0.193 C 
ATOM      7  O   UNL     1      32.476  40.219   3.645  0.00  0.00    -0.219 OA
BRANCH   6   8
ATOM      8  C   UNL     1      34.640  41.118   3.954  0.00  0.00    +0.212 C 
ATOM      9  O   UNL     1      35.235  41.988   4.930  0.00  0.00    -0.218 OA
BRANCH   8  10
ATOM     10  C   UNL     1      35.783  40.284   3.258  0.00  0.00    +0.171 C 
ATOM     11  O   UNL     1      35.373  39.725   2.015  0.00  0.00    -0.343 OA
ATOM     12  C   UNL     1      36.091  38.755   1.312  0.00  0.00    +0.220 C 
ATOM     13  C   UNL     1      36.474  37.566   2.211  0.00  0.00    +0.076 C 
ATOM     14  C   UNL     1      37.190  38.133   3.448  0.00  0.00    +0.177 C 
ATOM     15  O   UNL     1      37.602  37.070   4.296  0.00  0.00    -0.221 OA
ATOM     16  C   UNL     1      36.255  39.130   4.201  0.00  0.00    +0.155 C 
BRANCH  16  17
ATOM     17  N   UNL     1      36.930  39.666   5.380  0.00  0.00    -0.202 NA
ATOM     18  C   UNL     1      36.673  39.458   6.697  0.00  0.00    +0.242 C 
ATOM     19  C   UNL     1      37.703  39.896   7.705  0.00  0.00    +0.096 C 
ATOM     20  O   UNL     1      35.618  38.923   7.033  0.00  0.00    -0.273 OA
ENDBRANCH  16  17
BRANCH  12  21
ATOM     21  C   UNL     1      37.383  39.348   0.526  0.00  0.00    +0.391 C 
ATOM     22  O   UNL     1      37.504  40.616   0.964  0.00  0.00    -0.243 OA
ATOM     23  O   UNL     1      38.004  38.293  -0.014  0.00  0.00    -0.243 OA
ENDBRANCH  12  21
ENDBRANCH   8  10
ENDBRANCH   6   8
ENDBRANCH   5   6
ENDBRANCH   2   5
BRANCH   1  24
ATOM     24  O   UNL     1      30.467  42.751   6.160  0.00  0.00    -0.450 OA
BRANCH  24  25
ATOM     25  C   UNL     1      29.709  41.647   5.724  0.00  0.00    +0.240 C 
BRANCH  25  26
ATOM     26  C   UNL     1      29.115  40.722   6.802  0.00  0.00    +0.100 C 
BRANCH  26  28
ATOM     27  N   UNL     1      29.809  38.768   5.450  0.00  0.00    -0.134 NA
ATOM     28  C   UNL     1      28.878  39.375   6.250  0.00  0.00    +0.086 A 
ATOM     29  C   UNL     1      27.815  38.518   6.434  0.00  0.00    +0.134 A 
ATOM     30  N   UNL     1      28.184  37.384   5.768  0.00  0.00    -0.247 N 
ATOM     31  N   UNL     1      29.379  37.546   5.166  0.00  0.00    -0.065 NA
BRANCH  30  32
ATOM     32  C   UNL     1      27.587  36.064   5.870  0.00  0.00    +0.180 C 
BRANCH  32  33
ATOM     33  C   UNL     1      27.874  35.367   7.177  0.00  0.00    -0.026 A 
ATOM     34  C   UNL     1      26.831  34.981   8.034  0.00  0.00    +0.005 A 
ATOM     35  C   UNL     1      27.101  34.251   9.195  0.00  0.00    +0.000 A 
ATOM     36  C   UNL     1      28.411  33.898   9.510  0.00  0.00    +0.000 A 
ATOM     37  C   UNL     1      29.456  34.282   8.673  0.00  0.00    +0.000 A 
ATOM     38  C   UNL     1      29.190  35.011   7.512  0.00  0.00    +0.005 A 
ENDBRANCH  32  33
ENDBRANCH  30  32
ENDBRANCH  26  28
ENDBRANCH  25  26
ENDBRANCH  24  25
ENDBRANCH   1  24
TORSDOF 12
