REMARK VINA RESULT:    -6.719      1.471      2.741
REMARK INTER + INTRA:         -13.577
REMARK INTER:                 -12.571
REMARK INTRA:                  -1.006
REMARK UNBOUND:                -2.144
REMARK  Name = lig_assembled_63.pdb
REMARK  12 active torsions:
REMARK  status: ('A' for Active; 'I' for Inactive)
REMARK    1  A    between atoms: _2  and  _10
REMARK    2  A    between atoms: _6  and  _14
REMARK    3  A    between atoms: _7  and  _8
REMARK    4  A    between atoms: _7  and  _15
REMARK    5  A    between atoms: _15  and  _17
REMARK    6  A    between atoms: _16  and  _21
REMARK    7  A    between atoms: _17  and  _20
REMARK    8  A    between atoms: _25  and  _35
REMARK    9  A    between atoms: _27  and  _28
REMARK   10  A    between atoms: _29  and  _31
REMARK   11  A    between atoms: _31  and  _33
REMARK   12  A    between atoms: _33  and  _35
REMARK                            x       y       z     vdW  Elec       q    Type
REMARK                         _______ _______ _______ _____ _____    ______ ____
ROOT
ATOM      1  C   UNL     1      27.943  17.481  -0.814  0.00  0.00    +0.400 C 
ATOM      2  N   UNL     1      28.816  16.677  -0.120  0.00  0.00    -0.278 N 
ATOM      3  H   UNL     1      29.018  17.239   0.767  0.00  0.00    +0.152 HD
ATOM      4  O   UNL     1      27.485  18.468  -0.243  0.00  0.00    -0.226 OA
ENDROOT
BRANCH   2   5
ATOM      5  C   UNL     1      29.561  15.423  -0.045  0.00  0.00    +0.152 C 
BRANCH   5   6
ATOM      6  C   UNL     1      31.075  15.548   0.223  0.00  0.00    +0.193 C 
ATOM      7  O   UNL     1      31.229  15.773   1.642  0.00  0.00    -0.219 OA
BRANCH   6   8
ATOM      8  C   UNL     1      31.957  14.314  -0.069  0.00  0.00    +0.212 C 
ATOM      9  O   UNL     1      33.049  14.669  -0.932  0.00  0.00    -0.218 OA
BRANCH   8  10
ATOM     10  C   UNL     1      32.542  13.642   1.233  0.00  0.00    +0.171 C 
ATOM     11  O   UNL     1      33.950  13.445   1.162  0.00  0.00    -0.343 OA
ATOM     12  C   UNL     1      34.682  12.661   2.057  0.00  0.00    +0.220 C 
ATOM     13  C   UNL     1      34.061  11.264   2.232  0.00  0.00    +0.076 C 
ATOM     14  C   UNL     1      32.582  11.458   2.601  0.00  0.00    +0.177 C 
ATOM     15  O   UNL     1      31.968  10.195   2.814  0.00  0.00    -0.221 OA
ATOM     16  C   UNL     1      31.849  12.263   1.483  0.00  0.00    +0.155 C 
BRANCH  16  17
ATOM     17  N   UNL     1      30.441  12.443   1.827  0.00  0.00    -0.202 NA
ATOM     18  C   UNL     1      29.881  12.912   2.971  0.00  0.00    +0.242 C 
ATOM     19  C   UNL     1      28.418  13.274   2.956  0.00  0.00    +0.096 C 
ATOM     20  O   UNL     1      30.571  13.032   3.981  0.00  0.00    -0.273 OA
ENDBRANCH  16  17
BRANCH  12  21
ATOM     21  C   UNL     1      34.939  13.384   3.489  0.00  0.00    +0.391 C 
ATOM     22  O   UNL     1      35.341  12.395   4.310  0.00  0.00    -0.243 OA
ATOM     23  O   UNL     1      34.949  14.700   3.243  0.00  0.00    -0.243 OA
ENDBRANCH  12  21
ENDBRANCH   8  10
ENDBRANCH   6   8
ENDBRANCH   5   6
ENDBRANCH   2   5
BRANCH   1  24
ATOM     24  O   UNL     1      27.709  17.130  -2.036  0.00  0.00    -0.450 OA
BRANCH  24  25
ATOM     25  C   UNL     1      26.751  17.347  -3.045  0.00  0.00    +0.240 C 
BRANCH  25  26
ATOM     26  C   UNL     1      26.602  16.262  -4.129  0.00  0.00    +0.100 C 
BRANCH  26  28
ATOM     27  N   UNL     1      24.697  14.883  -4.888  0.00  0.00    -0.134 NA
ATOM     28  C   UNL     1      25.416  15.428  -3.863  0.00  0.00    +0.087 A 
ATOM     29  C   UNL     1      24.833  15.070  -2.671  0.00  0.00    +0.141 A 
ATOM     30  N   UNL     1      23.723  14.328  -3.023  0.00  0.00    -0.201 N 
ATOM     31  N   UNL     1      23.678  14.213  -4.368  0.00  0.00    -0.059 NA
BRANCH  30  32
ATOM     32  C   UNL     1      22.734  13.809  -2.136  0.00  0.00    +0.173 A 
ATOM     33  C   UNL     1      21.446  14.345  -2.056  0.00  0.00    +0.096 A 
ATOM     34  C   UNL     1      20.583  13.821  -1.080  0.00  0.00    +0.024 A 
ATOM     35  C   UNL     1      21.000  12.788  -0.247  0.00  0.00    +0.021 A 
ATOM     36  C   UNL     1      22.276  12.291  -0.419  0.00  0.00    +0.113 A 
ATOM     37  N   UNL     1      23.144  12.775  -1.333  0.00  0.00    -0.235 NA
BRANCH  33  38
ATOM     38  C   UNL     1      20.919  15.376  -2.900  0.00  0.00    +0.103 C 
ATOM     39  N   UNL     1      20.568  16.188  -3.654  0.00  0.00    -0.191 NA
ENDBRANCH  33  38
ENDBRANCH  30  32
ENDBRANCH  26  28
ENDBRANCH  25  26
ENDBRANCH  24  25
ENDBRANCH   1  24
TORSDOF 12
