REMARK VINA RESULT:    -7.438      2.800      7.241
REMARK INTER + INTRA:         -14.159
REMARK INTER:                 -10.447
REMARK INTRA:                  -3.713
REMARK UNBOUND:                -1.503
REMARK  Name = lig_assembled_89.pdb
REMARK  14 active torsions:
REMARK  status: ('A' for Active; 'I' for Inactive)
REMARK    1  A    between atoms: _2  and  _11
REMARK    2  A    between atoms: _5  and  _19
REMARK    3  A    between atoms: _8  and  _9
REMARK    4  A    between atoms: _8  and  _24
REMARK    5  A    between atoms: _19  and  _20
REMARK    6  A    between atoms: _19  and  _21
REMARK    7  A    between atoms: _24  and  _26
REMARK    8  A    between atoms: _25  and  _30
REMARK    9  A    between atoms: _26  and  _29
REMARK   10  A    between atoms: _34  and  _44
REMARK   11  A    between atoms: _36  and  _37
REMARK   12  A    between atoms: _38  and  _40
REMARK   13  A    between atoms: _40  and  _42
REMARK   14  A    between atoms: _42  and  _44
REMARK                            x       y       z     vdW  Elec       q    Type
REMARK                         _______ _______ _______ _____ _____    ______ ____
ROOT
ATOM      1  C   UNL     1      26.838  16.978  -3.847  0.00  0.00    +0.240 C 
ENDROOT
BRANCH   1   2
ATOM      2  C   UNL     1      26.951  17.737  -2.511  0.00  0.00    +0.100 C 
BRANCH   2   4
ATOM      3  N   UNL     1      29.071  17.670  -1.253  0.00  0.00    -0.134 NA
ATOM      4  C   UNL     1      27.910  17.060  -1.622  0.00  0.00    +0.087 A 
ATOM      5  C   UNL     1      27.844  15.825  -1.021  0.00  0.00    +0.141 A 
ATOM      6  N   UNL     1      28.993  15.730  -0.260  0.00  0.00    -0.200 N 
ATOM      7  N   UNL     1      29.716  16.862  -0.425  0.00  0.00    -0.059 NA
BRANCH   6   8
ATOM      8  C   UNL     1      29.318  14.663   0.628  0.00  0.00    +0.186 A 
ATOM      9  C   UNL     1      30.422  13.834   0.644  0.00  0.00    +0.158 A 
ATOM     10  C   UNL     1      31.524  13.654  -0.249  0.00  0.00    +0.280 A 
ATOM     11  O   UNL     1      31.488  14.016  -1.417  0.00  0.00    -0.265 OA
ATOM     12  N   UNL     1      32.644  12.999   0.304  0.00  0.00    -0.302 N 
ATOM     13  C   UNL     1      32.497  12.183   1.488  0.00  0.00    +0.069 A 
ATOM     14  C   UNL     1      33.491  11.295   1.925  0.00  0.00    +0.028 A 
ATOM     15  C   UNL     1      33.294  10.480   3.048  0.00  0.00    +0.002 A 
ATOM     16  C   UNL     1      32.105  10.544   3.767  0.00  0.00    +0.002 A 
ATOM     17  C   UNL     1      31.103  11.423   3.370  0.00  0.00    +0.028 A 
ATOM     18  C   UNL     1      31.299  12.225   2.236  0.00  0.00    +0.072 A 
ATOM     19  N   UNL     1      30.305  13.117   1.803  0.00  0.00    -0.291 N 
ATOM     20  C   UNL     1      29.103  13.451   2.373  0.00  0.00    +0.207 A 
ATOM     21  N   UNL     1      28.483  14.393   1.695  0.00  0.00    -0.216 NA
BRANCH  12  22
ATOM     22  C   UNL     1      33.906  13.007  -0.474  0.00  0.00    +0.085 C 
ATOM     23  C   UNL     1      34.334  14.408  -0.948  0.00  0.00    +0.030 C 
ATOM     24  C   UNL     1      33.849  12.036  -1.655  0.00  0.00    +0.030 C 
ENDBRANCH  12  22
ENDBRANCH   6   8
ENDBRANCH   2   4
ENDBRANCH   1   2
BRANCH   1  25
ATOM     25  O   UNL     1      25.704  16.165  -4.038  0.00  0.00    -0.450 OA
BRANCH  25  26
ATOM     26  C   UNL     1      25.176  15.089  -3.552  0.00  0.00    +0.400 C 
ATOM     27  N   UNL     1      25.803  13.913  -3.892  0.00  0.00    -0.278 N 
ATOM     28  H   UNL     1      25.345  13.194  -3.247  0.00  0.00    +0.152 HD
ATOM     29  O   UNL     1      24.202  15.032  -2.806  0.00  0.00    -0.226 OA
BRANCH  27  30
ATOM     30  C   UNL     1      26.779  13.220  -4.728  0.00  0.00    +0.152 C 
BRANCH  30  31
ATOM     31  C   UNL     1      27.221  11.824  -4.242  0.00  0.00    +0.193 C 
ATOM     32  O   UNL     1      28.250  11.375  -5.152  0.00  0.00    -0.219 OA
BRANCH  31  33
ATOM     33  C   UNL     1      27.873  11.727  -2.845  0.00  0.00    +0.212 C 
ATOM     34  O   UNL     1      28.515  12.967  -2.504  0.00  0.00    -0.218 OA
BRANCH  33  35
ATOM     35  C   UNL     1      26.851  11.358  -1.703  0.00  0.00    +0.171 C 
ATOM     36  O   UNL     1      25.983  12.438  -1.376  0.00  0.00    -0.343 OA
ATOM     37  C   UNL     1      25.155  12.471  -0.251  0.00  0.00    +0.220 C 
ATOM     38  C   UNL     1      25.928  12.137   1.036  0.00  0.00    +0.076 C 
ATOM     39  C   UNL     1      26.656  10.802   0.806  0.00  0.00    +0.177 C 
ATOM     40  O   UNL     1      27.356  10.426   1.983  0.00  0.00    -0.221 OA
ATOM     41  C   UNL     1      27.620  10.919  -0.415  0.00  0.00    +0.155 C 
BRANCH  41  42
ATOM     42  N   UNL     1      28.318   9.655  -0.633  0.00  0.00    -0.202 NA
ATOM     43  C   UNL     1      29.649   9.386  -0.627  0.00  0.00    +0.242 C 
ATOM     44  C   UNL     1      30.087   7.945  -0.587  0.00  0.00    +0.096 C 
ATOM     45  O   UNL     1      30.456  10.313  -0.654  0.00  0.00    -0.273 OA
ENDBRANCH  41  42
BRANCH  37  46
ATOM     46  C   UNL     1      23.822  11.554  -0.402  0.00  0.00    +0.391 C 
ATOM     47  O   UNL     1      23.346  11.424   0.852  0.00  0.00    -0.243 OA
ATOM     48  O   UNL     1      23.537  11.528  -1.709  0.00  0.00    -0.243 OA
ENDBRANCH  37  46
ENDBRANCH  33  35
ENDBRANCH  31  33
ENDBRANCH  30  31
ENDBRANCH  27  30
ENDBRANCH  25  26
ENDBRANCH   1  25
TORSDOF 12
