REMARK VINA RESULT:    -7.119      3.202      8.123
REMARK INTER + INTRA:         -15.288
REMARK INTER:                 -11.601
REMARK INTRA:                  -3.687
REMARK UNBOUND:                -2.551
REMARK  Name = lig_assembled_64.pdb
REMARK  14 active torsions:
REMARK  status: ('A' for Active; 'I' for Inactive)
REMARK    1  A    between atoms: _2  and  _9
REMARK    2  A    between atoms: _6  and  _7
REMARK    3  A    between atoms: _6  and  _22
REMARK    4  A    between atoms: _11  and  _12
REMARK    5  A    between atoms: _12  and  _20
REMARK    6  A    between atoms: _13  and  _14
REMARK    7  A    between atoms: _22  and  _24
REMARK    8  A    between atoms: _23  and  _28
REMARK    9  A    between atoms: _24  and  _27
REMARK   10  A    between atoms: _32  and  _42
REMARK   11  A    between atoms: _34  and  _35
REMARK   12  A    between atoms: _36  and  _38
REMARK   13  A    between atoms: _38  and  _40
REMARK   14  A    between atoms: _40  and  _42
REMARK                            x       y       z     vdW  Elec       q    Type
REMARK                         _______ _______ _______ _____ _____    ______ ____
ROOT
ATOM      1  O   UNL     1      25.970   8.739   0.574  0.00  0.00    -0.450 OA
ENDROOT
BRANCH   1   2
ATOM      2  C   UNL     1      25.315   9.210  -0.436  0.00  0.00    +0.400 C 
ATOM      3  N   UNL     1      26.070   9.852  -1.389  0.00  0.00    -0.278 N 
ATOM      4  H   UNL     1      25.387   9.980  -2.201  0.00  0.00    +0.152 HD
ATOM      5  O   UNL     1      24.105   9.109  -0.627  0.00  0.00    -0.226 OA
BRANCH   3   6
ATOM      6  C   UNL     1      27.352  10.436  -1.775  0.00  0.00    +0.152 C 
BRANCH   6   7
ATOM      7  C   UNL     1      27.342  11.944  -2.099  0.00  0.00    +0.193 C 
ATOM      8  O   UNL     1      28.597  12.237  -2.751  0.00  0.00    -0.219 OA
BRANCH   7   9
ATOM      9  C   UNL     1      26.268  12.456  -3.083  0.00  0.00    +0.212 C 
ATOM     10  O   UNL     1      25.912  11.426  -4.019  0.00  0.00    -0.218 OA
BRANCH   9  11
ATOM     11  C   UNL     1      24.957  12.962  -2.368  0.00  0.00    +0.171 C 
ATOM     12  O   UNL     1      23.937  11.969  -2.327  0.00  0.00    -0.343 OA
ATOM     13  C   UNL     1      22.608  12.218  -1.977  0.00  0.00    +0.220 C 
ATOM     14  C   UNL     1      22.022  13.402  -2.766  0.00  0.00    +0.076 C 
ATOM     15  C   UNL     1      22.974  14.595  -2.583  0.00  0.00    +0.177 C 
ATOM     16  O   UNL     1      22.458  15.731  -3.262  0.00  0.00    -0.221 OA
ATOM     17  C   UNL     1      24.401  14.228  -3.097  0.00  0.00    +0.155 C 
BRANCH  17  18
ATOM     18  N   UNL     1      25.307  15.362  -2.932  0.00  0.00    -0.202 NA
ATOM     19  C   UNL     1      25.909  16.135  -3.871  0.00  0.00    +0.242 C 
ATOM     20  C   UNL     1      26.558  17.421  -3.430  0.00  0.00    +0.096 C 
ATOM     21  O   UNL     1      25.911  15.774  -5.046  0.00  0.00    -0.273 OA
ENDBRANCH  17  18
BRANCH  13  22
ATOM     22  C   UNL     1      22.383  12.396  -0.378  0.00  0.00    +0.391 C 
ATOM     23  O   UNL     1      21.047  12.352  -0.208  0.00  0.00    -0.243 OA
ATOM     24  O   UNL     1      23.583  12.217   0.187  0.00  0.00    -0.243 OA
ENDBRANCH  13  22
ENDBRANCH   9  11
ENDBRANCH   7   9
ENDBRANCH   6   7
ENDBRANCH   3   6
ENDBRANCH   1   2
BRANCH   1  25
ATOM     25  C   UNL     1      25.897   8.724   1.981  0.00  0.00    +0.240 C 
BRANCH  25  26
ATOM     26  C   UNL     1      27.075   9.340   2.759  0.00  0.00    +0.100 C 
BRANCH  26  28
ATOM     27  N   UNL     1      26.461  11.726   2.472  0.00  0.00    -0.134 NA
ATOM     28  C   UNL     1      27.351  10.709   2.283  0.00  0.00    +0.086 A 
ATOM     29  C   UNL     1      28.451  11.194   1.617  0.00  0.00    +0.139 A 
ATOM     30  N   UNL     1      28.184  12.527   1.410  0.00  0.00    -0.220 N 
ATOM     31  N   UNL     1      26.975  12.830   1.941  0.00  0.00    -0.061 NA
BRANCH  30  32
ATOM     32  C   UNL     1      28.987  13.496   0.763  0.00  0.00    +0.071 A 
ATOM     33  C   UNL     1      28.499  14.781   0.548  0.00  0.00    +0.063 A 
ATOM     34  CA  UNL     1      29.332  15.680  -0.089  0.00  0.00    +0.150 A 
ATOM     35  N   UNL     1      30.592  15.399  -0.529  0.00  0.00    -0.240 NA
ATOM     36  C   UNL     1      31.056  14.135  -0.326  0.00  0.00    +0.074 A 
ATOM     37  C   UNL     1      30.281  13.171   0.327  0.00  0.00    +0.056 A 
BRANCH  36  38
ATOM     38  C   UNL     1      32.410  13.857  -0.864  0.00  0.00    +0.000 A 
ATOM     39  C   UNL     1      33.578  14.105  -0.116  0.00  0.00    +0.010 A 
ATOM     40  C   UNL     1      34.849  13.804  -0.619  0.00  0.00    +0.001 A 
ATOM     41  C   UNL     1      34.984  13.246  -1.887  0.00  0.00    +0.000 A 
ATOM     42  C   UNL     1      33.851  12.997  -2.652  0.00  0.00    +0.001 A 
ATOM     43  C   UNL     1      32.581  13.300  -2.146  0.00  0.00    +0.010 A 
ENDBRANCH  36  38
BRANCH  34  44
ATOM     44  C   UNL     1      28.851  17.069  -0.342  0.00  0.00    +0.355 C 
ATOM     45  OXT UNL     1      29.320  17.820  -1.179  0.00  0.00    -0.243 OA
BRANCH  44  46
ATOM     46  O   UNL     1      27.828  17.380   0.488  0.00  0.00    -0.476 OA
ATOM     47  H   UNL     1      27.312  18.121   0.095  0.00  0.00    +0.295 HD
ENDBRANCH  44  46
ENDBRANCH  34  44
ENDBRANCH  30  32
ENDBRANCH  26  28
ENDBRANCH  25  26
ENDBRANCH   1  25
TORSDOF 14
