REMARK VINA RESULT:    -7.745      1.924      3.540
REMARK INTER + INTRA:         -16.125
REMARK INTER:                 -13.922
REMARK INTRA:                  -2.203
REMARK UNBOUND:                -2.494
REMARK  Name = lig_assembled_79.pdb
REMARK  15 active torsions:
REMARK  status: ('A' for Active; 'I' for Inactive)
REMARK    1  A    between atoms: _2  and  _9
REMARK    2  A    between atoms: _6  and  _7
REMARK    3  A    between atoms: _6  and  _21
REMARK    4  A    between atoms: _9  and  _10
REMARK    5  A    between atoms: _9  and  _11
REMARK    6  A    between atoms: _9  and  _12
REMARK    7  A    between atoms: _12  and  _13
REMARK    8  A    between atoms: _21  and  _23
REMARK    9  A    between atoms: _22  and  _27
REMARK   10  A    between atoms: _23  and  _26
REMARK   11  A    between atoms: _31  and  _41
REMARK   12  A    between atoms: _33  and  _34
REMARK   13  A    between atoms: _35  and  _37
REMARK   14  A    between atoms: _37  and  _39
REMARK   15  A    between atoms: _39  and  _41
REMARK                            x       y       z     vdW  Elec       q    Type
REMARK                         _______ _______ _______ _____ _____    ______ ____
ROOT
ATOM      1  O   UNL     1      27.761  16.925  -1.975  0.00  0.00    -0.450 OA
ENDROOT
BRANCH   1   2
ATOM      2  C   UNL     1      28.086  17.184  -0.751  0.00  0.00    +0.400 C 
ATOM      3  N   UNL     1      28.578  16.123  -0.028  0.00  0.00    -0.278 N 
ATOM      4  H   UNL     1      28.959  16.583   0.858  0.00  0.00    +0.152 HD
ATOM      5  O   UNL     1      28.023  18.280  -0.200  0.00  0.00    -0.226 OA
BRANCH   3   6
ATOM      6  C   UNL     1      28.795  14.682   0.076  0.00  0.00    +0.152 C 
BRANCH   6   7
ATOM      7  C   UNL     1      29.806  14.223   1.147  0.00  0.00    +0.193 C 
ATOM      8  O   UNL     1      30.031  12.813   0.927  0.00  0.00    -0.219 OA
BRANCH   7   9
ATOM      9  C   UNL     1      31.217  14.849   1.112  0.00  0.00    +0.212 C 
ATOM     10  O   UNL     1      31.206  16.147   1.729  0.00  0.00    -0.218 OA
BRANCH   9  11
ATOM     11  C   UNL     1      32.311  13.963   1.823  0.00  0.00    +0.171 C 
ATOM     12  O   UNL     1      32.741  14.515   3.063  0.00  0.00    -0.343 OA
ATOM     13  C   UNL     1      33.859  14.075   3.776  0.00  0.00    +0.220 C 
ATOM     14  C   UNL     1      35.110  13.997   2.884  0.00  0.00    +0.076 C 
ATOM     15  C   UNL     1      34.750  13.147   1.655  0.00  0.00    +0.177 C 
ATOM     16  O   UNL     1      35.887  13.010   0.814  0.00  0.00    -0.221 OA
ATOM     17  C   UNL     1      33.552  13.789   0.888  0.00  0.00    +0.155 C 
BRANCH  17  18
ATOM     18  N   UNL     1      33.212  12.988  -0.284  0.00  0.00    -0.202 NA
ATOM     19  C   UNL     1      33.081  13.361  -1.583  0.00  0.00    +0.242 C 
ATOM     20  C   UNL     1      33.013  12.284  -2.634  0.00  0.00    +0.096 C 
ATOM     21  O   UNL     1      33.024  14.556  -1.868  0.00  0.00    -0.273 OA
ENDBRANCH  17  18
BRANCH  13  22
ATOM     22  C   UNL     1      33.609  12.683   4.576  0.00  0.00    +0.391 C 
ATOM     23  O   UNL     1      34.839  12.262   4.932  0.00  0.00    -0.243 OA
ATOM     24  O   UNL     1      32.297  12.638   4.839  0.00  0.00    -0.243 OA
ENDBRANCH  13  22
ENDBRANCH   9  11
ENDBRANCH   7   9
ENDBRANCH   6   7
ENDBRANCH   3   6
ENDBRANCH   1   2
BRANCH   1  25
ATOM     25  C   UNL     1      26.651  17.046  -2.834  0.00  0.00    +0.240 C 
BRANCH  25  26
ATOM     26  C   UNL     1      26.761  16.410  -4.232  0.00  0.00    +0.100 C 
BRANCH  26  28
ATOM     27  N   UNL     1      25.476  14.866  -5.662  0.00  0.00    -0.134 NA
ATOM     28  C   UNL     1      25.555  15.614  -4.524  0.00  0.00    +0.086 A 
ATOM     29  C   UNL     1      24.388  15.476  -3.809  0.00  0.00    +0.134 A 
ATOM     30  N   UNL     1      23.661  14.556  -4.512  0.00  0.00    -0.238 N 
ATOM     31  N   UNL     1      24.299  14.259  -5.672  0.00  0.00    -0.065 NA
BRANCH  30  32
ATOM     32  C   UNL     1      22.279  14.034  -4.300  0.00  0.00    +0.122 C 
ATOM     33  C   UNL     1      22.367  12.494  -4.425  0.00  0.00    +0.044 C 
ATOM     34  C   UNL     1      21.424  14.721  -5.383  0.00  0.00    +0.044 C 
BRANCH  32  35
ATOM     35  C   UNL     1      21.710  14.351  -2.901  0.00  0.00    +0.192 C 
ATOM     36  O   UNL     1      21.098  15.404  -2.702  0.00  0.00    -0.289 OA
BRANCH  35  37
ATOM     37  C   UNL     1      21.882  13.435  -1.737  0.00  0.00    +0.045 A 
ATOM     38  C   UNL     1      20.763  12.921  -1.089  0.00  0.00    +0.095 A 
ATOM     39  N   UNL     1      21.155  12.138  -0.047  0.00  0.00    -0.360 N 
ATOM     40  H   UNL     1      20.533  11.656   0.589  0.00  0.00    +0.165 HD
ATOM     41  C   UNL     1      22.523  12.104   0.026  0.00  0.00    +0.047 A 
ATOM     42  C   UNL     1      23.338  11.431   0.948  0.00  0.00    +0.026 A 
ATOM     43  C   UNL     1      24.721  11.556   0.821  0.00  0.00    +0.002 A 
ATOM     44  C   UNL     1      25.266  12.323  -0.196  0.00  0.00    +0.001 A 
ATOM     45  C   UNL     1      24.436  12.986  -1.107  0.00  0.00    +0.011 A 
ATOM     46  C   UNL     1      23.023  12.895  -1.018  0.00  0.00    +0.010 A 
ENDBRANCH  35  37
ENDBRANCH  32  35
ENDBRANCH  30  32
ENDBRANCH  26  28
ENDBRANCH  25  26
ENDBRANCH   1  25
TORSDOF 13
