REMARK VINA RESULT:    -7.033      2.655      5.648
REMARK INTER + INTRA:         -12.973
REMARK INTER:                 -10.869
REMARK INTRA:                  -2.104
REMARK UNBOUND:                -1.418
REMARK  Name = lig_assembled_20.pdb
REMARK  11 active torsions:
REMARK  status: ('A' for Active; 'I' for Inactive)
REMARK    1  A    between atoms: _2  and  _10
REMARK    2  A    between atoms: _7  and  _8
REMARK    3  A    between atoms: _7  and  _16
REMARK    4  A    between atoms: _16  and  _18
REMARK    5  A    between atoms: _17  and  _22
REMARK    6  A    between atoms: _18  and  _21
REMARK    7  A    between atoms: _26  and  _36
REMARK    8  A    between atoms: _28  and  _29
REMARK    9  A    between atoms: _30  and  _32
REMARK   10  A    between atoms: _32  and  _34
REMARK   11  A    between atoms: _34  and  _36
REMARK                            x       y       z     vdW  Elec       q    Type
REMARK                         _______ _______ _______ _____ _____    ______ ____
ROOT
ATOM      1  C   UNL     1      24.140  10.856   2.698  0.00  0.00    +0.400 C 
ATOM      2  N   UNL     1      25.384  11.254   2.268  0.00  0.00    -0.278 N 
ATOM      3  H   UNL     1      26.046  10.581   2.769  0.00  0.00    +0.152 HD
ATOM      4  O   UNL     1      24.055   9.810   3.337  0.00  0.00    -0.226 OA
ENDROOT
BRANCH   1   5
ATOM      5  O   UNL     1      23.166  11.654   2.407  0.00  0.00    -0.450 OA
BRANCH   5   6
ATOM      6  C   UNL     1      21.893  11.610   1.805  0.00  0.00    +0.240 C 
BRANCH   6   7
ATOM      7  C   UNL     1      21.773  10.894   0.446  0.00  0.00    +0.100 C 
BRANCH   7   9
ATOM      8  N   UNL     1      21.137  12.326  -1.477  0.00  0.00    -0.134 NA
ATOM      9  C   UNL     1      22.101  11.818  -0.655  0.00  0.00    +0.086 A 
ATOM     10  C   UNL     1      23.325  12.309  -1.045  0.00  0.00    +0.139 A 
ATOM     11  N   UNL     1      23.060  13.124  -2.121  0.00  0.00    -0.220 N 
ATOM     12  N   UNL     1      21.726  13.119  -2.364  0.00  0.00    -0.061 NA
BRANCH  11  13
ATOM     13  C   UNL     1      23.973  13.882  -2.900  0.00  0.00    +0.068 A 
ATOM     14  C   UNL     1      24.210  13.529  -4.238  0.00  0.00    +0.030 A 
ATOM     15  C   UNL     1      25.102  14.258  -5.037  0.00  0.00    +0.030 A 
ATOM     16  C   UNL     1      25.744  15.349  -4.444  0.00  0.00    +0.066 A 
ATOM     17  C   UNL     1      25.533  15.723  -3.124  0.00  0.00    +0.021 A 
ATOM     18  C   UNL     1      26.361  16.850  -2.935  0.00  0.00    +0.142 A 
ATOM     19  N   UNL     1      27.045  17.176  -4.034  0.00  0.00    -0.181 NA
ATOM     20  N   UNL     1      26.651  16.254  -4.931  0.00  0.00    -0.277 N 
ATOM     21  H   UNL     1      27.042  16.294  -5.865  0.00  0.00    +0.189 HD
ATOM     22  C   UNL     1      24.636  14.984  -2.330  0.00  0.00    +0.039 A 
ENDBRANCH  11  13
ENDBRANCH   7   9
ENDBRANCH   6   7
ENDBRANCH   5   6
ENDBRANCH   1   5
BRANCH   2  23
ATOM     23  C   UNL     1      26.187  12.153   1.443  0.00  0.00    +0.152 C 
BRANCH  23  24
ATOM     24  C   UNL     1      27.449  12.740   2.107  0.00  0.00    +0.193 C 
ATOM     25  O   UNL     1      27.065  13.149   3.439  0.00  0.00    -0.219 OA
BRANCH  24  26
ATOM     26  C   UNL     1      28.649  11.793   2.326  0.00  0.00    +0.212 C 
ATOM     27  O   UNL     1      28.473  10.579   1.579  0.00  0.00    -0.218 OA
BRANCH  26  28
ATOM     28  C   UNL     1      30.032  12.435   1.927  0.00  0.00    +0.171 C 
ATOM     29  O   UNL     1      30.721  12.990   3.042  0.00  0.00    -0.343 OA
ATOM     30  C   UNL     1      31.837  13.824   2.944  0.00  0.00    +0.220 C 
ATOM     31  C   UNL     1      31.595  14.988   1.968  0.00  0.00    +0.076 C 
ATOM     32  C   UNL     1      31.119  14.384   0.636  0.00  0.00    +0.177 C 
ATOM     33  O   UNL     1      30.918  15.418  -0.317  0.00  0.00    -0.221 OA
ATOM     34  C   UNL     1      29.815  13.555   0.858  0.00  0.00    +0.155 C 
BRANCH  34  35
ATOM     35  N   UNL     1      29.356  12.985  -0.406  0.00  0.00    -0.202 NA
ATOM     36  C   UNL     1      28.458  13.470  -1.301  0.00  0.00    +0.242 C 
ATOM     37  C   UNL     1      28.386  12.828  -2.662  0.00  0.00    +0.096 C 
ATOM     38  O   UNL     1      27.732  14.411  -0.985  0.00  0.00    -0.273 OA
ENDBRANCH  34  35
BRANCH  30  39
ATOM     39  C   UNL     1      33.211  13.029   2.596  0.00  0.00    +0.391 C 
ATOM     40  O   UNL     1      34.064  13.980   2.169  0.00  0.00    -0.243 OA
ATOM     41  O   UNL     1      33.081  11.811   3.137  0.00  0.00    -0.243 OA
ENDBRANCH  30  39
ENDBRANCH  26  28
ENDBRANCH  24  26
ENDBRANCH  23  24
ENDBRANCH   2  23
TORSDOF 11
