REMARK VINA RESULT:    -6.798      1.793      2.116
REMARK INTER + INTRA:         -12.954
REMARK INTER:                 -11.820
REMARK INTRA:                  -1.135
REMARK UNBOUND:                -1.188
REMARK  Name = lig_assembled_35.pdb
REMARK  14 active torsions:
REMARK  status: ('A' for Active; 'I' for Inactive)
REMARK    1  A    between atoms: _2  and  _8
REMARK    2  A    between atoms: _4  and  _8
REMARK    3  A    between atoms: _4  and  _10
REMARK    4  A    between atoms: _5  and  _6
REMARK    5  A    between atoms: _5  and  _12
REMARK    6  A    between atoms: _8  and  _9
REMARK    7  A    between atoms: _12  and  _14
REMARK    8  A    between atoms: _13  and  _18
REMARK    9  A    between atoms: _14  and  _17
REMARK   10  A    between atoms: _22  and  _32
REMARK   11  A    between atoms: _24  and  _25
REMARK   12  A    between atoms: _26  and  _28
REMARK   13  A    between atoms: _28  and  _30
REMARK   14  A    between atoms: _30  and  _32
REMARK                            x       y       z     vdW  Elec       q    Type
REMARK                         _______ _______ _______ _____ _____    ______ ____
ROOT
ATOM      1  C   UNL     1      30.534  16.584  -0.043  0.00  0.00    +0.152 C 
ENDROOT
BRANCH   1   3
ATOM      2  C   UNL     1      28.086  17.721  -0.441  0.00  0.00    +0.400 C 
ATOM      3  N   UNL     1      29.275  17.308   0.112  0.00  0.00    -0.278 N 
ATOM      4  H   UNL     1      29.233  17.695   1.107  0.00  0.00    +0.152 HD
ATOM      5  O   UNL     1      27.244  18.219   0.302  0.00  0.00    -0.226 OA
BRANCH   2   6
ATOM      6  O   UNL     1      27.980  17.568  -1.720  0.00  0.00    -0.450 OA
BRANCH   6   7
ATOM      7  C   UNL     1      27.036  17.771  -2.746  0.00  0.00    +0.240 C 
BRANCH   7   8
ATOM      8  C   UNL     1      27.104  16.837  -3.969  0.00  0.00    +0.100 C 
BRANCH   8  10
ATOM      9  N   UNL     1      25.575  15.360  -5.235  0.00  0.00    -0.134 NA
ATOM     10  C   UNL     1      25.853  16.067  -4.095  0.00  0.00    +0.086 A 
ATOM     11  C   UNL     1      24.814  15.910  -3.205  0.00  0.00    +0.134 A 
ATOM     12  N   UNL     1      23.942  15.087  -3.856  0.00  0.00    -0.238 N 
ATOM     13  N   UNL     1      24.394  14.778  -5.084  0.00  0.00    -0.065 NA
BRANCH  12  14
ATOM     14  C   UNL     1      22.659  14.568  -3.423  0.00  0.00    +0.214 C 
ATOM     15  C   UNL     1      22.619  14.406  -1.906  0.00  0.00    +0.045 C 
BRANCH  14  16
ATOM     16  C   UNL     1      21.515  15.417  -3.938  0.00  0.00    +0.329 C 
ATOM     17  O   UNL     1      20.928  15.220  -4.993  0.00  0.00    -0.249 OA
BRANCH  16  18
ATOM     18  O   UNL     1      21.191  16.463  -3.137  0.00  0.00    -0.479 OA
ATOM     19  H   UNL     1      21.931  17.052  -2.886  0.00  0.00    +0.295 HD
ENDBRANCH  16  18
ENDBRANCH  14  16
ENDBRANCH  12  14
ENDBRANCH   8  10
ENDBRANCH   7   8
ENDBRANCH   6   7
ENDBRANCH   2   6
ENDBRANCH   1   3
BRANCH   1  20
ATOM     20  C   UNL     1      30.441  15.045  -0.011  0.00  0.00    +0.193 C 
ATOM     21  O   UNL     1      29.477  14.666  -1.019  0.00  0.00    -0.219 OA
BRANCH  20  22
ATOM     22  C   UNL     1      31.711  14.244  -0.373  0.00  0.00    +0.212 C 
ATOM     23  O   UNL     1      32.635  15.070  -1.099  0.00  0.00    -0.218 OA
BRANCH  22  24
ATOM     24  C   UNL     1      32.450  13.645   0.884  0.00  0.00    +0.171 C 
ATOM     25  O   UNL     1      32.367  14.493   2.025  0.00  0.00    -0.343 OA
ATOM     26  C   UNL     1      33.126  14.330   3.186  0.00  0.00    +0.220 C 
ATOM     27  C   UNL     1      34.625  14.181   2.871  0.00  0.00    +0.076 C 
ATOM     28  C   UNL     1      34.770  13.051   1.839  0.00  0.00    +0.177 C 
ATOM     29  O   UNL     1      36.144  12.844   1.542  0.00  0.00    -0.221 OA
ATOM     30  C   UNL     1      33.957  13.392   0.551  0.00  0.00    +0.155 C 
BRANCH  30  31
ATOM     31  N   UNL     1      34.098  12.324  -0.435  0.00  0.00    -0.202 NA
ATOM     32  C   UNL     1      34.873  12.268  -1.549  0.00  0.00    +0.242 C 
ATOM     33  C   UNL     1      35.053  10.936  -2.229  0.00  0.00    +0.096 C 
ATOM     34  O   UNL     1      35.404  13.293  -1.971  0.00  0.00    -0.273 OA
ENDBRANCH  30  31
BRANCH  26  35
ATOM     35  C   UNL     1      32.594  13.130   4.143  0.00  0.00    +0.391 C 
ATOM     36  O   UNL     1      33.574  12.949   5.050  0.00  0.00    -0.243 OA
ATOM     37  O   UNL     1      31.292  12.986   3.867  0.00  0.00    -0.243 OA
ENDBRANCH  26  35
ENDBRANCH  22  24
ENDBRANCH  20  22
ENDBRANCH   1  20
TORSDOF 13
