REMARK VINA RESULT:    -6.106      3.004      8.282
REMARK INTER + INTRA:         -13.056
REMARK INTER:                 -10.987
REMARK INTRA:                  -2.070
REMARK UNBOUND:                -1.953
REMARK  Name = lig_assembled_13.pdb
REMARK  15 active torsions:
REMARK  status: ('A' for Active; 'I' for Inactive)
REMARK    1  A    between atoms: _2  and  _8
REMARK    2  A    between atoms: _4  and  _10
REMARK    3  A    between atoms: _5  and  _6
REMARK    4  A    between atoms: _5  and  _13
REMARK    5  A    between atoms: _8  and  _9
REMARK    6  A    between atoms: _9  and  _11
REMARK    7  A    between atoms: _10  and  _11
REMARK    8  A    between atoms: _13  and  _15
REMARK    9  A    between atoms: _14  and  _19
REMARK   10  A    between atoms: _15  and  _18
REMARK   11  A    between atoms: _23  and  _33
REMARK   12  A    between atoms: _25  and  _26
REMARK   13  A    between atoms: _27  and  _29
REMARK   14  A    between atoms: _29  and  _31
REMARK   15  A    between atoms: _31  and  _33
REMARK                            x       y       z     vdW  Elec       q    Type
REMARK                         _______ _______ _______ _____ _____    ______ ____
ROOT
ATOM      1  C   UNL     1      27.101  16.975  -3.301  0.00  0.00    +0.152 C 
ENDROOT
BRANCH   1   3
ATOM      2  C   UNL     1      27.899  17.789  -0.822  0.00  0.00    +0.400 C 
ATOM      3  N   UNL     1      27.145  17.445  -1.919  0.00  0.00    -0.278 N 
ATOM      4  H   UNL     1      26.142  17.618  -1.593  0.00  0.00    +0.152 HD
ATOM      5  O   UNL     1      27.335  18.341   0.119  0.00  0.00    -0.226 OA
BRANCH   2   6
ATOM      6  O   UNL     1      29.149  17.462  -0.877  0.00  0.00    -0.450 OA
BRANCH   6   7
ATOM      7  C   UNL     1      30.247  17.289  -0.012  0.00  0.00    +0.240 C 
BRANCH   7   8
ATOM      8  C   UNL     1      31.049  15.980  -0.135  0.00  0.00    +0.100 C 
BRANCH   8  10
ATOM      9  N   UNL     1      31.094  14.610   1.925  0.00  0.00    -0.134 NA
ATOM     10  C   UNL     1      30.483  14.945   0.748  0.00  0.00    +0.086 A 
ATOM     11  C   UNL     1      29.356  14.175   0.590  0.00  0.00    +0.134 A 
ATOM     12  N   UNL     1      29.371  13.345   1.673  0.00  0.00    -0.241 N 
ATOM     13  N   UNL     1      30.390  13.641   2.496  0.00  0.00    -0.065 NA
BRANCH  12  14
ATOM     14  C   UNL     1      28.410  12.330   2.038  0.00  0.00    +0.265 C 
BRANCH  14  15
ATOM     15  C   UNL     1      27.773  12.612   3.370  0.00  0.00    +0.329 C 
ATOM     16  O   UNL     1      27.332  13.685   3.753  0.00  0.00    -0.249 OA
BRANCH  15  17
ATOM     17  O   UNL     1      27.855  11.489   4.146  0.00  0.00    -0.464 OA
BRANCH  17  18
ATOM     18  C   UNL     1      29.026  11.412   4.974  0.00  0.00    +0.229 C 
ATOM     19  C   UNL     1      28.673  10.589   6.202  0.00  0.00    +0.048 C 
ENDBRANCH  17  18
ENDBRANCH  15  17
ENDBRANCH  14  15
ENDBRANCH  12  14
ENDBRANCH   8  10
ENDBRANCH   7   8
ENDBRANCH   6   7
ENDBRANCH   2   6
ENDBRANCH   1   3
BRANCH   1  20
ATOM     20  C   UNL     1      25.935  16.032  -3.662  0.00  0.00    +0.193 C 
ATOM     21  O   UNL     1      25.917  15.927  -5.103  0.00  0.00    -0.219 OA
BRANCH  20  22
ATOM     22  C   UNL     1      26.018  14.571  -3.169  0.00  0.00    +0.212 C 
ATOM     23  O   UNL     1      26.774  14.495  -1.950  0.00  0.00    -0.218 OA
BRANCH  22  24
ATOM     24  C   UNL     1      24.606  13.912  -2.929  0.00  0.00    +0.171 C 
ATOM     25  O   UNL     1      23.814  14.639  -1.997  0.00  0.00    -0.343 OA
ATOM     26  C   UNL     1      22.635  14.158  -1.421  0.00  0.00    +0.220 C 
ATOM     27  C   UNL     1      22.825  12.755  -0.820  0.00  0.00    +0.076 C 
ATOM     28  C   UNL     1      23.421  11.858  -1.918  0.00  0.00    +0.177 C 
ATOM     29  O   UNL     1      23.580  10.535  -1.426  0.00  0.00    -0.221 OA
ATOM     30  C   UNL     1      24.779  12.446  -2.413  0.00  0.00    +0.155 C 
BRANCH  30  31
ATOM     31  N   UNL     1      25.352  11.593  -3.451  0.00  0.00    -0.202 NA
ATOM     32  C   UNL     1      26.504  10.875  -3.446  0.00  0.00    +0.242 C 
ATOM     33  C   UNL     1      26.712   9.849  -4.530  0.00  0.00    +0.096 C 
ATOM     34  O   UNL     1      27.340  11.074  -2.567  0.00  0.00    -0.273 OA
ENDBRANCH  30  31
BRANCH  26  35
ATOM     35  C   UNL     1      21.357  14.211  -2.422  0.00  0.00    +0.391 C 
ATOM     36  O   UNL     1      20.515  13.266  -1.962  0.00  0.00    -0.243 OA
ATOM     37  O   UNL     1      21.481  15.347  -3.121  0.00  0.00    -0.243 OA
ENDBRANCH  26  35
ENDBRANCH  22  24
ENDBRANCH  20  22
ENDBRANCH   1  20
TORSDOF 14
