REMARK VINA RESULT:    -6.209      3.014      8.865
REMARK INTER + INTRA:         -14.169
REMARK INTER:                 -11.040
REMARK INTRA:                  -3.129
REMARK UNBOUND:                -2.880
REMARK  Name = lig_assembled_21.pdb
REMARK  15 active torsions:
REMARK  status: ('A' for Active; 'I' for Inactive)
REMARK    1  A    between atoms: _2  and  _8
REMARK    2  A    between atoms: _5  and  _6
REMARK    3  A    between atoms: _5  and  _18
REMARK    4  A    between atoms: _8  and  _9
REMARK    5  A    between atoms: _10  and  _17
REMARK    6  A    between atoms: _11  and  _12
REMARK    7  A    between atoms: _11  and  _17
REMARK    8  A    between atoms: _18  and  _20
REMARK    9  A    between atoms: _19  and  _24
REMARK   10  A    between atoms: _20  and  _23
REMARK   11  A    between atoms: _28  and  _38
REMARK   12  A    between atoms: _30  and  _31
REMARK   13  A    between atoms: _32  and  _34
REMARK   14  A    between atoms: _34  and  _36
REMARK   15  A    between atoms: _36  and  _38
REMARK                            x       y       z     vdW  Elec       q    Type
REMARK                         _______ _______ _______ _____ _____    ______ ____
ROOT
ATOM      1  C   UNL     1      27.935  17.770  -1.006  0.00  0.00    +0.400 C 
ATOM      2  N   UNL     1      27.182  17.587  -2.142  0.00  0.00    -0.278 N 
ATOM      3  H   UNL     1      26.228  17.985  -1.873  0.00  0.00    +0.152 HD
ATOM      4  O   UNL     1      27.461  18.449  -0.099  0.00  0.00    -0.226 OA
ENDROOT
BRANCH   2   5
ATOM      5  C   UNL     1      27.107  17.117  -3.523  0.00  0.00    +0.152 C 
BRANCH   5   6
ATOM      6  C   UNL     1      26.018  16.068  -3.826  0.00  0.00    +0.193 C 
ATOM      7  O   UNL     1      26.017  15.871  -5.257  0.00  0.00    -0.219 OA
BRANCH   6   8
ATOM      8  C   UNL     1      26.209  14.651  -3.242  0.00  0.00    +0.212 C 
ATOM      9  O   UNL     1      26.928  14.712  -1.999  0.00  0.00    -0.218 OA
BRANCH   8  10
ATOM     10  C   UNL     1      24.851  13.886  -3.001  0.00  0.00    +0.171 C 
ATOM     11  O   UNL     1      23.930  14.640  -2.219  0.00  0.00    -0.343 OA
ATOM     12  C   UNL     1      22.763  14.118  -1.656  0.00  0.00    +0.220 C 
ATOM     13  C   UNL     1      23.039  12.826  -0.867  0.00  0.00    +0.076 C 
ATOM     14  C   UNL     1      23.793  11.865  -1.801  0.00  0.00    +0.177 C 
ATOM     15  O   UNL     1      24.039  10.636  -1.133  0.00  0.00    -0.221 OA
ATOM     16  C   UNL     1      25.122  12.521  -2.288  0.00  0.00    +0.155 C 
BRANCH  16  17
ATOM     17  N   UNL     1      25.845  11.609  -3.171  0.00  0.00    -0.202 NA
ATOM     18  C   UNL     1      27.049  11.007  -2.999  0.00  0.00    +0.242 C 
ATOM     19  C   UNL     1      27.427   9.884  -3.930  0.00  0.00    +0.096 C 
ATOM     20  O   UNL     1      27.795  11.386  -2.098  0.00  0.00    -0.273 OA
ENDBRANCH  16  17
BRANCH  12  21
ATOM     21  C   UNL     1      21.560  13.916  -2.729  0.00  0.00    +0.391 C 
ATOM     22  O   UNL     1      20.667  13.124  -2.105  0.00  0.00    -0.243 OA
ATOM     23  O   UNL     1      21.759  14.833  -3.684  0.00  0.00    -0.243 OA
ENDBRANCH  12  21
ENDBRANCH   8  10
ENDBRANCH   6   8
ENDBRANCH   5   6
ENDBRANCH   2   5
BRANCH   1  24
ATOM     24  O   UNL     1      29.081  17.171  -0.991  0.00  0.00    -0.450 OA
BRANCH  24  25
ATOM     25  C   UNL     1      29.885  16.425  -0.107  0.00  0.00    +0.240 C 
BRANCH  25  26
ATOM     26  C   UNL     1      29.255  15.183   0.551  0.00  0.00    +0.100 C 
BRANCH  26  28
ATOM     27  N   UNL     1      30.430  13.099   1.173  0.00  0.00    -0.134 NA
ATOM     28  C   UNL     1      30.026  13.975   0.203  0.00  0.00    +0.086 A 
ATOM     29  C   UNL     1      30.428  13.502  -1.026  0.00  0.00    +0.134 A 
ATOM     30  N   UNL     1      30.993  12.287  -0.745  0.00  0.00    -0.247 N 
ATOM     31  N   UNL     1      31.022  12.073   0.582  0.00  0.00    -0.065 NA
BRANCH  30  32
ATOM     32  C   UNL     1      31.427  11.297  -1.725  0.00  0.00    +0.184 C 
BRANCH  32  33
ATOM     33  C   UNL     1      31.675  11.819  -3.119  0.00  0.00    +0.016 A 
ATOM     34  C   UNL     1      32.889  12.431  -3.479  0.00  0.00    +0.137 A 
ATOM     35  C   UNL     1      33.100  12.904  -4.774  0.00  0.00    +0.047 A 
ATOM     36  C   UNL     1      32.100  12.755  -5.736  0.00  0.00    +0.004 A 
ATOM     37  C   UNL     1      30.886  12.164  -5.396  0.00  0.00    +0.001 A 
ATOM     38  C   UNL     1      30.674  11.697  -4.098  0.00  0.00    +0.009 A 
BRANCH  34  39
ATOM     39  O   UNL     1      33.840  12.618  -2.448  0.00  0.00    -0.426 OA
BRANCH  39  40
ATOM     40  C   UNL     1      34.038  13.850  -1.821  0.00  0.00    +0.309 C 
ATOM     41  O   UNL     1      33.376  14.869  -1.966  0.00  0.00    -0.251 OA
ATOM     42  C   UNL     1      35.175  13.725  -0.850  0.00  0.00    +0.136 C 
ENDBRANCH  39  40
ENDBRANCH  34  39
ENDBRANCH  32  33
ENDBRANCH  30  32
ENDBRANCH  26  28
ENDBRANCH  25  26
ENDBRANCH  24  25
ENDBRANCH   1  24
TORSDOF 14
