REMARK VINA RESULT:    -6.913      3.302      9.753
REMARK INTER + INTRA:         -13.682
REMARK INTER:                 -10.965
REMARK INTRA:                  -2.717
REMARK UNBOUND:                -1.919
REMARK  Name = lig_assembled_41.pdb
REMARK  13 active torsions:
REMARK  status: ('A' for Active; 'I' for Inactive)
REMARK    1  A    between atoms: _2  and  _8
REMARK    2  A    between atoms: _5  and  _6
REMARK    3  A    between atoms: _5  and  _16
REMARK    4  A    between atoms: _9  and  _10
REMARK    5  A    between atoms: _10  and  _11
REMARK    6  A    between atoms: _16  and  _18
REMARK    7  A    between atoms: _17  and  _22
REMARK    8  A    between atoms: _18  and  _21
REMARK    9  A    between atoms: _26  and  _36
REMARK   10  A    between atoms: _28  and  _29
REMARK   11  A    between atoms: _30  and  _32
REMARK   12  A    between atoms: _32  and  _34
REMARK   13  A    between atoms: _34  and  _36
REMARK                            x       y       z     vdW  Elec       q    Type
REMARK                         _______ _______ _______ _____ _____    ______ ____
ROOT
ATOM      1  C   UNL     1      32.633  13.040   1.585  0.00  0.00    +0.400 C 
ATOM      2  N   UNL     1      31.525  13.855   1.562  0.00  0.00    -0.278 N 
ATOM      3  H   UNL     1      30.711  13.164   1.515  0.00  0.00    +0.152 HD
ATOM      4  O   UNL     1      32.460  11.832   1.727  0.00  0.00    -0.226 OA
ENDROOT
BRANCH   2   5
ATOM      5  C   UNL     1      30.975  15.207   1.588  0.00  0.00    +0.152 C 
BRANCH   5   6
ATOM      6  C   UNL     1      30.441  15.749   0.246  0.00  0.00    +0.193 C 
ATOM      7  O   UNL     1      31.592  16.154  -0.526  0.00  0.00    -0.219 OA
BRANCH   6   8
ATOM      8  C   UNL     1      29.686  14.764  -0.673  0.00  0.00    +0.212 C 
ATOM      9  O   UNL     1      30.569  13.725  -1.127  0.00  0.00    -0.218 OA
BRANCH   8  10
ATOM     10  C   UNL     1      28.436  14.097   0.018  0.00  0.00    +0.171 C 
ATOM     11  O   UNL     1      28.793  13.002   0.855  0.00  0.00    -0.343 OA
ATOM     12  C   UNL     1      27.881  12.088   1.389  0.00  0.00    +0.220 C 
ATOM     13  C   UNL     1      26.947  11.516   0.308  0.00  0.00    +0.076 C 
ATOM     14  C   UNL     1      26.314  12.705  -0.433  0.00  0.00    +0.177 C 
ATOM     15  O   UNL     1      25.408  12.231  -1.419  0.00  0.00    -0.221 OA
ATOM     16  C   UNL     1      27.426  13.598  -1.066  0.00  0.00    +0.155 C 
BRANCH  16  17
ATOM     17  N   UNL     1      26.828  14.725  -1.778  0.00  0.00    -0.202 NA
ATOM     18  C   UNL     1      26.582  14.882  -3.103  0.00  0.00    +0.242 C 
ATOM     19  C   UNL     1      25.689  16.016  -3.535  0.00  0.00    +0.096 C 
ATOM     20  O   UNL     1      27.086  14.105  -3.911  0.00  0.00    -0.273 OA
ENDBRANCH  16  17
BRANCH  12  21
ATOM     21  C   UNL     1      27.044  12.674   2.652  0.00  0.00    +0.391 C 
ATOM     22  O   UNL     1      26.059  11.779   2.861  0.00  0.00    -0.243 OA
ATOM     23  O   UNL     1      27.806  13.636   3.187  0.00  0.00    -0.243 OA
ENDBRANCH  12  21
ENDBRANCH   8  10
ENDBRANCH   6   8
ENDBRANCH   5   6
ENDBRANCH   2   5
BRANCH   1  24
ATOM     24  O   UNL     1      33.769  13.635   1.421  0.00  0.00    -0.450 OA
BRANCH  24  25
ATOM     25  C   UNL     1      35.136  13.417   1.680  0.00  0.00    +0.240 C 
BRANCH  25  26
ATOM     26  C   UNL     1      35.688  13.897   3.036  0.00  0.00    +0.100 C 
BRANCH  26  28
ATOM     27  N   UNL     1      35.421  11.915   4.479  0.00  0.00    -0.134 NA
ATOM     28  C   UNL     1      35.034  13.177   4.142  0.00  0.00    +0.086 A 
ATOM     29  C   UNL     1      34.026  13.580   4.991  0.00  0.00    +0.139 A 
ATOM     30  N   UNL     1      33.752  12.479   5.770  0.00  0.00    -0.219 N 
ATOM     31  N   UNL     1      34.678  11.517   5.500  0.00  0.00    -0.061 NA
BRANCH  30  32
ATOM     32  C   UNL     1      32.790  12.286   6.804  0.00  0.00    +0.077 A 
ATOM     33  C   UNL     1      31.409  12.094   6.590  0.00  0.00    +0.043 A 
ATOM     34  C   UNL     1      30.561  11.965   7.710  0.00  0.00    +0.013 A 
ATOM     35  C   UNL     1      31.062  12.032   9.012  0.00  0.00    +0.001 A 
ATOM     36  C   UNL     1      32.422  12.196   9.222  0.00  0.00    +0.002 A 
ATOM     37  C   UNL     1      33.280  12.311   8.128  0.00  0.00    +0.028 A 
BRANCH  33  38
ATOM     38  C   UNL     1      30.804  11.806   5.253  0.00  0.00    +0.162 C 
ATOM     39  O   UNL     1      30.656  12.725   4.449  0.00  0.00    -0.292 OA
ATOM     40  C   UNL     1      30.384  10.402   4.894  0.00  0.00    +0.091 C 
ENDBRANCH  33  38
ENDBRANCH  30  32
ENDBRANCH  26  28
ENDBRANCH  25  26
ENDBRANCH  24  25
ENDBRANCH   1  24
TORSDOF 12
