REMARK VINA RESULT:    -7.187      3.317      8.194
REMARK INTER + INTRA:         -13.226
REMARK INTER:                 -10.942
REMARK INTRA:                  -2.284
REMARK UNBOUND:                -1.418
REMARK  Name = lig_assembled_20.pdb
REMARK  11 active torsions:
REMARK  status: ('A' for Active; 'I' for Inactive)
REMARK    1  A    between atoms: _2  and  _10
REMARK    2  A    between atoms: _7  and  _8
REMARK    3  A    between atoms: _7  and  _16
REMARK    4  A    between atoms: _16  and  _18
REMARK    5  A    between atoms: _17  and  _22
REMARK    6  A    between atoms: _18  and  _21
REMARK    7  A    between atoms: _26  and  _36
REMARK    8  A    between atoms: _28  and  _29
REMARK    9  A    between atoms: _30  and  _32
REMARK   10  A    between atoms: _32  and  _34
REMARK   11  A    between atoms: _34  and  _36
REMARK                            x       y       z     vdW  Elec       q    Type
REMARK                         _______ _______ _______ _____ _____    ______ ____
ROOT
ATOM      1  C   UNL     1      25.977  15.671  -4.789  0.00  0.00    +0.400 C 
ATOM      2  N   UNL     1      24.865  14.874  -4.648  0.00  0.00    -0.278 N 
ATOM      3  H   UNL     1      24.843  14.317  -5.559  0.00  0.00    +0.152 HD
ATOM      4  O   UNL     1      26.728  15.455  -5.737  0.00  0.00    -0.226 OA
ENDROOT
BRANCH   1   5
ATOM      5  O   UNL     1      26.110  16.608  -3.908  0.00  0.00    -0.450 OA
BRANCH   5   6
ATOM      6  C   UNL     1      27.133  17.331  -3.264  0.00  0.00    +0.240 C 
BRANCH   6   7
ATOM      7  C   UNL     1      27.058  17.455  -1.731  0.00  0.00    +0.100 C 
BRANCH   7   9
ATOM      8  N   UNL     1      29.370  17.725  -0.874  0.00  0.00    -0.134 NA
ATOM      9  C   UNL     1      28.287  16.929  -1.110  0.00  0.00    +0.086 A 
ATOM     10  C   UNL     1      28.570  15.652  -0.685  0.00  0.00    +0.139 A 
ATOM     11  N   UNL     1      29.851  15.714  -0.188  0.00  0.00    -0.220 N 
ATOM     12  N   UNL     1      30.316  16.981  -0.313  0.00  0.00    -0.061 NA
BRANCH  11  13
ATOM     13  C   UNL     1      30.628  14.671   0.381  0.00  0.00    +0.068 A 
ATOM     14  C   UNL     1      31.383  13.829  -0.452  0.00  0.00    +0.030 A 
ATOM     15  C   UNL     1      32.164  12.791   0.077  0.00  0.00    +0.030 A 
ATOM     16  C   UNL     1      32.159  12.632   1.466  0.00  0.00    +0.066 A 
ATOM     17  C   UNL     1      31.421  13.447   2.316  0.00  0.00    +0.021 A 
ATOM     18  C   UNL     1      31.694  12.951   3.609  0.00  0.00    +0.142 A 
ATOM     19  N   UNL     1      32.531  11.913   3.597  0.00  0.00    -0.181 NA
ATOM     20  N   UNL     1      32.798  11.742   2.290  0.00  0.00    -0.277 N 
ATOM     21  H   UNL     1      33.426  10.995   2.020  0.00  0.00    +0.189 HD
ATOM     22  C   UNL     1      30.640  14.484   1.776  0.00  0.00    +0.039 A 
ENDBRANCH  11  13
ENDBRANCH   7   9
ENDBRANCH   6   7
ENDBRANCH   5   6
ENDBRANCH   1   5
BRANCH   2  23
ATOM     23  C   UNL     1      23.737  14.448  -3.824  0.00  0.00    +0.152 C 
BRANCH  23  24
ATOM     24  C   UNL     1      23.780  12.993  -3.313  0.00  0.00    +0.193 C 
ATOM     25  O   UNL     1      24.154  12.168  -4.439  0.00  0.00    -0.219 OA
BRANCH  24  26
ATOM     26  C   UNL     1      24.818  12.649  -2.222  0.00  0.00    +0.212 C 
ATOM     27  O   UNL     1      25.276  13.845  -1.571  0.00  0.00    -0.218 OA
BRANCH  26  28
ATOM     28  C   UNL     1      24.268  11.657  -1.127  0.00  0.00    +0.171 C 
ATOM     29  O   UNL     1      22.866  11.796  -0.917  0.00  0.00    -0.343 OA
ATOM     30  C   UNL     1      22.169  11.225   0.150  0.00  0.00    +0.220 C 
ATOM     31  C   UNL     1      22.837  11.536   1.500  0.00  0.00    +0.076 C 
ATOM     32  C   UNL     1      24.313  11.118   1.393  0.00  0.00    +0.177 C 
ATOM     33  O   UNL     1      24.970  11.348   2.632  0.00  0.00    -0.221 OA
ATOM     34  C   UNL     1      25.008  11.892   0.230  0.00  0.00    +0.155 C 
BRANCH  34  35
ATOM     35  N   UNL     1      26.412  11.502   0.130  0.00  0.00    -0.202 NA
ATOM     36  C   UNL     1      27.508  12.045   0.719  0.00  0.00    +0.242 C 
ATOM     37  C   UNL     1      28.799  11.269   0.681  0.00  0.00    +0.096 C 
ATOM     38  O   UNL     1      27.423  13.143   1.266  0.00  0.00    -0.273 OA
ENDBRANCH  34  35
BRANCH  30  39
ATOM     39  C   UNL     1      21.901   9.633  -0.031  0.00  0.00    +0.391 C 
ATOM     40  O   UNL     1      21.667   9.176   1.215  0.00  0.00    -0.243 OA
ATOM     41  O   UNL     1      21.716   9.435  -1.342  0.00  0.00    -0.243 OA
ENDBRANCH  30  39
ENDBRANCH  26  28
ENDBRANCH  24  26
ENDBRANCH  23  24
ENDBRANCH   2  23
TORSDOF 11
