REMARK VINA RESULT:    -6.523      4.865      7.419
REMARK INTER + INTRA:         -14.783
REMARK INTER:                 -13.455
REMARK INTRA:                  -1.328
REMARK UNBOUND:                -2.540
REMARK  Name = lig_assembled_31.pdb
REMARK  15 active torsions:
REMARK  status: ('A' for Active; 'I' for Inactive)
REMARK    1  A    between atoms: _2  and  _10
REMARK    2  A    between atoms: _3  and  _11
REMARK    3  A    between atoms: _4  and  _13
REMARK    4  A    between atoms: _7  and  _8
REMARK    5  A    between atoms: _7  and  _19
REMARK    6  A    between atoms: _10  and  _11
REMARK    7  A    between atoms: _13  and  _14
REMARK    8  A    between atoms: _19  and  _21
REMARK    9  A    between atoms: _20  and  _25
REMARK   10  A    between atoms: _21  and  _24
REMARK   11  A    between atoms: _29  and  _39
REMARK   12  A    between atoms: _31  and  _32
REMARK   13  A    between atoms: _33  and  _35
REMARK   14  A    between atoms: _35  and  _37
REMARK   15  A    between atoms: _37  and  _39
REMARK                            x       y       z     vdW  Elec       q    Type
REMARK                         _______ _______ _______ _____ _____    ______ ____
ROOT
ATOM      1  C   UNL     1      28.427  17.030  -0.674  0.00  0.00    +0.400 C 
ATOM      2  N   UNL     1      27.460  16.411  -1.431  0.00  0.00    -0.278 N 
ATOM      3  H   UNL     1      26.576  16.969  -1.207  0.00  0.00    +0.152 HD
ATOM      4  O   UNL     1      28.140  18.088  -0.120  0.00  0.00    -0.226 OA
ENDROOT
BRANCH   2   5
ATOM      5  C   UNL     1      27.110  15.368  -2.392  0.00  0.00    +0.152 C 
BRANCH   5   6
ATOM      6  C   UNL     1      25.697  15.456  -3.005  0.00  0.00    +0.193 C 
ATOM      7  O   UNL     1      25.825  16.196  -4.239  0.00  0.00    -0.219 OA
BRANCH   6   8
ATOM      8  C   UNL     1      25.014  14.134  -3.418  0.00  0.00    +0.212 C 
ATOM      9  O   UNL     1      25.993  13.178  -3.857  0.00  0.00    -0.218 OA
BRANCH   8  10
ATOM     10  C   UNL     1      24.160  13.485  -2.263  0.00  0.00    +0.171 C 
ATOM     11  O   UNL     1      24.614  12.182  -1.911  0.00  0.00    -0.343 OA
ATOM     12  C   UNL     1      23.905  11.291  -1.102  0.00  0.00    +0.220 C 
ATOM     13  C   UNL     1      22.450  11.125  -1.576  0.00  0.00    +0.076 C 
ATOM     14  C   UNL     1      21.836  12.530  -1.686  0.00  0.00    +0.177 C 
ATOM     15  O   UNL     1      20.476  12.432  -2.083  0.00  0.00    -0.221 OA
ATOM     16  C   UNL     1      22.658  13.399  -2.688  0.00  0.00    +0.155 C 
BRANCH  16  17
ATOM     17  N   UNL     1      22.073  14.733  -2.800  0.00  0.00    -0.202 NA
ATOM     18  C   UNL     1      21.559  15.367  -3.885  0.00  0.00    +0.242 C 
ATOM     19  C   UNL     1      20.753  16.621  -3.665  0.00  0.00    +0.096 C 
ATOM     20  O   UNL     1      21.758  14.908  -5.008  0.00  0.00    -0.273 OA
ENDBRANCH  16  17
BRANCH  12  21
ATOM     21  C   UNL     1      23.980  11.654   0.480  0.00  0.00    +0.391 C 
ATOM     22  O   UNL     1      22.888  11.078   1.020  0.00  0.00    -0.243 OA
ATOM     23  O   UNL     1      25.219  12.112   0.696  0.00  0.00    -0.243 OA
ENDBRANCH  12  21
ENDBRANCH   8  10
ENDBRANCH   6   8
ENDBRANCH   5   6
ENDBRANCH   2   5
BRANCH   1  24
ATOM     24  O   UNL     1      29.557  16.409  -0.594  0.00  0.00    -0.450 OA
BRANCH  24  25
ATOM     25  C   UNL     1      30.130  15.315   0.084  0.00  0.00    +0.240 C 
BRANCH  25  26
ATOM     26  C   UNL     1      31.181  15.621   1.168  0.00  0.00    +0.100 C 
BRANCH  26  28
ATOM     27  N   UNL     1      30.110  13.904   2.593  0.00  0.00    -0.134 NA
ATOM     28  C   UNL     1      31.249  14.517   2.146  0.00  0.00    +0.086 A 
ATOM     29  C   UNL     1      32.341  13.933   2.749  0.00  0.00    +0.133 A 
ATOM     30  N   UNL     1      31.796  12.980   3.558  0.00  0.00    -0.250 N 
ATOM     31  N   UNL     1      30.457  12.959   3.458  0.00  0.00    -0.065 NA
BRANCH  30  32
ATOM     32  C   UNL     1      32.480  12.063   4.447  0.00  0.00    +0.164 C 
BRANCH  32  33
ATOM     33  C   UNL     1      33.696  12.716   5.086  0.00  0.00    +0.129 C 
BRANCH  33  34
ATOM     34  N   UNL     1      33.455  13.289   6.404  0.00  0.00    -0.298 N 
ATOM     35  H   UNL     1      33.563  14.280   6.564  0.00  0.00    +0.150 HD
ATOM     36  C   UNL     1      33.507  12.458   7.493  0.00  0.00    +0.300 C 
ATOM     37  O   UNL     1      33.648  11.241   7.394  0.00  0.00    -0.253 OA
ATOM     38  N   UNL     1      33.361  13.089   8.690  0.00  0.00    -0.292 N 
ATOM     39  H   UNL     1      33.288  14.093   8.772  0.00  0.00    +0.151 HD
BRANCH  38  40
ATOM     40  C   UNL     1      33.396  12.299   9.897  0.00  0.00    +0.180 C 
BRANCH  40  41
ATOM     41  C   UNL     1      32.055  11.838  10.337  0.00  0.00    +0.122 A 
ATOM     42  O   UNL     1      30.972  12.643  10.120  0.00  0.00    -0.466 OA
ATOM     43  C   UNL     1      29.887  11.984  10.614  0.00  0.00    +0.195 A 
ATOM     44  C   UNL     1      30.256  10.770  11.146  0.00  0.00    +0.041 A 
ATOM     45  C   UNL     1      31.655  10.675  10.969  0.00  0.00    +0.046 A 
ENDBRANCH  40  41
ENDBRANCH  38  40
ENDBRANCH  33  34
ENDBRANCH  32  33
ENDBRANCH  30  32
ENDBRANCH  26  28
ENDBRANCH  25  26
ENDBRANCH  24  25
ENDBRANCH   1  24
TORSDOF 15
