REMARK VINA RESULT:    -6.200      2.573      5.761
REMARK INTER + INTRA:         -13.856
REMARK INTER:                 -11.569
REMARK INTRA:                  -2.286
REMARK UNBOUND:                -1.675
REMARK  Name = lig_assembled_33.pdb
REMARK  17 active torsions:
REMARK  status: ('A' for Active; 'I' for Inactive)
REMARK    1  A    between atoms: _2  and  _8
REMARK    2  A    between atoms: _4  and  _12
REMARK    3  A    between atoms: _4  and  _13
REMARK    4  A    between atoms: _5  and  _6
REMARK    5  A    between atoms: _5  and  _15
REMARK    6  A    between atoms: _8  and  _9
REMARK    7  A    between atoms: _9  and  _10
REMARK    8  A    between atoms: _10  and  _11
REMARK    9  A    between atoms: _11  and  _12
REMARK   10  A    between atoms: _15  and  _17
REMARK   11  A    between atoms: _16  and  _21
REMARK   12  A    between atoms: _17  and  _20
REMARK   13  A    between atoms: _25  and  _35
REMARK   14  A    between atoms: _27  and  _28
REMARK   15  A    between atoms: _29  and  _31
REMARK   16  A    between atoms: _31  and  _33
REMARK   17  A    between atoms: _33  and  _35
REMARK                            x       y       z     vdW  Elec       q    Type
REMARK                         _______ _______ _______ _____ _____    ______ ____
ROOT
ATOM      1  C   UNL     1      27.531  12.896   2.249  0.00  0.00    +0.400 C 
ATOM      2  N   UNL     1      28.371  13.951   1.985  0.00  0.00    -0.278 N 
ATOM      3  H   UNL     1      28.701  14.254   2.956  0.00  0.00    +0.152 HD
ATOM      4  O   UNL     1      27.497  12.455   3.395  0.00  0.00    -0.226 OA
ENDROOT
BRANCH   1   5
ATOM      5  O   UNL     1      26.821  12.482   1.251  0.00  0.00    -0.450 OA
BRANCH   5   6
ATOM      6  C   UNL     1      25.530  11.983   0.993  0.00  0.00    +0.240 C 
BRANCH   6   7
ATOM      7  C   UNL     1      25.273  11.357  -0.392  0.00  0.00    +0.100 C 
BRANCH   7   9
ATOM      8  N   UNL     1      24.350  13.387  -1.461  0.00  0.00    -0.134 NA
ATOM      9  C   UNL     1      25.295  12.396  -1.438  0.00  0.00    +0.086 A 
ATOM     10  C   UNL     1      26.161  12.574  -2.495  0.00  0.00    +0.133 A 
ATOM     11  N   UNL     1      25.692  13.692  -3.115  0.00  0.00    -0.251 N 
ATOM     12  N   UNL     1      24.594  14.168  -2.503  0.00  0.00    -0.065 NA
BRANCH  11  13
ATOM     13  C   UNL     1      26.220  14.353  -4.291  0.00  0.00    +0.145 C 
BRANCH  13  14
ATOM     14  C   UNL     1      25.735  15.798  -4.403  0.00  0.00    +0.023 C 
BRANCH  14  15
ATOM     15  C   UNL     1      26.842  16.815  -4.113  0.00  0.00    +0.002 C 
BRANCH  15  16
ATOM     16  C   UNL     1      26.675  17.376  -2.698  0.00  0.00    +0.011 C 
BRANCH  16  17
ATOM     17  C   UNL     1      27.543  16.656  -1.669  0.00  0.00    +0.120 C 
BRANCH  17  18
ATOM     18  C   UNL     1      28.248  17.640  -0.762  0.00  0.00    +0.305 C 
ATOM     19  O   UNL     1      29.372  18.082  -0.937  0.00  0.00    -0.251 OA
BRANCH  18  20
ATOM     20  O   UNL     1      27.487  18.001   0.297  0.00  0.00    -0.481 OA
ATOM     21  H   UNL     1      26.588  18.288   0.057  0.00  0.00    +0.295 HD
ENDBRANCH  18  20
ENDBRANCH  17  18
ENDBRANCH  16  17
ENDBRANCH  15  16
ENDBRANCH  14  15
ENDBRANCH  13  14
ENDBRANCH  11  13
ENDBRANCH   7   9
ENDBRANCH   6   7
ENDBRANCH   5   6
ENDBRANCH   1   5
BRANCH   2  22
ATOM     22  C   UNL     1      29.012  14.815   0.996  0.00  0.00    +0.152 C 
BRANCH  22  23
ATOM     23  C   UNL     1      30.079  14.150   0.103  0.00  0.00    +0.193 C 
ATOM     24  O   UNL     1      30.797  15.219  -0.552  0.00  0.00    -0.219 OA
BRANCH  23  25
ATOM     25  C   UNL     1      31.178  13.318   0.800  0.00  0.00    +0.212 C 
ATOM     26  O   UNL     1      30.724  11.973   1.022  0.00  0.00    -0.218 OA
BRANCH  25  27
ATOM     27  C   UNL     1      32.530  13.266  -0.009  0.00  0.00    +0.171 C 
ATOM     28  O   UNL     1      32.419  12.513  -1.213  0.00  0.00    -0.343 OA
ATOM     29  C   UNL     1      33.506  12.104  -1.989  0.00  0.00    +0.220 C 
ATOM     30  C   UNL     1      34.581  11.402  -1.140  0.00  0.00    +0.076 C 
ATOM     31  C   UNL     1      34.934  12.338   0.027  0.00  0.00    +0.177 C 
ATOM     32  O   UNL     1      35.955  11.752   0.822  0.00  0.00    -0.221 OA
ATOM     33  C   UNL     1      33.661  12.646   0.874  0.00  0.00    +0.155 C 
BRANCH  33  34
ATOM     34  N   UNL     1      33.994  13.530   1.988  0.00  0.00    -0.202 NA
ATOM     35  C   UNL     1      33.908  13.311   3.325  0.00  0.00    +0.242 C 
ATOM     36  C   UNL     1      34.594  14.280   4.254  0.00  0.00    +0.096 C 
ATOM     37  O   UNL     1      33.283  12.339   3.743  0.00  0.00    -0.273 OA
ENDBRANCH  33  34
BRANCH  29  38
ATOM     38  C   UNL     1      34.143  13.296  -2.890  0.00  0.00    +0.391 C 
ATOM     39  O   UNL     1      35.274  12.776  -3.406  0.00  0.00    -0.243 OA
ATOM     40  O   UNL     1      33.178  14.215  -3.024  0.00  0.00    -0.243 OA
ENDBRANCH  29  38
ENDBRANCH  25  27
ENDBRANCH  23  25
ENDBRANCH  22  23
ENDBRANCH   2  22
TORSDOF 17
