REMARK VINA RESULT:    -7.411      1.753      2.877
REMARK INTER + INTRA:         -13.952
REMARK INTER:                 -12.120
REMARK INTRA:                  -1.832
REMARK UNBOUND:                -1.775
REMARK  Name = lig_assembled_42.pdb
REMARK  11 active torsions:
REMARK  status: ('A' for Active; 'I' for Inactive)
REMARK    1  A    between atoms: _2  and  _8
REMARK    2  A    between atoms: _5  and  _6
REMARK    3  A    between atoms: _5  and  _16
REMARK    4  A    between atoms: _16  and  _18
REMARK    5  A    between atoms: _17  and  _22
REMARK    6  A    between atoms: _18  and  _21
REMARK    7  A    between atoms: _26  and  _36
REMARK    8  A    between atoms: _28  and  _29
REMARK    9  A    between atoms: _30  and  _32
REMARK   10  A    between atoms: _32  and  _34
REMARK   11  A    between atoms: _34  and  _36
REMARK                            x       y       z     vdW  Elec       q    Type
REMARK                         _______ _______ _______ _____ _____    ______ ____
ROOT
ATOM      1  C   UNL     1      28.206  17.198  -0.760  0.00  0.00    +0.400 C 
ATOM      2  N   UNL     1      28.953  16.230  -0.131  0.00  0.00    -0.278 N 
ATOM      3  H   UNL     1      29.181  16.670   0.816  0.00  0.00    +0.152 HD
ATOM      4  O   UNL     1      27.841  18.168  -0.100  0.00  0.00    -0.226 OA
ENDROOT
BRANCH   1   5
ATOM      5  O   UNL     1      27.984  17.004  -2.018  0.00  0.00    -0.450 OA
BRANCH   5   6
ATOM      6  C   UNL     1      27.065  17.392  -3.013  0.00  0.00    +0.240 C 
BRANCH   6   7
ATOM      7  C   UNL     1      26.444  16.281  -3.881  0.00  0.00    +0.100 C 
BRANCH   7   9
ATOM      8  N   UNL     1      24.128  15.853  -3.101  0.00  0.00    -0.134 NA
ATOM      9  C   UNL     1      25.450  15.515  -3.107  0.00  0.00    +0.086 A 
ATOM     10  C   UNL     1      25.633  14.412  -2.308  0.00  0.00    +0.139 A 
ATOM     11  N   UNL     1      24.382  14.104  -1.828  0.00  0.00    -0.220 N 
ATOM     12  N   UNL     1      23.484  14.991  -2.323  0.00  0.00    -0.061 NA
BRANCH  11  13
ATOM     13  C   UNL     1      24.011  13.051  -0.953  0.00  0.00    +0.071 A 
ATOM     14  C   UNL     1      24.979  12.438  -0.144  0.00  0.00    +0.077 A 
ATOM     15  C   UNL     1      24.569  11.419   0.689  0.00  0.00    +0.168 A 
ATOM     16  O   UNL     1      25.376  10.727   1.536  0.00  0.00    -0.453 OA
ATOM     17  C   UNL     1      24.425   9.824   2.136  0.00  0.00    +0.466 C 
ATOM     18  O   UNL     1      23.082   9.988   1.632  0.00  0.00    -0.453 OA
ATOM     19  C   UNL     1      23.262  11.000   0.742  0.00  0.00    +0.166 A 
ATOM     20  C   UNL     1      22.285  11.578  -0.040  0.00  0.00    +0.051 A 
ATOM     21  C   UNL     1      22.665  12.618  -0.899  0.00  0.00    +0.031 A 
ENDBRANCH  11  13
ENDBRANCH   7   9
ENDBRANCH   6   7
ENDBRANCH   5   6
ENDBRANCH   1   5
BRANCH   2  22
ATOM     22  C   UNL     1      29.548  14.896  -0.170  0.00  0.00    +0.152 C 
BRANCH  22  23
ATOM     23  C   UNL     1      31.083  14.833  -0.040  0.00  0.00    +0.193 C 
ATOM     24  O   UNL     1      31.598  16.061  -0.601  0.00  0.00    -0.219 OA
BRANCH  23  25
ATOM     25  C   UNL     1      31.680  14.780   1.383  0.00  0.00    +0.212 C 
ATOM     26  O   UNL     1      31.215  15.893   2.164  0.00  0.00    -0.218 OA
BRANCH  25  27
ATOM     27  C   UNL     1      31.338  13.447   2.154  0.00  0.00    +0.171 C 
ATOM     28  O   UNL     1      30.104  13.524   2.860  0.00  0.00    -0.343 OA
ATOM     29  C   UNL     1      29.681  12.591   3.810  0.00  0.00    +0.220 C 
ATOM     30  C   UNL     1      30.765  12.323   4.869  0.00  0.00    +0.076 C 
ATOM     31  C   UNL     1      32.057  11.948   4.124  0.00  0.00    +0.177 C 
ATOM     32  O   UNL     1      33.083  11.650   5.059  0.00  0.00    -0.221 OA
ATOM     33  C   UNL     1      32.480  13.104   3.166  0.00  0.00    +0.155 C 
BRANCH  33  34
ATOM     34  N   UNL     1      33.711  12.754   2.461  0.00  0.00    -0.202 NA
ATOM     35  C   UNL     1      34.943  13.318   2.534  0.00  0.00    +0.242 C 
ATOM     36  C   UNL     1      36.106  12.578   1.925  0.00  0.00    +0.096 C 
ATOM     37  O   UNL     1      35.082  14.406   3.090  0.00  0.00    -0.273 OA
ENDBRANCH  33  34
BRANCH  29  38
ATOM     38  C   UNL     1      29.128  11.209   3.159  0.00  0.00    +0.391 C 
ATOM     39  O   UNL     1      28.993  10.365   4.200  0.00  0.00    -0.243 OA
ATOM     40  O   UNL     1      28.736  11.517   1.917  0.00  0.00    -0.243 OA
ENDBRANCH  29  38
ENDBRANCH  25  27
ENDBRANCH  23  25
ENDBRANCH  22  23
ENDBRANCH   2  22
TORSDOF 11
