REMARK VINA RESULT:    -6.291      2.223      4.465
REMARK INTER + INTRA:         -14.263
REMARK INTER:                 -11.978
REMARK INTRA:                  -2.285
REMARK UNBOUND:                -1.720
REMARK  Name = lig_assembled_54.pdb
REMARK  19 active torsions:
REMARK  status: ('A' for Active; 'I' for Inactive)
REMARK    1  A    between atoms: _2  and  _8
REMARK    2  A    between atoms: _4  and  _13
REMARK    3  A    between atoms: _5  and  _6
REMARK    4  A    between atoms: _5  and  _16
REMARK    5  A    between atoms: _8  and  _9
REMARK    6  A    between atoms: _9  and  _10
REMARK    7  A    between atoms: _10  and  _14
REMARK    8  A    between atoms: _10  and  _15
REMARK    9  A    between atoms: _11  and  _12
REMARK   10  A    between atoms: _11  and  _15
REMARK   11  A    between atoms: _13  and  _14
REMARK   12  A    between atoms: _16  and  _18
REMARK   13  A    between atoms: _17  and  _22
REMARK   14  A    between atoms: _18  and  _21
REMARK   15  A    between atoms: _26  and  _36
REMARK   16  A    between atoms: _28  and  _29
REMARK   17  A    between atoms: _30  and  _32
REMARK   18  A    between atoms: _32  and  _34
REMARK   19  A    between atoms: _34  and  _36
REMARK                            x       y       z     vdW  Elec       q    Type
REMARK                         _______ _______ _______ _____ _____    ______ ____
ROOT
ATOM      1  C   UNL     1      28.318  17.651  -0.549  0.00  0.00    +0.400 C 
ATOM      2  N   UNL     1      29.484  17.490   0.162  0.00  0.00    -0.278 N 
ATOM      3  H   UNL     1      29.436  18.265   0.896  0.00  0.00    +0.152 HD
ATOM      4  O   UNL     1      27.479  18.437  -0.115  0.00  0.00    -0.226 OA
ENDROOT
BRANCH   1   5
ATOM      5  O   UNL     1      28.231  16.970  -1.644  0.00  0.00    -0.450 OA
BRANCH   5   6
ATOM      6  C   UNL     1      27.301  16.166  -2.330  0.00  0.00    +0.240 C 
BRANCH   6   7
ATOM      7  C   UNL     1      26.501  16.821  -3.472  0.00  0.00    +0.100 C 
BRANCH   7   9
ATOM      8  N   UNL     1      25.287  15.266  -4.969  0.00  0.00    -0.134 NA
ATOM      9  C   UNL     1      25.328  15.992  -3.808  0.00  0.00    +0.086 A 
ATOM     10  C   UNL     1      24.166  15.775  -3.099  0.00  0.00    +0.133 A 
ATOM     11  N   UNL     1      23.478  14.881  -3.863  0.00  0.00    -0.251 N 
ATOM     12  N   UNL     1      24.151  14.581  -4.989  0.00  0.00    -0.065 NA
BRANCH  11  13
ATOM     13  C   UNL     1      22.219  14.226  -3.567  0.00  0.00    +0.150 C 
BRANCH  13  14
ATOM     14  C   UNL     1      22.428  12.819  -3.028  0.00  0.00    +0.084 C 
BRANCH  14  15
ATOM     15  C   UNL     1      23.630  12.699  -2.085  0.00  0.00    +0.252 C 
BRANCH  15  16
ATOM     16  O   UNL     1      24.133  11.360  -2.096  0.00  0.00    -0.352 OA
BRANCH  16  17
ATOM     17  C   UNL     1      25.324  11.190  -2.863  0.00  0.00    +0.159 C 
ATOM     18  C   UNL     1      26.144  12.461  -2.780  0.00  0.00    +0.034 C 
ENDBRANCH  16  17
ENDBRANCH  15  16
BRANCH  15  19
ATOM     19  O   UNL     1      23.183  13.040  -0.767  0.00  0.00    -0.352 OA
BRANCH  19  20
ATOM     20  C   UNL     1      22.932  11.887   0.040  0.00  0.00    +0.159 C 
ATOM     21  C   UNL     1      21.485  11.903   0.489  0.00  0.00    +0.034 C 
ENDBRANCH  19  20
ENDBRANCH  15  19
ENDBRANCH  14  15
ENDBRANCH  13  14
ENDBRANCH  11  13
ENDBRANCH   7   9
ENDBRANCH   6   7
ENDBRANCH   5   6
ENDBRANCH   1   5
BRANCH   2  22
ATOM     22  C   UNL     1      30.722  16.742   0.369  0.00  0.00    +0.152 C 
BRANCH  22  23
ATOM     23  C   UNL     1      30.634  15.214   0.175  0.00  0.00    +0.193 C 
ATOM     24  O   UNL     1      31.546  14.879  -0.894  0.00  0.00    -0.219 OA
BRANCH  23  25
ATOM     25  C   UNL     1      31.074  14.317   1.353  0.00  0.00    +0.212 C 
ATOM     26  O   UNL     1      31.422  15.120   2.492  0.00  0.00    -0.218 OA
BRANCH  25  27
ATOM     27  C   UNL     1      29.975  13.274   1.788  0.00  0.00    +0.171 C 
ATOM     28  O   UNL     1      28.746  13.894   2.153  0.00  0.00    -0.343 OA
ATOM     29  C   UNL     1      27.696  13.240   2.802  0.00  0.00    +0.220 C 
ATOM     30  C   UNL     1      28.180  12.480   4.049  0.00  0.00    +0.076 C 
ATOM     31  C   UNL     1      29.340  11.569   3.614  0.00  0.00    +0.177 C 
ATOM     32  O   UNL     1      29.801  10.813   4.725  0.00  0.00    -0.221 OA
ATOM     33  C   UNL     1      30.490  12.422   2.994  0.00  0.00    +0.155 C 
BRANCH  33  34
ATOM     34  N   UNL     1      31.597  11.561   2.586  0.00  0.00    -0.202 NA
ATOM     35  C   UNL     1      32.893  11.563   2.991  0.00  0.00    +0.242 C 
ATOM     36  C   UNL     1      33.755  10.380   2.633  0.00  0.00    +0.096 C 
ATOM     37  O   UNL     1      33.327  12.516   3.633  0.00  0.00    -0.273 OA
ENDBRANCH  33  34
BRANCH  29  38
ATOM     38  C   UNL     1      26.825  12.282   1.820  0.00  0.00    +0.391 C 
ATOM     39  O   UNL     1      26.098  11.506   2.647  0.00  0.00    -0.243 OA
ATOM     40  O   UNL     1      26.927  12.816   0.597  0.00  0.00    -0.243 OA
ENDBRANCH  29  38
ENDBRANCH  25  27
ENDBRANCH  23  25
ENDBRANCH  22  23
ENDBRANCH   2  22
TORSDOF 17
