REMARK VINA RESULT:    -6.870      1.247      3.581
REMARK INTER + INTRA:         -13.547
REMARK INTER:                 -12.448
REMARK INTRA:                  -1.100
REMARK UNBOUND:                -1.658
REMARK  Name = lig_assembled_60.pdb
REMARK  13 active torsions:
REMARK  status: ('A' for Active; 'I' for Inactive)
REMARK    1  A    between atoms: _2  and  _9
REMARK    2  A    between atoms: _3  and  _44
REMARK    3  A    between atoms: _6  and  _7
REMARK    4  A    between atoms: _6  and  _16
REMARK    5  A    between atoms: _12  and  _44
REMARK    6  A    between atoms: _16  and  _18
REMARK    7  A    between atoms: _17  and  _22
REMARK    8  A    between atoms: _18  and  _21
REMARK    9  A    between atoms: _26  and  _36
REMARK   10  A    between atoms: _28  and  _29
REMARK   11  A    between atoms: _30  and  _32
REMARK   12  A    between atoms: _32  and  _34
REMARK   13  A    between atoms: _34  and  _36
REMARK                            x       y       z     vdW  Elec       q    Type
REMARK                         _______ _______ _______ _____ _____    ______ ____
ROOT
ATOM      1  C   UNL     1      27.799  17.362  -0.944  0.00  0.00    +0.400 C 
ATOM      2  N   UNL     1      28.547  16.543  -0.132  0.00  0.00    -0.278 N 
ATOM      3  H   UNL     1      28.834  17.187   0.671  0.00  0.00    +0.152 HD
ATOM      4  O   UNL     1      27.495  18.475  -0.522  0.00  0.00    -0.226 OA
ENDROOT
BRANCH   2   5
ATOM      5  C   UNL     1      29.099  15.216   0.126  0.00  0.00    +0.152 C 
BRANCH   5   6
ATOM      6  C   UNL     1      30.637  15.099   0.077  0.00  0.00    +0.193 C 
ATOM      7  O   UNL     1      31.145  15.821   1.221  0.00  0.00    -0.219 OA
BRANCH   6   8
ATOM      8  C   UNL     1      31.251  13.687   0.209  0.00  0.00    +0.212 C 
ATOM      9  O   UNL     1      30.301  12.687  -0.196  0.00  0.00    -0.218 OA
BRANCH   8  10
ATOM     10  C   UNL     1      32.570  13.499  -0.634  0.00  0.00    +0.171 C 
ATOM     11  O   UNL     1      32.354  12.764  -1.833  0.00  0.00    -0.343 OA
ATOM     12  C   UNL     1      33.374  12.247  -2.636  0.00  0.00    +0.220 C 
ATOM     13  C   UNL     1      34.391  11.437  -1.814  0.00  0.00    +0.076 C 
ATOM     14  C   UNL     1      34.868  12.331  -0.657  0.00  0.00    +0.177 C 
ATOM     15  O   UNL     1      35.842  11.642   0.114  0.00  0.00    -0.221 OA
ATOM     16  C   UNL     1      33.653  12.765   0.222  0.00  0.00    +0.155 C 
BRANCH  16  17
ATOM     17  N   UNL     1      34.103  13.609   1.327  0.00  0.00    -0.202 NA
ATOM     18  C   UNL     1      33.933  13.451   2.664  0.00  0.00    +0.242 C 
ATOM     19  C   UNL     1      34.750  14.308   3.595  0.00  0.00    +0.096 C 
ATOM     20  O   UNL     1      33.128  12.620   3.080  0.00  0.00    -0.273 OA
ENDBRANCH  16  17
BRANCH  12  21
ATOM     21  C   UNL     1      34.106  13.370  -3.554  0.00  0.00    +0.391 C 
ATOM     22  O   UNL     1      33.269  14.425  -3.547  0.00  0.00    -0.243 OA
ATOM     23  O   UNL     1      35.367  12.950  -3.714  0.00  0.00    -0.243 OA
ENDBRANCH  12  21
ENDBRANCH   8  10
ENDBRANCH   6   8
ENDBRANCH   5   6
ENDBRANCH   2   5
BRANCH   1  24
ATOM     24  O   UNL     1      27.509  16.883  -2.109  0.00  0.00    -0.450 OA
BRANCH  24  25
ATOM     25  C   UNL     1      26.917  17.297  -3.318  0.00  0.00    +0.240 C 
BRANCH  25  26
ATOM     26  C   UNL     1      26.144  16.241  -4.131  0.00  0.00    +0.100 C 
BRANCH  26  28
ATOM     27  N   UNL     1      23.865  15.931  -3.215  0.00  0.00    -0.134 NA
ATOM     28  C   UNL     1      25.172  15.542  -3.269  0.00  0.00    +0.086 A 
ATOM     29  C   UNL     1      25.355  14.463  -2.437  0.00  0.00    +0.139 A 
ATOM     30  N   UNL     1      24.108  14.199  -1.919  0.00  0.00    -0.220 N 
ATOM     31  N   UNL     1      23.226  15.116  -2.386  0.00  0.00    -0.061 NA
BRANCH  30  32
ATOM     32  C   UNL     1      23.711  13.136  -1.066  0.00  0.00    +0.067 A 
ATOM     33  C   UNL     1      24.666  12.406  -0.341  0.00  0.00    +0.030 A 
ATOM     34  C   UNL     1      24.271  11.318   0.440  0.00  0.00    +0.030 A 
ATOM     35  C   UNL     1      22.921  10.967   0.510  0.00  0.00    +0.105 A 
ATOM     36  C   UNL     1      21.958  11.696  -0.194  0.00  0.00    +0.030 A 
ATOM     37  C   UNL     1      22.353  12.785  -0.976  0.00  0.00    +0.030 A 
BRANCH  35  38
ATOM     38  S   UNL     1      22.443   9.540   1.440  0.00  0.00    +0.056 S 
ATOM     39  O   UNL     1      21.840   9.959   2.682  0.00  0.00    -0.153 OA
ATOM     40  O   UNL     1      21.814   8.588   0.553  0.00  0.00    -0.153 OA
BRANCH  38  41
ATOM     41  N   UNL     1      23.933   8.882   1.844  0.00  0.00    -0.204 NA
ATOM     42  H   UNL     1      24.667   9.325   1.292  0.00  0.00    +0.144 HD
ATOM     43  H   UNL     1      23.898   7.867   1.745  0.00  0.00    +0.144 HD
ENDBRANCH  38  41
ENDBRANCH  35  38
ENDBRANCH  30  32
ENDBRANCH  26  28
ENDBRANCH  25  26
ENDBRANCH  24  25
ENDBRANCH   1  24
TORSDOF 13
