REMARK VINA RESULT:    -6.623      3.581      8.635
REMARK INTER + INTRA:         -13.159
REMARK INTER:                 -10.860
REMARK INTRA:                  -2.298
REMARK UNBOUND:                -1.696
REMARK  Name = lig_assembled_72.pdb
REMARK  15 active torsions:
REMARK  status: ('A' for Active; 'I' for Inactive)
REMARK    1  A    between atoms: _2  and  _8
REMARK    2  A    between atoms: _4  and  _8
REMARK    3  A    between atoms: _4  and  _11
REMARK    4  A    between atoms: _5  and  _6
REMARK    5  A    between atoms: _5  and  _12
REMARK    6  A    between atoms: _8  and  _9
REMARK    7  A    between atoms: _8  and  _10
REMARK    8  A    between atoms: _12  and  _14
REMARK    9  A    between atoms: _13  and  _18
REMARK   10  A    between atoms: _14  and  _17
REMARK   11  A    between atoms: _22  and  _32
REMARK   12  A    between atoms: _24  and  _25
REMARK   13  A    between atoms: _26  and  _28
REMARK   14  A    between atoms: _28  and  _30
REMARK   15  A    between atoms: _30  and  _32
REMARK                            x       y       z     vdW  Elec       q    Type
REMARK                         _______ _______ _______ _____ _____    ______ ____
ROOT
ATOM      1  C   UNL     1      27.080  17.158  -3.373  0.00  0.00    +0.152 C 
ENDROOT
BRANCH   1   3
ATOM      2  C   UNL     1      27.895  17.804  -0.850  0.00  0.00    +0.400 C 
ATOM      3  N   UNL     1      27.136  17.565  -1.972  0.00  0.00    -0.278 N 
ATOM      4  H   UNL     1      26.143  17.803  -1.653  0.00  0.00    +0.152 HD
ATOM      5  O   UNL     1      27.359  18.359   0.105  0.00  0.00    -0.226 OA
BRANCH   2   6
ATOM      6  O   UNL     1      29.116  17.383  -0.902  0.00  0.00    -0.450 OA
BRANCH   6   7
ATOM      7  C   UNL     1      30.232  17.234  -0.054  0.00  0.00    +0.240 C 
BRANCH   7   8
ATOM      8  C   UNL     1      30.966  15.881  -0.077  0.00  0.00    +0.100 C 
BRANCH   8  10
ATOM      9  N   UNL     1      30.843  14.683   2.084  0.00  0.00    -0.134 NA
ATOM     10  C   UNL     1      30.318  14.930   0.845  0.00  0.00    +0.086 A 
ATOM     11  C   UNL     1      29.178  14.174   0.682  0.00  0.00    +0.134 A 
ATOM     12  N   UNL     1      29.059  13.485   1.857  0.00  0.00    -0.244 N 
ATOM     13  N   UNL     1      30.069  13.800   2.695  0.00  0.00    -0.065 NA
BRANCH  12  14
ATOM     14  C   UNL     1      28.017  12.525   2.248  0.00  0.00    +0.083 C 
ATOM     15  C   UNL     1      28.632  11.115   2.332  0.00  0.00    +0.038 C 
ATOM     16  C   UNL     1      26.888  12.531   1.198  0.00  0.00    +0.038 C 
BRANCH  14  17
ATOM     17  C   UNL     1      27.418  12.864   3.641  0.00  0.00    +0.185 C 
BRANCH  17  18
ATOM     18  O   UNL     1      28.156  12.281   4.714  0.00  0.00    -0.393 OA
ATOM     19  H   UNL     1      28.346  13.014   5.338  0.00  0.00    +0.209 HD
ENDBRANCH  17  18
ENDBRANCH  14  17
ENDBRANCH  12  14
ENDBRANCH   8  10
ENDBRANCH   7   8
ENDBRANCH   6   7
ENDBRANCH   2   6
ENDBRANCH   1   3
BRANCH   1  20
ATOM     20  C   UNL     1      26.043  16.070  -3.723  0.00  0.00    +0.193 C 
ATOM     21  O   UNL     1      26.040  15.948  -5.163  0.00  0.00    -0.219 OA
BRANCH  20  22
ATOM     22  C   UNL     1      26.312  14.636  -3.216  0.00  0.00    +0.212 C 
ATOM     23  O   UNL     1      27.119  14.668  -2.027  0.00  0.00    -0.218 OA
BRANCH  22  24
ATOM     24  C   UNL     1      24.996  13.825  -2.910  0.00  0.00    +0.171 C 
ATOM     25  O   UNL     1      24.075  14.557  -2.108  0.00  0.00    -0.343 OA
ATOM     26  C   UNL     1      22.951  14.002  -1.492  0.00  0.00    +0.220 C 
ATOM     27  C   UNL     1      23.307  12.737  -0.691  0.00  0.00    +0.076 C 
ATOM     28  C   UNL     1      24.063  11.788  -1.635  0.00  0.00    +0.177 C 
ATOM     29  O   UNL     1      24.381  10.583  -0.954  0.00  0.00    -0.221 OA
ATOM     30  C   UNL     1      25.346  12.486  -2.184  0.00  0.00    +0.155 C 
BRANCH  30  31
ATOM     31  N   UNL     1      26.071  11.585  -3.076  0.00  0.00    -0.202 NA
ATOM     32  C   UNL     1      27.302  11.029  -2.936  0.00  0.00    +0.242 C 
ATOM     33  C   UNL     1      27.688   9.905  -3.861  0.00  0.00    +0.096 C 
ATOM     34  O   UNL     1      28.063  11.450  -2.068  0.00  0.00    -0.273 OA
ENDBRANCH  30  31
BRANCH  26  35
ATOM     35  C   UNL     1      21.718  13.733  -2.515  0.00  0.00    +0.391 C 
ATOM     36  O   UNL     1      22.029  14.431  -3.625  0.00  0.00    -0.243 OA
ATOM     37  O   UNL     1      21.030  12.705  -2.003  0.00  0.00    -0.243 OA
ENDBRANCH  26  35
ENDBRANCH  22  24
ENDBRANCH  20  22
ENDBRANCH   1  20
TORSDOF 13
