REMARK VINA RESULT:    -6.044      2.011      2.991
REMARK INTER + INTRA:         -12.884
REMARK INTER:                 -11.378
REMARK INTRA:                  -1.506
REMARK UNBOUND:                -2.422
REMARK  Name = lig_assembled_53.pdb
REMARK  13 active torsions:
REMARK  status: ('A' for Active; 'I' for Inactive)
REMARK    1  A    between atoms: _2  and  _8
REMARK    2  A    between atoms: _4  and  _8
REMARK    3  A    between atoms: _4  and  _9
REMARK    4  A    between atoms: _5  and  _6
REMARK    5  A    between atoms: _5  and  _11
REMARK    6  A    between atoms: _11  and  _13
REMARK    7  A    between atoms: _12  and  _17
REMARK    8  A    between atoms: _13  and  _16
REMARK    9  A    between atoms: _21  and  _31
REMARK   10  A    between atoms: _23  and  _24
REMARK   11  A    between atoms: _25  and  _27
REMARK   12  A    between atoms: _27  and  _29
REMARK   13  A    between atoms: _29  and  _31
REMARK                            x       y       z     vdW  Elec       q    Type
REMARK                         _______ _______ _______ _____ _____    ______ ____
ROOT
ATOM      1  C   UNL     1      29.338  14.987  -0.100  0.00  0.00    +0.152 C 
ENDROOT
BRANCH   1   3
ATOM      2  C   UNL     1      28.056  17.314  -0.724  0.00  0.00    +0.400 C 
ATOM      3  N   UNL     1      28.769  16.332  -0.077  0.00  0.00    -0.278 N 
ATOM      4  H   UNL     1      28.983  16.769   0.875  0.00  0.00    +0.152 HD
ATOM      5  O   UNL     1      27.694  18.291  -0.074  0.00  0.00    -0.226 OA
BRANCH   2   6
ATOM      6  O   UNL     1      27.859  17.122  -1.987  0.00  0.00    -0.450 OA
BRANCH   6   7
ATOM      7  C   UNL     1      26.938  17.479  -2.991  0.00  0.00    +0.240 C 
BRANCH   7   8
ATOM      8  C   UNL     1      26.678  16.458  -4.114  0.00  0.00    +0.100 C 
BRANCH   8  10
ATOM      9  N   UNL     1      24.770  15.019  -4.765  0.00  0.00    -0.134 NA
ATOM     10  C   UNL     1      25.517  15.611  -3.783  0.00  0.00    +0.086 A 
ATOM     11  C   UNL     1      24.995  15.273  -2.555  0.00  0.00    +0.134 A 
ATOM     12  N   UNL     1      23.893  14.530  -2.854  0.00  0.00    -0.241 N 
ATOM     13  N   UNL     1      23.789  14.340  -4.185  0.00  0.00    -0.065 NA
BRANCH  12  14
ATOM     14  C   UNL     1      22.974  13.825  -1.985  0.00  0.00    +0.265 C 
BRANCH  14  15
ATOM     15  C   UNL     1      21.638  14.490  -1.786  0.00  0.00    +0.326 C 
ATOM     16  O   UNL     1      20.761  14.149  -1.008  0.00  0.00    -0.249 OA
BRANCH  15  17
ATOM     17  O   UNL     1      21.465  15.562  -2.605  0.00  0.00    -0.479 OA
ATOM     18  H   UNL     1      21.972  15.549  -3.439  0.00  0.00    +0.295 HD
ENDBRANCH  15  17
ENDBRANCH  14  15
ENDBRANCH  12  14
ENDBRANCH   8  10
ENDBRANCH   7   8
ENDBRANCH   6   7
ENDBRANCH   2   6
ENDBRANCH   1   3
BRANCH   1  19
ATOM     19  C   UNL     1      30.878  14.901  -0.099  0.00  0.00    +0.193 C 
ATOM     20  O   UNL     1      31.364  16.153  -0.631  0.00  0.00    -0.219 OA
BRANCH  19  21
ATOM     21  C   UNL     1      31.586  14.762   1.267  0.00  0.00    +0.212 C 
ATOM     22  O   UNL     1      31.261  15.874   2.116  0.00  0.00    -0.218 OA
BRANCH  21  23
ATOM     23  C   UNL     1      31.224  13.427   2.024  0.00  0.00    +0.171 C 
ATOM     24  O   UNL     1      30.080  13.564   2.860  0.00  0.00    -0.343 OA
ATOM     25  C   UNL     1      29.687  12.626   3.818  0.00  0.00    +0.220 C 
ATOM     26  C   UNL     1      30.851  12.236   4.745  0.00  0.00    +0.076 C 
ATOM     27  C   UNL     1      32.025  11.798   3.855  0.00  0.00    +0.177 C 
ATOM     28  O   UNL     1      33.117  11.388   4.665  0.00  0.00    -0.221 OA
ATOM     29  C   UNL     1      32.435  12.959   2.896  0.00  0.00    +0.155 C 
BRANCH  29  30
ATOM     30  N   UNL     1      33.555  12.550   2.053  0.00  0.00    -0.202 NA
ATOM     31  C   UNL     1      34.815  13.048   1.982  0.00  0.00    +0.242 C 
ATOM     32  C   UNL     1      35.859  12.253   1.241  0.00  0.00    +0.096 C 
ATOM     33  O   UNL     1      35.074  14.124   2.517  0.00  0.00    -0.273 OA
ENDBRANCH  29  30
BRANCH  25  34
ATOM     34  C   UNL     1      28.964  11.317   3.183  0.00  0.00    +0.391 C 
ATOM     35  O   UNL     1      28.938  10.416   4.184  0.00  0.00    -0.243 OA
ATOM     36  O   UNL     1      28.409  11.721   2.034  0.00  0.00    -0.243 OA
ENDBRANCH  25  34
ENDBRANCH  21  23
ENDBRANCH  19  21
ENDBRANCH   1  19
TORSDOF 13
