REMARK VINA RESULT:    -6.139      2.501      3.380
REMARK INTER + INTRA:         -12.285
REMARK INTER:                 -10.647
REMARK INTRA:                  -1.638
REMARK UNBOUND:                -1.839
REMARK  Name = lig_assembled_61.pdb
REMARK  12 active torsions:
REMARK  status: ('A' for Active; 'I' for Inactive)
REMARK    1  A    between atoms: _2  and  _8
REMARK    2  A    between atoms: _5  and  _6
REMARK    3  A    between atoms: _5  and  _12
REMARK    4  A    between atoms: _8  and  _9
REMARK    5  A    between atoms: _12  and  _14
REMARK    6  A    between atoms: _13  and  _18
REMARK    7  A    between atoms: _14  and  _17
REMARK    8  A    between atoms: _22  and  _32
REMARK    9  A    between atoms: _24  and  _25
REMARK   10  A    between atoms: _26  and  _28
REMARK   11  A    between atoms: _28  and  _30
REMARK   12  A    between atoms: _30  and  _32
REMARK                            x       y       z     vdW  Elec       q    Type
REMARK                         _______ _______ _______ _____ _____    ______ ____
ROOT
ATOM      1  C   UNL     1      28.936  15.550  -0.277  0.00  0.00    +0.152 C 
ENDROOT
BRANCH   1   3
ATOM      2  C   UNL     1      27.665  17.608  -1.540  0.00  0.00    +0.400 C 
ATOM      3  N   UNL     1      28.385  16.852  -0.645  0.00  0.00    -0.278 N 
ATOM      4  H   UNL     1      28.636  17.551   0.123  0.00  0.00    +0.152 HD
ATOM      5  O   UNL     1      27.337  18.744  -1.206  0.00  0.00    -0.226 OA
BRANCH   2   6
ATOM      6  O   UNL     1      27.425  17.049  -2.680  0.00  0.00    -0.450 OA
BRANCH   6   7
ATOM      7  C   UNL     1      26.381  16.943  -3.619  0.00  0.00    +0.240 C 
BRANCH   7   8
ATOM      8  C   UNL     1      26.109  15.554  -4.227  0.00  0.00    +0.100 C 
BRANCH   8  10
ATOM      9  N   UNL     1      24.409  15.457  -2.431  0.00  0.00    -0.134 NA
ATOM     10  C   UNL     1      24.947  14.924  -3.573  0.00  0.00    +0.086 A 
ATOM     11  C   UNL     1      24.233  13.799  -3.926  0.00  0.00    +0.134 A 
ATOM     12  N   UNL     1      23.315  13.669  -2.926  0.00  0.00    -0.247 N 
ATOM     13  N   UNL     1      23.395  14.690  -2.053  0.00  0.00    -0.065 NA
BRANCH  12  14
ATOM     14  C   UNL     1      22.312  12.633  -2.757  0.00  0.00    +0.180 C 
BRANCH  14  15
ATOM     15  C   UNL     1      22.200  12.195  -1.322  0.00  0.00    -0.019 A 
ATOM     16  C   UNL     1      21.091  12.502  -0.461  0.00  0.00    +0.013 A 
ATOM     17  C   UNL     1      21.258  12.014   0.817  0.00  0.00    +0.045 A 
ATOM     18  S   UNL     1      22.732  11.173   0.994  0.00  0.00    -0.105 S 
ATOM     19  C   UNL     1      23.159  11.471  -0.634  0.00  0.00    +0.050 A 
ENDBRANCH  14  15
ENDBRANCH  12  14
ENDBRANCH   8  10
ENDBRANCH   7   8
ENDBRANCH   6   7
ENDBRANCH   2   6
ENDBRANCH   1   3
BRANCH   1  20
ATOM     20  C   UNL     1      30.439  15.522   0.071  0.00  0.00    +0.193 C 
ATOM     21  O   UNL     1      30.737  16.774   0.727  0.00  0.00    -0.219 OA
BRANCH  20  22
ATOM     22  C   UNL     1      30.922  14.441   1.063  0.00  0.00    +0.212 C 
ATOM     23  O   UNL     1      31.386  15.049   2.280  0.00  0.00    -0.218 OA
BRANCH  22  24
ATOM     24  C   UNL     1      29.813  13.380   1.421  0.00  0.00    +0.171 C 
ATOM     25  O   UNL     1      29.760  13.092   2.815  0.00  0.00    -0.343 OA
ATOM     26  C   UNL     1      29.049  12.027   3.373  0.00  0.00    +0.220 C 
ATOM     27  C   UNL     1      29.373  10.696   2.671  0.00  0.00    +0.076 C 
ATOM     28  C   UNL     1      29.152  10.902   1.164  0.00  0.00    +0.177 C 
ATOM     29  O   UNL     1      29.400   9.687   0.470  0.00  0.00    -0.221 OA
ATOM     30  C   UNL     1      30.069  12.051   0.639  0.00  0.00    +0.155 C 
BRANCH  30  31
ATOM     31  N   UNL     1      29.867  12.245  -0.795  0.00  0.00    -0.202 NA
ATOM     32  C   UNL     1      30.755  12.146  -1.817  0.00  0.00    +0.242 C 
ATOM     33  C   UNL     1      30.222  12.106  -3.226  0.00  0.00    +0.096 C 
ATOM     34  O   UNL     1      31.959  12.090  -1.573  0.00  0.00    -0.273 OA
ENDBRANCH  30  31
BRANCH  26  35
ATOM     35  C   UNL     1      27.447  12.287   3.450  0.00  0.00    +0.391 C 
ATOM     36  O   UNL     1      26.899  11.059   3.521  0.00  0.00    -0.243 OA
ATOM     37  O   UNL     1      27.297  13.591   3.714  0.00  0.00    -0.243 OA
ENDBRANCH  26  35
ENDBRANCH  22  24
ENDBRANCH  20  22
ENDBRANCH   1  20
TORSDOF 12
