REMARK VINA RESULT:    -6.624      3.470      8.266
REMARK INTER + INTRA:         -13.017
REMARK INTER:                 -10.711
REMARK INTRA:                  -2.305
REMARK UNBOUND:                -2.133
REMARK  Name = lig_assembled_7.pdb
REMARK  14 active torsions:
REMARK  status: ('A' for Active; 'I' for Inactive)
REMARK    1  A    between atoms: _2  and  _8
REMARK    2  A    between atoms: _4  and  _15
REMARK    3  A    between atoms: _5  and  _6
REMARK    4  A    between atoms: _5  and  _16
REMARK    5  A    between atoms: _9  and  _10
REMARK    6  A    between atoms: _12  and  _13
REMARK    7  A    between atoms: _16  and  _18
REMARK    8  A    between atoms: _17  and  _22
REMARK    9  A    between atoms: _18  and  _21
REMARK   10  A    between atoms: _26  and  _36
REMARK   11  A    between atoms: _28  and  _29
REMARK   12  A    between atoms: _30  and  _32
REMARK   13  A    between atoms: _32  and  _34
REMARK   14  A    between atoms: _34  and  _36
REMARK                            x       y       z     vdW  Elec       q    Type
REMARK                         _______ _______ _______ _____ _____    ______ ____
ROOT
ATOM      1  C   UNL     1      27.928  17.760  -1.012  0.00  0.00    +0.400 C 
ATOM      2  N   UNL     1      27.236  17.565  -2.185  0.00  0.00    -0.278 N 
ATOM      3  H   UNL     1      26.273  17.979  -1.975  0.00  0.00    +0.152 HD
ATOM      4  O   UNL     1      27.412  18.460  -0.145  0.00  0.00    -0.226 OA
ENDROOT
BRANCH   1   5
ATOM      5  O   UNL     1      29.063  17.147  -0.924  0.00  0.00    -0.450 OA
BRANCH   5   6
ATOM      6  C   UNL     1      30.105  16.959   0.004  0.00  0.00    +0.240 C 
BRANCH   6   7
ATOM      7  C   UNL     1      31.066  15.779  -0.236  0.00  0.00    +0.100 C 
BRANCH   7   9
ATOM      8  N   UNL     1      31.501  14.101   1.517  0.00  0.00    -0.134 NA
ATOM      9  C   UNL     1      30.663  14.618   0.579  0.00  0.00    +0.086 A 
ATOM     10  C   UNL     1      29.489  13.890   0.582  0.00  0.00    +0.139 A 
ATOM     11  N   UNL     1      29.678  12.895   1.517  0.00  0.00    -0.219 N 
ATOM     12  N   UNL     1      30.890  13.082   2.098  0.00  0.00    -0.061 NA
BRANCH  11  13
ATOM     13  C   UNL     1      28.810  11.820   1.896  0.00  0.00    +0.073 A 
ATOM     14  C   UNL     1      28.921  10.564   1.227  0.00  0.00    -0.024 A 
ATOM     15  C   UNL     1      28.070   9.497   1.594  0.00  0.00    +0.008 A 
ATOM     16  C   UNL     1      27.125   9.636   2.606  0.00  0.00    -0.050 A 
ATOM     17  C   UNL     1      26.239   8.482   2.973  0.00  0.00    +0.044 C 
ATOM     18  C   UNL     1      27.023  10.862   3.257  0.00  0.00    +0.008 A 
ATOM     19  C   UNL     1      29.941  10.249   0.154  0.00  0.00    +0.046 C 
ATOM     20  C   UNL     1      27.831  11.970   2.912  0.00  0.00    -0.024 A 
ATOM     21  C   UNL     1      27.472  13.235   3.650  0.00  0.00    +0.046 C 
ENDBRANCH  11  13
ENDBRANCH   7   9
ENDBRANCH   6   7
ENDBRANCH   5   6
ENDBRANCH   1   5
BRANCH   2  22
ATOM     22  C   UNL     1      27.231  17.072  -3.559  0.00  0.00    +0.152 C 
BRANCH  22  23
ATOM     23  C   UNL     1      26.027  16.197  -3.963  0.00  0.00    +0.193 C 
ATOM     24  O   UNL     1      26.194  15.880  -5.363  0.00  0.00    -0.219 OA
BRANCH  23  25
ATOM     25  C   UNL     1      25.877  14.823  -3.272  0.00  0.00    +0.212 C 
ATOM     26  O   UNL     1      26.368  14.884  -1.923  0.00  0.00    -0.218 OA
BRANCH  25  27
ATOM     27  C   UNL     1      24.392  14.296  -3.245  0.00  0.00    +0.171 C 
ATOM     28  O   UNL     1      23.436  15.351  -3.264  0.00  0.00    -0.343 OA
ATOM     29  C   UNL     1      22.074  15.185  -3.005  0.00  0.00    +0.220 C 
ATOM     30  C   UNL     1      21.832  14.411  -1.697  0.00  0.00    +0.076 C 
ATOM     31  C   UNL     1      22.640  13.105  -1.776  0.00  0.00    +0.177 C 
ATOM     32  O   UNL     1      22.420  12.332  -0.605  0.00  0.00    -0.221 OA
ATOM     33  C   UNL     1      24.156  13.422  -1.970  0.00  0.00    +0.155 C 
BRANCH  33  34
ATOM     34  N   UNL     1      24.928  12.184  -2.038  0.00  0.00    -0.202 NA
ATOM     35  C   UNL     1      25.637  11.549  -1.071  0.00  0.00    +0.242 C 
ATOM     36  C   UNL     1      26.094  10.137  -1.329  0.00  0.00    +0.096 C 
ATOM     37  O   UNL     1      25.886  12.133  -0.018  0.00  0.00    -0.273 OA
ENDBRANCH  33  34
BRANCH  29  38
ATOM     38  C   UNL     1      21.254  14.530  -4.246  0.00  0.00    +0.391 C 
ATOM     39  O   UNL     1      22.153  14.435  -5.245  0.00  0.00    -0.243 OA
ATOM     40  O   UNL     1      20.111  14.063  -3.728  0.00  0.00    -0.243 OA
ENDBRANCH  29  38
ENDBRANCH  25  27
ENDBRANCH  23  25
ENDBRANCH  22  23
ENDBRANCH   2  22
TORSDOF 11
