REMARK VINA RESULT:    -6.862      1.747      2.541
REMARK INTER + INTRA:         -14.605
REMARK INTER:                 -13.087
REMARK INTRA:                  -1.518
REMARK UNBOUND:                -2.327
REMARK  Name = lig_assembled_68.pdb
REMARK  14 active torsions:
REMARK  status: ('A' for Active; 'I' for Inactive)
REMARK    1  A    between atoms: _2  and  _8
REMARK    2  A    between atoms: _5  and  _6
REMARK    3  A    between atoms: _5  and  _16
REMARK    4  A    between atoms: _8  and  _9
REMARK    5  A    between atoms: _9  and  _10
REMARK    6  A    between atoms: _9  and  _15
REMARK    7  A    between atoms: _16  and  _18
REMARK    8  A    between atoms: _17  and  _22
REMARK    9  A    between atoms: _18  and  _21
REMARK   10  A    between atoms: _26  and  _36
REMARK   11  A    between atoms: _28  and  _29
REMARK   12  A    between atoms: _30  and  _32
REMARK   13  A    between atoms: _32  and  _34
REMARK   14  A    between atoms: _34  and  _36
REMARK                            x       y       z     vdW  Elec       q    Type
REMARK                         _______ _______ _______ _____ _____    ______ ____
ROOT
ATOM      1  C   UNL     1      28.798  16.950  -0.470  0.00  0.00    +0.400 C 
ATOM      2  N   UNL     1      29.168  15.777   0.146  0.00  0.00    -0.278 N 
ATOM      3  H   UNL     1      29.819  16.103   0.928  0.00  0.00    +0.152 HD
ATOM      4  O   UNL     1      29.105  18.009   0.071  0.00  0.00    -0.226 OA
ENDROOT
BRANCH   2   5
ATOM      5  C   UNL     1      29.062  14.322   0.217  0.00  0.00    +0.152 C 
BRANCH   5   6
ATOM      6  C   UNL     1      29.456  13.677   1.562  0.00  0.00    +0.193 C 
ATOM      7  O   UNL     1      29.115  12.277   1.466  0.00  0.00    -0.219 OA
BRANCH   6   8
ATOM      8  C   UNL     1      30.952  13.685   1.948  0.00  0.00    +0.212 C 
ATOM      9  O   UNL     1      31.346  14.989   2.402  0.00  0.00    -0.218 OA
BRANCH   8  10
ATOM     10  C   UNL     1      31.314  12.631   3.063  0.00  0.00    +0.171 C 
ATOM     11  O   UNL     1      30.475  12.735   4.208  0.00  0.00    -0.343 OA
ATOM     12  C   UNL     1      30.723  12.100   5.427  0.00  0.00    +0.220 C 
ATOM     13  C   UNL     1      32.157  12.357   5.923  0.00  0.00    +0.076 C 
ATOM     14  C   UNL     1      33.115  11.970   4.784  0.00  0.00    +0.177 C 
ATOM     15  O   UNL     1      34.460  12.151   5.205  0.00  0.00    -0.221 OA
ATOM     16  C   UNL     1      32.802  12.812   3.508  0.00  0.00    +0.155 C 
BRANCH  16  17
ATOM     17  N   UNL     1      33.716  12.452   2.427  0.00  0.00    -0.202 NA
ATOM     18  C   UNL     1      34.825  13.093   1.979  0.00  0.00    +0.242 C 
ATOM     19  C   UNL     1      35.750  12.355   1.046  0.00  0.00    +0.096 C 
ATOM     20  O   UNL     1      35.049  14.246   2.340  0.00  0.00    -0.273 OA
ENDBRANCH  16  17
BRANCH  12  21
ATOM     21  C   UNL     1      30.370  10.515   5.415  0.00  0.00    +0.391 C 
ATOM     22  O   UNL     1      30.974  10.016   6.511  0.00  0.00    -0.243 OA
ATOM     23  O   UNL     1      29.389  10.361   4.518  0.00  0.00    -0.243 OA
ENDBRANCH  12  21
ENDBRANCH   8  10
ENDBRANCH   6   8
ENDBRANCH   5   6
ENDBRANCH   2   5
BRANCH   1  24
ATOM     24  O   UNL     1      28.177  16.819  -1.596  0.00  0.00    -0.450 OA
BRANCH  24  25
ATOM     25  C   UNL     1      27.105  17.403  -2.299  0.00  0.00    +0.240 C 
BRANCH  25  26
ATOM     26  C   UNL     1      27.033  17.156  -3.818  0.00  0.00    +0.100 C 
BRANCH  26  28
ATOM     27  N   UNL     1      25.905  15.538  -5.321  0.00  0.00    -0.134 NA
ATOM     28  C   UNL     1      25.930  16.234  -4.139  0.00  0.00    +0.086 A 
ATOM     29  C   UNL     1      24.810  15.914  -3.408  0.00  0.00    +0.133 A 
ATOM     30  N   UNL     1      24.148  15.016  -4.192  0.00  0.00    -0.249 N 
ATOM     31  N   UNL     1      24.803  14.801  -5.346  0.00  0.00    -0.065 NA
BRANCH  30  32
ATOM     32  C   UNL     1      22.855  14.412  -3.952  0.00  0.00    +0.181 C 
BRANCH  32  33
ATOM     33  C   UNL     1      22.235  14.878  -2.628  0.00  0.00    +0.166 C 
BRANCH  33  34
ATOM     34  C   UNL     1      22.202  13.812  -1.542  0.00  0.00    -0.017 A 
ATOM     35  C   UNL     1      20.968  13.483  -0.952  0.00  0.00    +0.006 A 
ATOM     36  C   UNL     1      20.888  12.493   0.030  0.00  0.00    +0.000 A 
ATOM     37  C   UNL     1      22.034  11.815   0.434  0.00  0.00    +0.000 A 
ATOM     38  C   UNL     1      23.259  12.115  -0.152  0.00  0.00    +0.000 A 
ATOM     39  C   UNL     1      23.343  13.104  -1.137  0.00  0.00    +0.006 A 
ENDBRANCH  33  34
BRANCH  33  40
ATOM     40  O   UNL     1      20.890  15.306  -2.867  0.00  0.00    -0.385 OA
ATOM     41  H   UNL     1      20.721  16.093  -2.323  0.00  0.00    +0.210 HD
ENDBRANCH  33  40
ENDBRANCH  32  33
ENDBRANCH  30  32
ENDBRANCH  26  28
ENDBRANCH  25  26
ENDBRANCH  24  25
ENDBRANCH   1  24
TORSDOF 14
