REMARK VINA RESULT:    -6.493      1.872      4.130
REMARK INTER + INTRA:         -14.727
REMARK INTER:                 -11.451
REMARK INTRA:                  -3.276
REMARK UNBOUND:                -2.540
REMARK  Name = lig_assembled_31.pdb
REMARK  15 active torsions:
REMARK  status: ('A' for Active; 'I' for Inactive)
REMARK    1  A    between atoms: _2  and  _10
REMARK    2  A    between atoms: _3  and  _11
REMARK    3  A    between atoms: _4  and  _13
REMARK    4  A    between atoms: _7  and  _8
REMARK    5  A    between atoms: _7  and  _19
REMARK    6  A    between atoms: _10  and  _11
REMARK    7  A    between atoms: _13  and  _14
REMARK    8  A    between atoms: _19  and  _21
REMARK    9  A    between atoms: _20  and  _25
REMARK   10  A    between atoms: _21  and  _24
REMARK   11  A    between atoms: _29  and  _39
REMARK   12  A    between atoms: _31  and  _32
REMARK   13  A    between atoms: _33  and  _35
REMARK   14  A    between atoms: _35  and  _37
REMARK   15  A    between atoms: _37  and  _39
REMARK                            x       y       z     vdW  Elec       q    Type
REMARK                         _______ _______ _______ _____ _____    ______ ____
ROOT
ATOM      1  C   UNL     1      29.005  12.478  -2.618  0.00  0.00    +0.400 C 
ATOM      2  N   UNL     1      27.933  13.273  -2.950  0.00  0.00    -0.278 N 
ATOM      3  H   UNL     1      27.750  13.828  -2.055  0.00  0.00    +0.152 HD
ATOM      4  O   UNL     1      29.578  12.694  -1.553  0.00  0.00    -0.226 OA
ENDROOT
BRANCH   2   5
ATOM      5  C   UNL     1      26.964  13.698  -3.957  0.00  0.00    +0.152 C 
BRANCH   5   6
ATOM      6  C   UNL     1      25.584  13.010  -3.906  0.00  0.00    +0.193 C 
ATOM      7  O   UNL     1      25.738  11.724  -4.545  0.00  0.00    -0.219 OA
BRANCH   6   8
ATOM      8  C   UNL     1      25.000  12.681  -2.514  0.00  0.00    +0.212 C 
ATOM      9  O   UNL     1      25.469  13.624  -1.537  0.00  0.00    -0.218 OA
BRANCH   8  10
ATOM     10  C   UNL     1      23.424  12.668  -2.486  0.00  0.00    +0.171 C 
ATOM     11  O   UNL     1      22.858  13.889  -2.949  0.00  0.00    -0.343 OA
ATOM     12  C   UNL     1      21.513  14.239  -2.804  0.00  0.00    +0.220 C 
ATOM     13  C   UNL     1      21.032  14.066  -1.352  0.00  0.00    +0.076 C 
ATOM     14  C   UNL     1      21.378  12.633  -0.918  0.00  0.00    +0.177 C 
ATOM     15  O   UNL     1      20.917  12.406   0.407  0.00  0.00    -0.221 OA
ATOM     16  C   UNL     1      22.915  12.393  -1.033  0.00  0.00    +0.155 C 
BRANCH  16  17
ATOM     17  N   UNL     1      23.249  11.034  -0.614  0.00  0.00    -0.202 NA
ATOM     18  C   UNL     1      24.030  10.609   0.412  0.00  0.00    +0.242 C 
ATOM     19  C   UNL     1      23.969   9.155   0.802  0.00  0.00    +0.096 C 
ATOM     20  O   UNL     1      24.758  11.410   0.993  0.00  0.00    -0.273 OA
ENDBRANCH  16  17
BRANCH  12  21
ATOM     21  C   UNL     1      20.530  13.482  -3.853  0.00  0.00    +0.391 C 
ATOM     22  O   UNL     1      19.287  13.695  -3.380  0.00  0.00    -0.243 OA
ATOM     23  O   UNL     1      21.281  13.201  -4.925  0.00  0.00    -0.243 OA
ENDBRANCH  12  21
ENDBRANCH   8  10
ENDBRANCH   6   8
ENDBRANCH   5   6
ENDBRANCH   2   5
BRANCH   1  24
ATOM     24  O   UNL     1      29.291  11.543  -3.464  0.00  0.00    -0.450 OA
BRANCH  24  25
ATOM     25  C   UNL     1      30.388  11.087  -4.221  0.00  0.00    +0.240 C 
BRANCH  25  26
ATOM     26  C   UNL     1      31.095  12.107  -5.133  0.00  0.00    +0.100 C 
BRANCH  26  28
ATOM     27  N   UNL     1      32.807  13.871  -4.842  0.00  0.00    -0.134 NA
ATOM     28  C   UNL     1      32.282  12.666  -4.457  0.00  0.00    +0.086 A 
ATOM     29  C   UNL     1      33.031  12.162  -3.417  0.00  0.00    +0.133 A 
ATOM     30  N   UNL     1      34.000  13.101  -3.225  0.00  0.00    -0.250 N 
ATOM     31  N   UNL     1      33.860  14.130  -4.077  0.00  0.00    -0.065 NA
BRANCH  30  32
ATOM     32  C   UNL     1      35.083  13.087  -2.263  0.00  0.00    +0.164 C 
BRANCH  32  33
ATOM     33  C   UNL     1      34.626  13.603  -0.907  0.00  0.00    +0.129 C 
BRANCH  33  34
ATOM     34  N   UNL     1      33.695  14.722  -0.966  0.00  0.00    -0.298 N 
ATOM     35  H   UNL     1      34.018  15.653  -1.190  0.00  0.00    +0.150 HD
ATOM     36  C   UNL     1      32.496  14.604  -0.313  0.00  0.00    +0.300 C 
ATOM     37  O   UNL     1      32.135  13.563   0.232  0.00  0.00    -0.253 OA
ATOM     38  N   UNL     1      31.726  15.726  -0.342  0.00  0.00    -0.292 N 
ATOM     39  H   UNL     1      32.041  16.594  -0.752  0.00  0.00    +0.151 HD
BRANCH  38  40
ATOM     40  C   UNL     1      30.441  15.700   0.314  0.00  0.00    +0.180 C 
BRANCH  40  41
ATOM     41  C   UNL     1      29.393  16.459  -0.414  0.00  0.00    +0.122 A 
ATOM     42  O   UNL     1      28.478  15.776  -1.164  0.00  0.00    -0.466 OA
ATOM     43  C   UNL     1      27.647  16.705  -1.713  0.00  0.00    +0.195 A 
ATOM     44  C   UNL     1      28.014  17.974  -1.329  0.00  0.00    +0.041 A 
ATOM     45  C   UNL     1      29.142  17.816  -0.491  0.00  0.00    +0.046 A 
ENDBRANCH  40  41
ENDBRANCH  38  40
ENDBRANCH  33  34
ENDBRANCH  32  33
ENDBRANCH  30  32
ENDBRANCH  26  28
ENDBRANCH  25  26
ENDBRANCH  24  25
ENDBRANCH   1  24
TORSDOF 15
