REMARK VINA RESULT:    -6.514      1.796      3.492
REMARK INTER + INTRA:         -14.725
REMARK INTER:                 -12.819
REMARK INTRA:                  -1.905
REMARK UNBOUND:                -2.880
REMARK  Name = lig_assembled_21.pdb
REMARK  15 active torsions:
REMARK  status: ('A' for Active; 'I' for Inactive)
REMARK    1  A    between atoms: _2  and  _8
REMARK    2  A    between atoms: _5  and  _6
REMARK    3  A    between atoms: _5  and  _18
REMARK    4  A    between atoms: _8  and  _9
REMARK    5  A    between atoms: _10  and  _17
REMARK    6  A    between atoms: _11  and  _12
REMARK    7  A    between atoms: _11  and  _17
REMARK    8  A    between atoms: _18  and  _20
REMARK    9  A    between atoms: _19  and  _24
REMARK   10  A    between atoms: _20  and  _23
REMARK   11  A    between atoms: _28  and  _38
REMARK   12  A    between atoms: _30  and  _31
REMARK   13  A    between atoms: _32  and  _34
REMARK   14  A    between atoms: _34  and  _36
REMARK   15  A    between atoms: _36  and  _38
REMARK                            x       y       z     vdW  Elec       q    Type
REMARK                         _______ _______ _______ _____ _____    ______ ____
ROOT
ATOM      1  C   UNL     1      28.756  17.031  -0.506  0.00  0.00    +0.400 C 
ATOM      2  N   UNL     1      28.851  15.876   0.234  0.00  0.00    -0.278 N 
ATOM      3  H   UNL     1      29.593  16.112   0.966  0.00  0.00    +0.152 HD
ATOM      4  O   UNL     1      29.335  18.033  -0.093  0.00  0.00    -0.226 OA
ENDROOT
BRANCH   2   5
ATOM      5  C   UNL     1      28.394  14.509   0.471  0.00  0.00    +0.152 C 
BRANCH   5   6
ATOM      6  C   UNL     1      28.637  13.948   1.887  0.00  0.00    +0.193 C 
ATOM      7  O   UNL     1      27.411  13.298   2.292  0.00  0.00    -0.219 OA
BRANCH   6   8
ATOM      8  C   UNL     1      29.721  12.860   2.049  0.00  0.00    +0.212 C 
ATOM      9  O   UNL     1      29.332  11.658   1.364  0.00  0.00    -0.218 OA
BRANCH   8  10
ATOM     10  C   UNL     1      31.137  13.306   1.519  0.00  0.00    +0.171 C 
ATOM     11  O   UNL     1      31.263  13.163   0.107  0.00  0.00    -0.343 OA
ATOM     12  C   UNL     1      32.471  13.251  -0.589  0.00  0.00    +0.220 C 
ATOM     13  C   UNL     1      33.553  12.350   0.031  0.00  0.00    +0.076 C 
ATOM     14  C   UNL     1      33.642  12.696   1.527  0.00  0.00    +0.177 C 
ATOM     15  O   UNL     1      34.658  11.917   2.142  0.00  0.00    -0.221 OA
ATOM     16  C   UNL     1      32.259  12.467   2.214  0.00  0.00    +0.155 C 
BRANCH  16  17
ATOM     17  N   UNL     1      32.341  12.788   3.637  0.00  0.00    -0.202 NA
ATOM     18  C   UNL     1      32.117  11.999   4.718  0.00  0.00    +0.242 C 
ATOM     19  C   UNL     1      32.558  12.496   6.070  0.00  0.00    +0.096 C 
ATOM     20  O   UNL     1      31.567  10.909   4.572  0.00  0.00    -0.273 OA
ENDBRANCH  16  17
BRANCH  12  21
ATOM     21  C   UNL     1      32.999  14.776  -0.778  0.00  0.00    +0.391 C 
ATOM     22  O   UNL     1      34.288  14.653  -1.153  0.00  0.00    -0.243 OA
ATOM     23  O   UNL     1      31.906  15.548  -0.789  0.00  0.00    -0.243 OA
ENDBRANCH  12  21
ENDBRANCH   8  10
ENDBRANCH   6   8
ENDBRANCH   5   6
ENDBRANCH   2   5
BRANCH   1  24
ATOM     24  O   UNL     1      28.079  16.939  -1.603  0.00  0.00    -0.450 OA
BRANCH  24  25
ATOM     25  C   UNL     1      27.157  17.693  -2.356  0.00  0.00    +0.240 C 
BRANCH  25  26
ATOM     26  C   UNL     1      26.737  17.136  -3.729  0.00  0.00    +0.100 C 
BRANCH  26  28
ATOM     27  N   UNL     1      25.635  15.123  -4.648  0.00  0.00    -0.134 NA
ATOM     28  C   UNL     1      25.999  15.870  -3.562  0.00  0.00    +0.086 A 
ATOM     29  C   UNL     1      25.596  15.222  -2.416  0.00  0.00    +0.134 A 
ATOM     30  N   UNL     1      25.073  14.041  -2.868  0.00  0.00    -0.247 N 
ATOM     31  N   UNL     1      25.067  14.009  -4.213  0.00  0.00    -0.065 NA
BRANCH  30  32
ATOM     32  C   UNL     1      24.657  12.914  -2.040  0.00  0.00    +0.184 C 
BRANCH  32  33
ATOM     33  C   UNL     1      23.237  12.963  -1.531  0.00  0.00    +0.016 A 
ATOM     34  C   UNL     1      22.679  11.913  -0.780  0.00  0.00    +0.137 A 
ATOM     35  C   UNL     1      21.366  11.979  -0.315  0.00  0.00    +0.047 A 
ATOM     36  C   UNL     1      20.595  13.110  -0.583  0.00  0.00    +0.004 A 
ATOM     37  C   UNL     1      21.123  14.155  -1.336  0.00  0.00    +0.001 A 
ATOM     38  C   UNL     1      22.436  14.084  -1.805  0.00  0.00    +0.009 A 
BRANCH  34  39
ATOM     39  O   UNL     1      23.483  10.762  -0.596  0.00  0.00    -0.426 OA
BRANCH  39  40
ATOM     40  C   UNL     1      23.831  10.281   0.668  0.00  0.00    +0.309 C 
ATOM     41  O   UNL     1      23.713   9.135   1.083  0.00  0.00    -0.251 OA
ATOM     42  C   UNL     1      24.464  11.391   1.454  0.00  0.00    +0.136 C 
ENDBRANCH  39  40
ENDBRANCH  34  39
ENDBRANCH  32  33
ENDBRANCH  30  32
ENDBRANCH  26  28
ENDBRANCH  25  26
ENDBRANCH  24  25
ENDBRANCH   1  24
TORSDOF 14
