REMARK VINA RESULT:    -7.158      2.413      4.182
REMARK INTER + INTRA:         -12.805
REMARK INTER:                 -11.716
REMARK INTRA:                  -1.089
REMARK UNBOUND:                -0.626
REMARK  Name = lig_assembled_5.pdb
REMARK  13 active torsions:
REMARK  status: ('A' for Active; 'I' for Inactive)
REMARK    1  A    between atoms: _2  and  _8
REMARK    2  A    between atoms: _5  and  _6
REMARK    3  A    between atoms: _5  and  _15
REMARK    4  A    between atoms: _11  and  _14
REMARK    5  A    between atoms: _12  and  _14
REMARK    6  A    between atoms: _15  and  _17
REMARK    7  A    between atoms: _16  and  _21
REMARK    8  A    between atoms: _17  and  _20
REMARK    9  A    between atoms: _25  and  _35
REMARK   10  A    between atoms: _27  and  _28
REMARK   11  A    between atoms: _29  and  _31
REMARK   12  A    between atoms: _31  and  _33
REMARK   13  A    between atoms: _33  and  _35
REMARK                            x       y       z     vdW  Elec       q    Type
REMARK                         _______ _______ _______ _____ _____    ______ ____
ROOT
ATOM      1  C   UNL     1      28.643  17.002  -0.474  0.00  0.00    +0.400 C 
ATOM      2  N   UNL     1      28.650  15.882   0.323  0.00  0.00    -0.278 N 
ATOM      3  H   UNL     1      29.184  16.201   1.193  0.00  0.00    +0.152 HD
ATOM      4  O   UNL     1      29.035  18.061   0.011  0.00  0.00    -0.226 OA
ENDROOT
BRANCH   2   5
ATOM      5  C   UNL     1      28.253  14.490   0.517  0.00  0.00    +0.152 C 
BRANCH   5   6
ATOM      6  C   UNL     1      28.577  13.876   1.894  0.00  0.00    +0.193 C 
ATOM      7  O   UNL     1      27.385  13.185   2.331  0.00  0.00    -0.219 OA
BRANCH   6   8
ATOM      8  C   UNL     1      29.687  12.804   1.957  0.00  0.00    +0.212 C 
ATOM      9  O   UNL     1      29.243  11.584   1.343  0.00  0.00    -0.218 OA
BRANCH   8  10
ATOM     10  C   UNL     1      31.030  13.256   1.266  0.00  0.00    +0.171 C 
ATOM     11  O   UNL     1      30.875  13.494  -0.130  0.00  0.00    -0.343 OA
ATOM     12  C   UNL     1      31.935  13.665  -1.023  0.00  0.00    +0.220 C 
ATOM     13  C   UNL     1      32.977  12.541  -0.893  0.00  0.00    +0.076 C 
ATOM     14  C   UNL     1      33.385  12.456   0.587  0.00  0.00    +0.177 C 
ATOM     15  O   UNL     1      34.380  11.456   0.756  0.00  0.00    -0.221 OA
ATOM     16  C   UNL     1      32.134  12.168   1.474  0.00  0.00    +0.155 C 
BRANCH  16  17
ATOM     17  N   UNL     1      32.518  12.080   2.880  0.00  0.00    -0.202 NA
ATOM     18  C   UNL     1      32.869  13.064   3.747  0.00  0.00    +0.242 C 
ATOM     19  C   UNL     1      32.932  12.734   5.216  0.00  0.00    +0.096 C 
ATOM     20  O   UNL     1      33.122  14.188   3.320  0.00  0.00    -0.273 OA
ENDBRANCH  16  17
BRANCH  12  21
ATOM     21  C   UNL     1      32.626  15.133  -0.933  0.00  0.00    +0.391 C 
ATOM     22  O   UNL     1      33.800  15.004  -1.581  0.00  0.00    -0.243 OA
ATOM     23  O   UNL     1      31.663  15.971  -0.529  0.00  0.00    -0.243 OA
ENDBRANCH  12  21
ENDBRANCH   8  10
ENDBRANCH   6   8
ENDBRANCH   5   6
ENDBRANCH   2   5
BRANCH   1  24
ATOM     24  O   UNL     1      28.244  16.821  -1.690  0.00  0.00    -0.450 OA
BRANCH  24  25
ATOM     25  C   UNL     1      27.046  16.617  -2.402  0.00  0.00    +0.240 C 
BRANCH  25  26
ATOM     26  C   UNL     1      26.826  15.231  -3.039  0.00  0.00    +0.100 C 
BRANCH  26  28
ATOM     27  N   UNL     1      25.271  13.802  -1.748  0.00  0.00    -0.134 NA
ATOM     28  C   UNL     1      25.474  14.733  -2.725  0.00  0.00    +0.086 A 
ATOM     29  C   UNL     1      24.261  15.069  -3.283  0.00  0.00    +0.139 A 
ATOM     30  N   UNL     1      23.331  14.329  -2.586  0.00  0.00    -0.220 N 
ATOM     31  N   UNL     1      23.971  13.556  -1.674  0.00  0.00    -0.061 NA
BRANCH  30  32
ATOM     32  C   UNL     1      21.918  14.335  -2.712  0.00  0.00    +0.067 A 
ATOM     33  C   UNL     1      21.306  14.738  -3.905  0.00  0.00    +0.031 A 
ATOM     34  C   UNL     1      19.912  14.797  -3.988  0.00  0.00    +0.048 A 
ATOM     35  C   UNL     1      19.114  14.435  -2.901  0.00  0.00    +0.120 A 
ATOM     36  C   UNL     1      19.720  14.015  -1.718  0.00  0.00    +0.048 A 
ATOM     37  C   UNL     1      21.118  13.965  -1.621  0.00  0.00    +0.031 A 
BRANCH  35  38
ATOM     38  O   UNL     1      17.771  14.596  -3.096  0.00  0.00    -0.495 OA
ATOM     39  C   UNL     1      17.355  15.852  -3.616  0.00  0.00    +0.277 C 
ENDBRANCH  35  38
ENDBRANCH  30  32
ENDBRANCH  26  28
ENDBRANCH  25  26
ENDBRANCH  24  25
ENDBRANCH   1  24
TORSDOF 12
