REMARK VINA RESULT:    -6.749      1.298      1.627
REMARK INTER + INTRA:         -17.591
REMARK INTER:                 -14.283
REMARK INTRA:                  -3.308
REMARK UNBOUND:                -2.358
REMARK  Name = lig_assembled_30.pdb
REMARK  22 active torsions:
REMARK  status: ('A' for Active; 'I' for Inactive)
REMARK    1  A    between atoms: _2  and  _8
REMARK    2  A    between atoms: _4  and  _17
REMARK    3  A    between atoms: _4  and  _18
REMARK    4  A    between atoms: _5  and  _6
REMARK    5  A    between atoms: _5  and  _20
REMARK    6  A    between atoms: _8  and  _9
REMARK    7  A    between atoms: _9  and  _10
REMARK    8  A    between atoms: _10  and  _11
REMARK    9  A    between atoms: _11  and  _12
REMARK   10  A    between atoms: _12  and  _13
REMARK   11  A    between atoms: _13  and  _14
REMARK   12  A    between atoms: _14  and  _15
REMARK   13  A    between atoms: _15  and  _16
REMARK   14  A    between atoms: _16  and  _17
REMARK   15  A    between atoms: _20  and  _22
REMARK   16  A    between atoms: _21  and  _26
REMARK   17  A    between atoms: _22  and  _25
REMARK   18  A    between atoms: _30  and  _40
REMARK   19  A    between atoms: _32  and  _33
REMARK   20  A    between atoms: _34  and  _36
REMARK   21  A    between atoms: _36  and  _38
REMARK   22  A    between atoms: _38  and  _40
REMARK                            x       y       z     vdW  Elec       q    Type
REMARK                         _______ _______ _______ _____ _____    ______ ____
ROOT
ATOM      1  C   UNL     1      27.778  17.228  -1.301  0.00  0.00    +0.400 C 
ATOM      2  N   UNL     1      27.880  15.934  -0.848  0.00  0.00    -0.278 N 
ATOM      3  H   UNL     1      28.112  16.052   0.189  0.00  0.00    +0.152 HD
ATOM      4  O   UNL     1      27.782  18.134  -0.471  0.00  0.00    -0.226 OA
ENDROOT
BRANCH   1   5
ATOM      5  O   UNL     1      27.717  17.369  -2.584  0.00  0.00    -0.450 OA
BRANCH   5   6
ATOM      6  C   UNL     1      26.753  17.401  -3.611  0.00  0.00    +0.240 C 
BRANCH   6   7
ATOM      7  C   UNL     1      26.392  16.066  -4.290  0.00  0.00    +0.100 C 
BRANCH   7   9
ATOM      8  N   UNL     1      24.819  15.683  -2.416  0.00  0.00    -0.134 NA
ATOM      9  C   UNL     1      25.128  15.541  -3.744  0.00  0.00    +0.086 A 
ATOM     10  C   UNL     1      24.104  14.868  -4.375  0.00  0.00    +0.133 A 
ATOM     11  N   UNL     1      23.208  14.632  -3.378  0.00  0.00    -0.251 N 
ATOM     12  N   UNL     1      23.639  15.119  -2.203  0.00  0.00    -0.065 NA
BRANCH  11  13
ATOM     13  C   UNL     1      21.953  13.917  -3.461  0.00  0.00    +0.145 C 
BRANCH  13  14
ATOM     14  C   UNL     1      20.910  14.520  -2.527  0.00  0.00    +0.023 C 
BRANCH  14  15
ATOM     15  C   UNL     1      20.584  13.592  -1.360  0.00  0.00    +0.002 C 
BRANCH  15  16
ATOM     16  C   UNL     1      21.069  12.174  -1.662  0.00  0.00    +0.000 C 
BRANCH  16  17
ATOM     17  C   UNL     1      21.536  11.453  -0.401  0.00  0.00    +0.000 C 
BRANCH  17  18
ATOM     18  C   UNL     1      21.087  12.209   0.852  0.00  0.00    +0.000 C 
BRANCH  18  19
ATOM     19  C   UNL     1      21.823  11.700   2.088  0.00  0.00    +0.000 C 
BRANCH  19  20
ATOM     20  C   UNL     1      22.620  10.430   1.786  0.00  0.00    +0.001 C 
BRANCH  20  21
ATOM     21  C   UNL     1      23.872  10.365   2.659  0.00  0.00    +0.011 C 
BRANCH  21  22
ATOM     22  C   UNL     1      25.137  10.173   1.827  0.00  0.00    +0.120 C 
BRANCH  22  23
ATOM     23  C   UNL     1      26.187  11.206   2.171  0.00  0.00    +0.305 C 
ATOM     24  O   UNL     1      26.006  12.201   2.854  0.00  0.00    -0.251 OA
BRANCH  23  25
ATOM     25  O   UNL     1      27.392  10.914   1.630  0.00  0.00    -0.481 OA
ATOM     26  H   UNL     1      27.917  11.702   1.393  0.00  0.00    +0.295 HD
ENDBRANCH  23  25
ENDBRANCH  22  23
ENDBRANCH  21  22
ENDBRANCH  20  21
ENDBRANCH  19  20
ENDBRANCH  18  19
ENDBRANCH  17  18
ENDBRANCH  16  17
ENDBRANCH  15  16
ENDBRANCH  14  15
ENDBRANCH  13  14
ENDBRANCH  11  13
ENDBRANCH   7   9
ENDBRANCH   6   7
ENDBRANCH   5   6
ENDBRANCH   1   5
BRANCH   2  27
ATOM     27  C   UNL     1      27.801  14.504  -1.138  0.00  0.00    +0.152 C 
BRANCH  27  28
ATOM     28  C   UNL     1      28.736  13.592  -0.317  0.00  0.00    +0.193 C 
ATOM     29  O   UNL     1      28.533  12.246  -0.802  0.00  0.00    -0.219 OA
BRANCH  28  30
ATOM     30  C   UNL     1      30.257  13.824  -0.448  0.00  0.00    +0.212 C 
ATOM     31  O   UNL     1      30.547  15.230  -0.502  0.00  0.00    -0.218 OA
BRANCH  30  32
ATOM     32  C   UNL     1      31.090  13.182   0.727  0.00  0.00    +0.171 C 
ATOM     33  O   UNL     1      30.527  13.450   2.007  0.00  0.00    -0.343 OA
ATOM     34  C   UNL     1      31.180  13.214   3.219  0.00  0.00    +0.220 C 
ATOM     35  C   UNL     1      32.591  13.826   3.236  0.00  0.00    +0.076 C 
ATOM     36  C   UNL     1      33.333  13.311   1.991  0.00  0.00    +0.177 C 
ATOM     37  O   UNL     1      34.661  13.816   1.978  0.00  0.00    -0.221 OA
ATOM     38  C   UNL     1      32.559  13.717   0.698  0.00  0.00    +0.155 C 
BRANCH  38  39
ATOM     39  N   UNL     1      33.264  13.236  -0.487  0.00  0.00    -0.202 NA
ATOM     40  C   UNL     1      33.786  13.932  -1.529  0.00  0.00    +0.242 C 
ATOM     41  C   UNL     1      34.719  13.217  -2.472  0.00  0.00    +0.096 C 
ATOM     42  O   UNL     1      33.491  15.116  -1.677  0.00  0.00    -0.273 OA
ENDBRANCH  38  39
BRANCH  34  43
ATOM     43  C   UNL     1      31.203  11.648   3.648  0.00  0.00    +0.391 C 
ATOM     44  O   UNL     1      32.238  11.536   4.503  0.00  0.00    -0.243 OA
ATOM     45  O   UNL     1      30.034  11.136   3.243  0.00  0.00    -0.243 OA
ENDBRANCH  34  43
ENDBRANCH  30  32
ENDBRANCH  28  30
ENDBRANCH  27  28
ENDBRANCH   2  27
TORSDOF 22
