REMARK VINA RESULT:    -6.540      3.359      5.261
REMARK INTER + INTRA:         -13.823
REMARK INTER:                 -11.248
REMARK INTRA:                  -2.575
REMARK UNBOUND:                -1.931
REMARK  Name = lig_assembled_55.pdb
REMARK  15 active torsions:
REMARK  status: ('A' for Active; 'I' for Inactive)
REMARK    1  A    between atoms: _2  and  _9
REMARK    2  A    between atoms: _3  and  _10
REMARK    3  A    between atoms: _3  and  _41
REMARK    4  A    between atoms: _5  and  _41
REMARK    5  A    between atoms: _6  and  _7
REMARK    6  A    between atoms: _6  and  _13
REMARK    7  A    between atoms: _9  and  _10
REMARK    8  A    between atoms: _13  and  _15
REMARK    9  A    between atoms: _14  and  _19
REMARK   10  A    between atoms: _15  and  _18
REMARK   11  A    between atoms: _23  and  _33
REMARK   12  A    between atoms: _25  and  _26
REMARK   13  A    between atoms: _27  and  _29
REMARK   14  A    between atoms: _29  and  _31
REMARK   15  A    between atoms: _31  and  _33
REMARK                            x       y       z     vdW  Elec       q    Type
REMARK                         _______ _______ _______ _____ _____    ______ ____
ROOT
ATOM      1  C   UNL     1      27.501  17.487  -1.522  0.00  0.00    +0.400 C 
ATOM      2  N   UNL     1      28.164  16.455  -0.901  0.00  0.00    -0.278 N 
ATOM      3  H   UNL     1      28.909  16.955  -0.320  0.00  0.00    +0.152 HD
ATOM      4  O   UNL     1      27.752  18.635  -1.166  0.00  0.00    -0.226 OA
ENDROOT
BRANCH   2   5
ATOM      5  C   UNL     1      28.295  15.019  -0.672  0.00  0.00    +0.152 C 
BRANCH   5   6
ATOM      6  C   UNL     1      29.377  14.587   0.339  0.00  0.00    +0.193 C 
ATOM      7  O   UNL     1      29.187  13.174   0.572  0.00  0.00    -0.219 OA
BRANCH   6   8
ATOM      8  C   UNL     1      30.853  14.711  -0.097  0.00  0.00    +0.212 C 
ATOM      9  O   UNL     1      31.238  16.093  -0.180  0.00  0.00    -0.218 OA
BRANCH   8  10
ATOM     10  C   UNL     1      31.854  13.967   0.866  0.00  0.00    +0.171 C 
ATOM     11  O   UNL     1      32.015  14.637   2.113  0.00  0.00    -0.343 OA
ATOM     12  C   UNL     1      33.010  14.337   3.046  0.00  0.00    +0.220 C 
ATOM     13  C   UNL     1      34.405  14.296   2.398  0.00  0.00    +0.076 C 
ATOM     14  C   UNL     1      34.331  13.335   1.200  0.00  0.00    +0.177 C 
ATOM     15  O   UNL     1      35.608  13.230   0.587  0.00  0.00    -0.221 OA
ATOM     16  C   UNL     1      33.254  13.826   0.183  0.00  0.00    +0.155 C 
BRANCH  16  17
ATOM     17  N   UNL     1      33.185  12.920  -0.960  0.00  0.00    -0.202 NA
ATOM     18  C   UNL     1      33.259  13.190  -2.288  0.00  0.00    +0.242 C 
ATOM     19  C   UNL     1      33.457  12.042  -3.242  0.00  0.00    +0.096 C 
ATOM     20  O   UNL     1      33.167  14.353  -2.677  0.00  0.00    -0.273 OA
ENDBRANCH  16  17
BRANCH  12  21
ATOM     21  C   UNL     1      32.710  12.990   3.902  0.00  0.00    +0.391 C 
ATOM     22  O   UNL     1      33.874  12.703   4.518  0.00  0.00    -0.243 OA
ATOM     23  O   UNL     1      31.379  12.850   3.918  0.00  0.00    -0.243 OA
ENDBRANCH  12  21
ENDBRANCH   8  10
ENDBRANCH   6   8
ENDBRANCH   5   6
ENDBRANCH   2   5
BRANCH   1  24
ATOM     24  O   UNL     1      26.683  17.141  -2.462  0.00  0.00    -0.450 OA
BRANCH  24  25
ATOM     25  C   UNL     1      26.679  16.944  -3.856  0.00  0.00    +0.240 C 
BRANCH  25  26
ATOM     26  C   UNL     1      25.788  15.817  -4.413  0.00  0.00    +0.100 C 
BRANCH  26  28
ATOM     27  N   UNL     1      27.073  13.744  -4.005  0.00  0.00    -0.134 NA
ATOM     28  C   UNL     1      26.024  14.562  -3.676  0.00  0.00    +0.086 A 
ATOM     29  C   UNL     1      25.330  14.004  -2.626  0.00  0.00    +0.133 A 
ATOM     30  N   UNL     1      25.993  12.839  -2.376  0.00  0.00    -0.250 N 
ATOM     31  N   UNL     1      27.040  12.688  -3.206  0.00  0.00    -0.065 NA
BRANCH  30  32
ATOM     32  C   UNL     1      25.708  11.848  -1.361  0.00  0.00    +0.162 C 
BRANCH  32  33
ATOM     33  C   UNL     1      25.685  12.411   0.064  0.00  0.00    +0.129 C 
BRANCH  33  34
ATOM     34  N   UNL     1      26.660  11.756   0.984  0.00  0.00    -0.193 NA
ATOM     35  H   UNL     1      27.611  12.097   0.801  0.00  0.00    +0.148 HD
BRANCH  34  36
ATOM     36  S   UNL     1      26.261  11.769   2.622  0.00  0.00    +0.027 S 
ATOM     37  O   UNL     1      26.829  12.976   3.179  0.00  0.00    -0.158 OA
ATOM     38  O   UNL     1      24.848  11.482   2.730  0.00  0.00    -0.158 OA
ATOM     39  C   UNL     1      27.194  10.382   3.226  0.00  0.00    +0.214 C 
ENDBRANCH  34  36
ENDBRANCH  33  34
ENDBRANCH  32  33
ENDBRANCH  30  32
ENDBRANCH  26  28
ENDBRANCH  25  26
ENDBRANCH  24  25
ENDBRANCH   1  24
TORSDOF 14
