REMARK VINA RESULT:    -6.717      2.869      8.571
REMARK INTER + INTRA:         -15.146
REMARK INTER:                 -12.501
REMARK INTRA:                  -2.645
REMARK UNBOUND:                -2.540
REMARK  Name = lig_assembled_31.pdb
REMARK  15 active torsions:
REMARK  status: ('A' for Active; 'I' for Inactive)
REMARK    1  A    between atoms: _2  and  _10
REMARK    2  A    between atoms: _3  and  _11
REMARK    3  A    between atoms: _4  and  _13
REMARK    4  A    between atoms: _7  and  _8
REMARK    5  A    between atoms: _7  and  _19
REMARK    6  A    between atoms: _10  and  _11
REMARK    7  A    between atoms: _13  and  _14
REMARK    8  A    between atoms: _19  and  _21
REMARK    9  A    between atoms: _20  and  _25
REMARK   10  A    between atoms: _21  and  _24
REMARK   11  A    between atoms: _29  and  _39
REMARK   12  A    between atoms: _31  and  _32
REMARK   13  A    between atoms: _33  and  _35
REMARK   14  A    between atoms: _35  and  _37
REMARK   15  A    between atoms: _37  and  _39
REMARK                            x       y       z     vdW  Elec       q    Type
REMARK                         _______ _______ _______ _____ _____    ______ ____
ROOT
ATOM      1  C   UNL     1      25.228  12.078   0.526  0.00  0.00    +0.400 C 
ATOM      2  N   UNL     1      26.584  12.241   0.689  0.00  0.00    -0.278 N 
ATOM      3  H   UNL     1      26.861  12.852  -0.142  0.00  0.00    +0.152 HD
ATOM      4  O   UNL     1      24.663  12.754  -0.330  0.00  0.00    -0.226 OA
ENDROOT
BRANCH   2   5
ATOM      5  C   UNL     1      27.783  11.971   1.478  0.00  0.00    +0.152 C 
BRANCH   5   6
ATOM      6  C   UNL     1      29.131  12.194   0.763  0.00  0.00    +0.193 C 
ATOM      7  O   UNL     1      28.824  12.516  -0.611  0.00  0.00    -0.219 OA
BRANCH   6   8
ATOM      8  C   UNL     1      30.012  13.367   1.246  0.00  0.00    +0.212 C 
ATOM      9  O   UNL     1      29.271  14.216   2.138  0.00  0.00    -0.218 OA
BRANCH   8  10
ATOM     10  C   UNL     1      31.330  12.900   1.974  0.00  0.00    +0.171 C 
ATOM     11  O   UNL     1      31.220  12.951   3.393  0.00  0.00    -0.343 OA
ATOM     12  C   UNL     1      32.298  12.829   4.272  0.00  0.00    +0.220 C 
ATOM     13  C   UNL     1      33.450  13.778   3.897  0.00  0.00    +0.076 C 
ATOM     14  C   UNL     1      33.790  13.531   2.418  0.00  0.00    +0.177 C 
ATOM     15  O   UNL     1      34.878  14.356   2.029  0.00  0.00    -0.221 OA
ATOM     16  C   UNL     1      32.535  13.791   1.528  0.00  0.00    +0.155 C 
BRANCH  16  17
ATOM     17  N   UNL     1      32.855  13.564   0.121  0.00  0.00    -0.202 NA
ATOM     18  C   UNL     1      32.795  14.420  -0.932  0.00  0.00    +0.242 C 
ATOM     19  C   UNL     1      33.462  14.015  -2.221  0.00  0.00    +0.096 C 
ATOM     20  O   UNL     1      32.208  15.493  -0.810  0.00  0.00    -0.273 OA
ENDBRANCH  16  17
BRANCH  12  21
ATOM     21  C   UNL     1      32.818  11.300   4.450  0.00  0.00    +0.391 C 
ATOM     22  O   UNL     1      32.017  10.566   3.654  0.00  0.00    -0.243 OA
ATOM     23  O   UNL     1      34.004  11.382   5.065  0.00  0.00    -0.243 OA
ENDBRANCH  12  21
ENDBRANCH   8  10
ENDBRANCH   6   8
ENDBRANCH   5   6
ENDBRANCH   2   5
BRANCH   1  24
ATOM     24  O   UNL     1      24.675  11.190   1.285  0.00  0.00    -0.450 OA
BRANCH  24  25
ATOM     25  C   UNL     1      23.535  11.039   2.098  0.00  0.00    +0.240 C 
BRANCH  25  26
ATOM     26  C   UNL     1      22.288  10.397   1.462  0.00  0.00    +0.100 C 
BRANCH  26  28
ATOM     27  N   UNL     1      21.870  10.823  -0.941  0.00  0.00    -0.134 NA
ATOM     28  C   UNL     1      21.779  11.239   0.361  0.00  0.00    +0.086 A 
ATOM     29  C   UNL     1      21.176  12.476   0.396  0.00  0.00    +0.133 A 
ATOM     30  N   UNL     1      20.934  12.760  -0.916  0.00  0.00    -0.250 N 
ATOM     31  N   UNL     1      21.346  11.763  -1.716  0.00  0.00    -0.065 NA
BRANCH  30  32
ATOM     32  C   UNL     1      20.325  13.948  -1.476  0.00  0.00    +0.164 C 
BRANCH  32  33
ATOM     33  C   UNL     1      21.316  14.732  -2.324  0.00  0.00    +0.129 C 
BRANCH  33  34
ATOM     34  N   UNL     1      22.670  14.777  -1.788  0.00  0.00    -0.298 N 
ATOM     35  H   UNL     1      22.831  14.789  -0.791  0.00  0.00    +0.150 HD
ATOM     36  C   UNL     1      23.676  15.231  -2.601  0.00  0.00    +0.300 C 
ATOM     37  O   UNL     1      23.499  15.504  -3.787  0.00  0.00    -0.253 OA
ATOM     38  N   UNL     1      24.890  15.328  -1.995  0.00  0.00    -0.292 N 
ATOM     39  H   UNL     1      25.025  15.144  -1.011  0.00  0.00    +0.151 HD
BRANCH  38  40
ATOM     40  C   UNL     1      26.015  15.791  -2.771  0.00  0.00    +0.180 C 
BRANCH  40  41
ATOM     41  C   UNL     1      27.082  16.414  -1.948  0.00  0.00    +0.122 A 
ATOM     42  O   UNL     1      27.894  15.612  -1.197  0.00  0.00    -0.466 OA
ATOM     43  C   UNL     1      28.770  16.433  -0.552  0.00  0.00    +0.195 A 
ATOM     44  C   UNL     1      28.531  17.748  -0.876  0.00  0.00    +0.041 A 
ATOM     45  C   UNL     1      27.441  17.737  -1.776  0.00  0.00    +0.046 A 
ENDBRANCH  40  41
ENDBRANCH  38  40
ENDBRANCH  33  34
ENDBRANCH  32  33
ENDBRANCH  30  32
ENDBRANCH  26  28
ENDBRANCH  25  26
ENDBRANCH  24  25
ENDBRANCH   1  24
TORSDOF 15
