REMARK VINA RESULT:    -7.305      2.007      2.903
REMARK INTER + INTRA:         -14.548
REMARK INTER:                 -12.030
REMARK INTRA:                  -2.518
REMARK UNBOUND:                -1.904
REMARK  Name = lig_assembled_73.pdb
REMARK  13 active torsions:
REMARK  status: ('A' for Active; 'I' for Inactive)
REMARK    1  A    between atoms: _2  and  _9
REMARK    2  A    between atoms: _3  and  _13
REMARK    3  A    between atoms: _6  and  _7
REMARK    4  A    between atoms: _6  and  _17
REMARK    5  A    between atoms: _12  and  _15
REMARK    6  A    between atoms: _17  and  _19
REMARK    7  A    between atoms: _18  and  _23
REMARK    8  A    between atoms: _19  and  _22
REMARK    9  A    between atoms: _27  and  _37
REMARK   10  A    between atoms: _29  and  _30
REMARK   11  A    between atoms: _31  and  _33
REMARK   12  A    between atoms: _33  and  _35
REMARK   13  A    between atoms: _35  and  _37
REMARK                            x       y       z     vdW  Elec       q    Type
REMARK                         _______ _______ _______ _____ _____    ______ ____
ROOT
ATOM      1  C   UNL     1      27.869  17.458  -1.045  0.00  0.00    +0.400 C 
ATOM      2  N   UNL     1      28.505  16.510  -0.278  0.00  0.00    -0.278 N 
ATOM      3  H   UNL     1      28.672  17.014   0.649  0.00  0.00    +0.152 HD
ATOM      4  O   UNL     1      27.499  18.494  -0.498  0.00  0.00    -0.226 OA
ENDROOT
BRANCH   2   5
ATOM      5  C   UNL     1      29.029  15.152  -0.160  0.00  0.00    +0.152 C 
BRANCH   5   6
ATOM      6  C   UNL     1      30.565  15.017  -0.123  0.00  0.00    +0.193 C 
ATOM      7  O   UNL     1      31.101  16.357  -0.174  0.00  0.00    -0.219 OA
BRANCH   6   8
ATOM      8  C   UNL     1      31.197  14.396   1.142  0.00  0.00    +0.212 C 
ATOM      9  O   UNL     1      31.421  15.407   2.139  0.00  0.00    -0.218 OA
BRANCH   8  10
ATOM     10  C   UNL     1      30.325  13.247   1.778  0.00  0.00    +0.171 C 
ATOM     11  O   UNL     1      30.146  13.407   3.181  0.00  0.00    -0.343 OA
ATOM     12  C   UNL     1      29.631  12.423   4.027  0.00  0.00    +0.220 C 
ATOM     13  C   UNL     1      30.349  11.075   3.838  0.00  0.00    +0.076 C 
ATOM     14  C   UNL     1      30.299  10.732   2.339  0.00  0.00    +0.177 C 
ATOM     15  O   UNL     1      30.916   9.472   2.114  0.00  0.00    -0.221 OA
ATOM     16  C   UNL     1      30.988  11.857   1.507  0.00  0.00    +0.155 C 
BRANCH  16  17
ATOM     17  N   UNL     1      30.950  11.531   0.084  0.00  0.00    -0.202 NA
ATOM     18  C   UNL     1      29.893  11.481  -0.767  0.00  0.00    +0.242 C 
ATOM     19  C   UNL     1      30.168  11.408  -2.246  0.00  0.00    +0.096 C 
ATOM     20  O   UNL     1      28.749  11.498  -0.316  0.00  0.00    -0.273 OA
ENDBRANCH  16  17
BRANCH  12  21
ATOM     21  C   UNL     1      28.018  12.260   3.924  0.00  0.00    +0.391 C 
ATOM     22  O   UNL     1      27.758  11.040   4.434  0.00  0.00    -0.243 OA
ATOM     23  O   UNL     1      27.539  13.483   3.663  0.00  0.00    -0.243 OA
ENDBRANCH  12  21
ENDBRANCH   8  10
ENDBRANCH   6   8
ENDBRANCH   5   6
ENDBRANCH   2   5
BRANCH   1  24
ATOM     24  O   UNL     1      27.748  17.173  -2.300  0.00  0.00    -0.450 OA
BRANCH  24  25
ATOM     25  C   UNL     1      26.852  17.395  -3.364  0.00  0.00    +0.240 C 
BRANCH  25  26
ATOM     26  C   UNL     1      26.393  16.167  -4.175  0.00  0.00    +0.100 C 
BRANCH  26  28
ATOM     27  N   UNL     1      26.907  14.078  -2.953  0.00  0.00    -0.134 NA
ATOM     28  C   UNL     1      26.020  15.065  -3.268  0.00  0.00    +0.086 A 
ATOM     29  C   UNL     1      24.831  14.825  -2.618  0.00  0.00    +0.139 A 
ATOM     30  N   UNL     1      25.045  13.670  -1.903  0.00  0.00    -0.220 N 
ATOM     31  N   UNL     1      26.307  13.234  -2.123  0.00  0.00    -0.061 NA
BRANCH  30  32
ATOM     32  C   UNL     1      24.148  12.972  -1.052  0.00  0.00    +0.074 A 
ATOM     33  C   UNL     1      22.761  13.115  -1.235  0.00  0.00    +0.032 A 
ATOM     34  C   UNL     1      21.856  12.443  -0.402  0.00  0.00    +0.054 A 
ATOM     35  C   UNL     1      22.328  11.626   0.624  0.00  0.00    +0.195 A 
ATOM     36  C   UNL     1      23.704  11.488   0.800  0.00  0.00    +0.316 A 
ATOM     37  C   UNL     1      24.626  12.145  -0.028  0.00  0.00    +0.116 A 
BRANCH  36  38
ATOM     38  N   UNL     1      24.226  10.654   1.864  0.00  0.00    +0.083 N 
ATOM     39  O   UNL     1      23.981   9.442   1.815  0.00  0.00    +0.042 OA
ATOM     40  O   UNL     1      24.803  11.237   2.794  0.00  0.00    -0.576 OA
ENDBRANCH  36  38
BRANCH  35  41
ATOM     41  O   UNL     1      21.448  10.957   1.421  0.00  0.00    -0.501 OA
ATOM     42  H   UNL     1      20.719  10.599   0.885  0.00  0.00    +0.292 HD
ENDBRANCH  35  41
ENDBRANCH  30  32
ENDBRANCH  26  28
ENDBRANCH  25  26
ENDBRANCH  24  25
ENDBRANCH   1  24
TORSDOF 13
