REMARK VINA RESULT:    -7.651      1.820      3.592
REMARK INTER + INTRA:         -15.703
REMARK INTER:                 -14.061
REMARK INTRA:                  -1.643
REMARK UNBOUND:                -1.120
REMARK  Name = lig_assembled_76.pdb
REMARK  16 active torsions:
REMARK  status: ('A' for Active; 'I' for Inactive)
REMARK    1  A    between atoms: _2  and  _8
REMARK    2  A    between atoms: _5  and  _6
REMARK    3  A    between atoms: _5  and  _18
REMARK    4  A    between atoms: _8  and  _9
REMARK    5  A    between atoms: _9  and  _10
REMARK    6  A    between atoms: _9  and  _17
REMARK    7  A    between atoms: _10  and  _11
REMARK    8  A    between atoms: _11  and  _12
REMARK    9  A    between atoms: _18  and  _20
REMARK   10  A    between atoms: _19  and  _24
REMARK   11  A    between atoms: _20  and  _23
REMARK   12  A    between atoms: _28  and  _38
REMARK   13  A    between atoms: _30  and  _31
REMARK   14  A    between atoms: _32  and  _34
REMARK   15  A    between atoms: _34  and  _36
REMARK   16  A    between atoms: _36  and  _38
REMARK                            x       y       z     vdW  Elec       q    Type
REMARK                         _______ _______ _______ _____ _____    ______ ____
ROOT
ATOM      1  C   UNL     1      28.621  16.935  -0.477  0.00  0.00    +0.400 C 
ATOM      2  N   UNL     1      28.721  15.826   0.330  0.00  0.00    -0.278 N 
ATOM      3  H   UNL     1      29.394  16.139   1.098  0.00  0.00    +0.152 HD
ATOM      4  O   UNL     1      29.118  17.986  -0.080  0.00  0.00    -0.226 OA
ENDROOT
BRANCH   1   5
ATOM      5  O   UNL     1      28.030  16.751  -1.612  0.00  0.00    -0.450 OA
BRANCH   5   6
ATOM      6  C   UNL     1      27.067  17.374  -2.428  0.00  0.00    +0.240 C 
BRANCH   6   7
ATOM      7  C   UNL     1      27.076  17.030  -3.929  0.00  0.00    +0.100 C 
BRANCH   7   9
ATOM      8  N   UNL     1      25.857  15.546  -5.497  0.00  0.00    -0.134 NA
ATOM      9  C   UNL     1      25.978  16.104  -4.250  0.00  0.00    +0.086 A 
ATOM     10  C   UNL     1      24.942  15.664  -3.456  0.00  0.00    +0.133 A 
ATOM     11  N   UNL     1      24.233  14.839  -4.275  0.00  0.00    -0.249 N 
ATOM     12  N   UNL     1      24.775  14.777  -5.503  0.00  0.00    -0.065 NA
BRANCH  11  13
ATOM     13  C   UNL     1      22.970  14.193  -4.000  0.00  0.00    +0.176 C 
BRANCH  13  14
ATOM     14  C   UNL     1      22.168  14.895  -2.899  0.00  0.00    +0.136 C 
BRANCH  14  15
ATOM     15  O   UNL     1      20.861  15.238  -3.383  0.00  0.00    -0.390 OA
ATOM     16  H   UNL     1      20.935  15.998  -3.986  0.00  0.00    +0.210 HD
ENDBRANCH  14  15
BRANCH  14  17
ATOM     17  C   UNL     1      21.980  14.012  -1.655  0.00  0.00    +0.038 C 
BRANCH  17  18
ATOM     18  C   UNL     1      23.033  12.910  -1.526  0.00  0.00    +0.038 C 
BRANCH  18  19
ATOM     19  C   UNL     1      22.933  12.181  -0.211  0.00  0.00    -0.047 A 
ATOM     20  C   UNL     1      21.713  12.129   0.477  0.00  0.00    +0.003 A 
ATOM     21  C   UNL     1      21.612  11.439   1.686  0.00  0.00    +0.000 A 
ATOM     22  C   UNL     1      22.730  10.802   2.219  0.00  0.00    +0.000 A 
ATOM     23  C   UNL     1      23.951  10.858   1.548  0.00  0.00    +0.000 A 
ATOM     24  C   UNL     1      24.054  11.548   0.339  0.00  0.00    +0.003 A 
ENDBRANCH  18  19
ENDBRANCH  17  18
ENDBRANCH  14  17
ENDBRANCH  13  14
ENDBRANCH  11  13
ENDBRANCH   7   9
ENDBRANCH   6   7
ENDBRANCH   5   6
ENDBRANCH   1   5
BRANCH   2  25
ATOM     25  C   UNL     1      28.316  14.451   0.609  0.00  0.00    +0.152 C 
BRANCH  25  26
ATOM     26  C   UNL     1      28.655  13.915   2.016  0.00  0.00    +0.193 C 
ATOM     27  O   UNL     1      27.522  13.129   2.445  0.00  0.00    -0.219 OA
BRANCH  26  28
ATOM     28  C   UNL     1      29.860  12.957   2.145  0.00  0.00    +0.212 C 
ATOM     29  O   UNL     1      29.545  11.676   1.576  0.00  0.00    -0.218 OA
BRANCH  28  30
ATOM     30  C   UNL     1      31.170  13.505   1.461  0.00  0.00    +0.171 C 
ATOM     31  O   UNL     1      31.169  13.318   0.049  0.00  0.00    -0.343 OA
ATOM     32  C   UNL     1      32.290  13.484  -0.768  0.00  0.00    +0.220 C 
ATOM     33  C   UNL     1      33.506  12.709  -0.233  0.00  0.00    +0.076 C 
ATOM     34  C   UNL     1      33.709  13.121   1.234  0.00  0.00    +0.177 C 
ATOM     35  O   UNL     1      34.848  12.461   1.767  0.00  0.00    -0.221 OA
ATOM     36  C   UNL     1      32.427  12.799   2.065  0.00  0.00    +0.155 C 
BRANCH  36  37
ATOM     37  N   UNL     1      32.618  13.182   3.461  0.00  0.00    -0.202 NA
ATOM     38  C   UNL     1      33.054  12.443   4.512  0.00  0.00    +0.242 C 
ATOM     39  C   UNL     1      33.439  13.159   5.780  0.00  0.00    +0.096 C 
ATOM     40  O   UNL     1      33.124  11.220   4.407  0.00  0.00    -0.273 OA
ENDBRANCH  36  37
BRANCH  32  41
ATOM     41  C   UNL     1      32.654  15.041  -1.058  0.00  0.00    +0.391 C 
ATOM     42  O   UNL     1      33.618  15.002  -1.999  0.00  0.00    -0.243 OA
ATOM     43  O   UNL     1      31.676  15.760  -0.494  0.00  0.00    -0.243 OA
ENDBRANCH  32  41
ENDBRANCH  28  30
ENDBRANCH  26  28
ENDBRANCH  25  26
ENDBRANCH   2  25
TORSDOF 16
