REMARK VINA RESULT:    -6.982      3.875      8.437
REMARK INTER + INTRA:         -13.141
REMARK INTER:                 -11.539
REMARK INTRA:                  -1.602
REMARK UNBOUND:                -1.669
REMARK  Name = lig_assembled_70.pdb
REMARK  11 active torsions:
REMARK  status: ('A' for Active; 'I' for Inactive)
REMARK    1  A    between atoms: _2  and  _9
REMARK    2  A    between atoms: _6  and  _7
REMARK    3  A    between atoms: _6  and  _17
REMARK    4  A    between atoms: _17  and  _19
REMARK    5  A    between atoms: _18  and  _23
REMARK    6  A    between atoms: _19  and  _22
REMARK    7  A    between atoms: _27  and  _37
REMARK    8  A    between atoms: _29  and  _30
REMARK    9  A    between atoms: _31  and  _33
REMARK   10  A    between atoms: _33  and  _35
REMARK   11  A    between atoms: _35  and  _37
REMARK                            x       y       z     vdW  Elec       q    Type
REMARK                         _______ _______ _______ _____ _____    ______ ____
ROOT
ATOM      1  C   UNL     1      27.920  17.730  -1.095  0.00  0.00    +0.400 C 
ATOM      2  N   UNL     1      27.182  17.595  -2.247  0.00  0.00    -0.278 N 
ATOM      3  H   UNL     1      26.256  18.071  -2.005  0.00  0.00    +0.152 HD
ATOM      4  O   UNL     1      27.480  18.456  -0.207  0.00  0.00    -0.226 OA
ENDROOT
BRANCH   1   5
ATOM      5  O   UNL     1      29.013  17.042  -1.046  0.00  0.00    -0.450 OA
BRANCH   5   6
ATOM      6  C   UNL     1      29.491  15.832  -0.505  0.00  0.00    +0.240 C 
BRANCH   6   7
ATOM      7  C   UNL     1      30.680  15.910   0.470  0.00  0.00    +0.100 C 
BRANCH   7   9
ATOM      8  N   UNL     1      31.737  14.428   2.154  0.00  0.00    -0.134 NA
ATOM      9  C   UNL     1      30.640  14.785   1.424  0.00  0.00    +0.086 A 
ATOM     10  C   UNL     1      29.596  13.950   1.746  0.00  0.00    +0.140 A 
ATOM     11  N   UNL     1      30.104  13.095   2.697  0.00  0.00    -0.218 N 
ATOM     12  N   UNL     1      31.405  13.396   2.919  0.00  0.00    -0.060 NA
BRANCH  11  13
ATOM     13  C   UNL     1      29.438  12.067   3.394  0.00  0.00    +0.086 A 
ATOM     14  C   UNL     1      28.674  11.135   2.709  0.00  0.00    +0.139 A 
ATOM     15  N   UNL     1      28.043  10.093   3.310  0.00  0.00    -0.253 NA
ATOM     16  C   UNL     1      28.172   9.952   4.643  0.00  0.00    +0.071 A 
ATOM     17  C   UNL     1      28.915  10.862   5.423  0.00  0.00    +0.002 A 
ATOM     18  C   UNL     1      29.027  10.681   6.813  0.00  0.00    +0.010 A 
ATOM     19  C   UNL     1      28.424   9.591   7.431  0.00  0.00    +0.001 A 
ATOM     20  C   UNL     1      27.697   8.686   6.667  0.00  0.00    +0.002 A 
ATOM     21  C   UNL     1      27.573   8.878   5.287  0.00  0.00    +0.028 A 
ATOM     22  C   UNL     1      29.543  11.934   4.778  0.00  0.00    +0.039 A 
ENDBRANCH  11  13
ENDBRANCH   7   9
ENDBRANCH   6   7
ENDBRANCH   5   6
ENDBRANCH   1   5
BRANCH   2  23
ATOM     23  C   UNL     1      27.102  17.117  -3.625  0.00  0.00    +0.152 C 
BRANCH  23  24
ATOM     24  C   UNL     1      25.906  16.201  -3.958  0.00  0.00    +0.193 C 
ATOM     25  O   UNL     1      26.019  15.865  -5.359  0.00  0.00    -0.219 OA
BRANCH  24  26
ATOM     26  C   UNL     1      25.829  14.836  -3.239  0.00  0.00    +0.212 C 
ATOM     27  O   UNL     1      26.332  14.946  -1.898  0.00  0.00    -0.218 OA
BRANCH  26  28
ATOM     28  C   UNL     1      24.370  14.242  -3.183  0.00  0.00    +0.171 C 
ATOM     29  O   UNL     1      23.365  15.250  -3.246  0.00  0.00    -0.343 OA
ATOM     30  C   UNL     1      22.012  15.032  -2.975  0.00  0.00    +0.220 C 
ATOM     31  C   UNL     1      21.809  14.308  -1.633  0.00  0.00    +0.076 C 
ATOM     32  C   UNL     1      22.677  13.039  -1.656  0.00  0.00    +0.177 C 
ATOM     33  O   UNL     1      22.495  12.309  -0.451  0.00  0.00    -0.221 OA
ATOM     34  C   UNL     1      24.176  13.417  -1.869  0.00  0.00    +0.155 C 
BRANCH  34  35
ATOM     35  N   UNL     1      25.005  12.214  -1.885  0.00  0.00    -0.202 NA
ATOM     36  C   UNL     1      25.762  11.669  -0.899  0.00  0.00    +0.242 C 
ATOM     37  C   UNL     1      26.281  10.267  -1.087  0.00  0.00    +0.096 C 
ATOM     38  O   UNL     1      26.002  12.323   0.114  0.00  0.00    -0.273 OA
ENDBRANCH  34  35
BRANCH  30  39
ATOM     39  C   UNL     1      21.222  14.285  -4.182  0.00  0.00    +0.391 C 
ATOM     40  O   UNL     1      20.097  13.806  -3.617  0.00  0.00    -0.243 OA
ATOM     41  O   UNL     1      21.819  14.679  -5.314  0.00  0.00    -0.243 OA
ENDBRANCH  30  39
ENDBRANCH  26  28
ENDBRANCH  24  26
ENDBRANCH  23  24
ENDBRANCH   2  23
TORSDOF 11
