REMARK VINA RESULT:    -6.437      2.051      3.337
REMARK INTER + INTRA:         -14.107
REMARK INTER:                 -12.001
REMARK INTRA:                  -2.106
REMARK UNBOUND:                -2.025
REMARK  Name = lig_assembled_10.pdb
REMARK  16 active torsions:
REMARK  status: ('A' for Active; 'I' for Inactive)
REMARK    1  A    between atoms: _2  and  _8
REMARK    2  A    between atoms: _4  and  _8
REMARK    3  A    between atoms: _4  and  _11
REMARK    4  A    between atoms: _5  and  _6
REMARK    5  A    between atoms: _5  and  _15
REMARK    6  A    between atoms: _8  and  _9
REMARK    7  A    between atoms: _9  and  _10
REMARK    8  A    between atoms: _10  and  _13
REMARK    9  A    between atoms: _15  and  _17
REMARK   10  A    between atoms: _16  and  _21
REMARK   11  A    between atoms: _17  and  _20
REMARK   12  A    between atoms: _25  and  _35
REMARK   13  A    between atoms: _27  and  _28
REMARK   14  A    between atoms: _29  and  _31
REMARK   15  A    between atoms: _31  and  _33
REMARK   16  A    between atoms: _33  and  _35
REMARK                            x       y       z     vdW  Elec       q    Type
REMARK                         _______ _______ _______ _____ _____    ______ ____
ROOT
ATOM      1  C   UNL     1      28.289  16.809  -0.503  0.00  0.00    +0.400 C 
ATOM      2  N   UNL     1      28.370  15.542   0.026  0.00  0.00    -0.278 N 
ATOM      3  H   UNL     1      28.750  15.710   1.010  0.00  0.00    +0.152 HD
ATOM      4  O   UNL     1      28.465  17.764   0.249  0.00  0.00    -0.226 OA
ENDROOT
BRANCH   2   5
ATOM      5  C   UNL     1      28.161  14.107  -0.145  0.00  0.00    +0.152 C 
BRANCH   5   6
ATOM      6  C   UNL     1      27.844  13.309   1.137  0.00  0.00    +0.193 C 
ATOM      7  O   UNL     1      28.320  11.963   0.916  0.00  0.00    -0.219 OA
BRANCH   6   8
ATOM      8  C   UNL     1      28.534  13.754   2.445  0.00  0.00    +0.212 C 
ATOM      9  O   UNL     1      27.576  13.846   3.512  0.00  0.00    -0.218 OA
BRANCH   8  10
ATOM     10  C   UNL     1      29.698  12.790   2.894  0.00  0.00    +0.171 C 
ATOM     11  O   UNL     1      29.537  12.323   4.230  0.00  0.00    -0.343 OA
ATOM     12  C   UNL     1      30.529  11.662   4.958  0.00  0.00    +0.220 C 
ATOM     13  C   UNL     1      31.863  12.429   4.931  0.00  0.00    +0.076 C 
ATOM     14  C   UNL     1      32.212  12.696   3.457  0.00  0.00    +0.177 C 
ATOM     15  O   UNL     1      33.460  13.370   3.373  0.00  0.00    -0.221 OA
ATOM     16  C   UNL     1      31.076  13.521   2.777  0.00  0.00    +0.155 C 
BRANCH  16  17
ATOM     17  N   UNL     1      31.407  13.784   1.379  0.00  0.00    -0.202 NA
ATOM     18  C   UNL     1      31.578  14.966   0.735  0.00  0.00    +0.242 C 
ATOM     19  C   UNL     1      32.204  14.951  -0.635  0.00  0.00    +0.096 C 
ATOM     20  O   UNL     1      31.223  16.011   1.278  0.00  0.00    -0.273 OA
ENDBRANCH  16  17
BRANCH  12  21
ATOM     21  C   UNL     1      30.724  10.109   4.526  0.00  0.00    +0.391 C 
ATOM     22  O   UNL     1      31.727   9.655   5.302  0.00  0.00    -0.243 OA
ATOM     23  O   UNL     1      29.645   9.789   3.801  0.00  0.00    -0.243 OA
ENDBRANCH  12  21
ENDBRANCH   8  10
ENDBRANCH   6   8
ENDBRANCH   5   6
ENDBRANCH   2   5
BRANCH   1  24
ATOM     24  O   UNL     1      28.060  16.871  -1.774  0.00  0.00    -0.450 OA
BRANCH  24  25
ATOM     25  C   UNL     1      27.201  17.532  -2.674  0.00  0.00    +0.240 C 
BRANCH  25  26
ATOM     26  C   UNL     1      27.023  16.911  -4.073  0.00  0.00    +0.100 C 
BRANCH  26  28
ATOM     27  N   UNL     1      25.532  15.260  -5.162  0.00  0.00    -0.134 NA
ATOM     28  C   UNL     1      25.785  16.110  -4.121  0.00  0.00    +0.086 A 
ATOM     29  C   UNL     1      24.741  16.049  -3.226  0.00  0.00    +0.134 A 
ATOM     30  N   UNL     1      23.905  15.113  -3.752  0.00  0.00    -0.237 N 
ATOM     31  N   UNL     1      24.375  14.660  -4.933  0.00  0.00    -0.065 NA
BRANCH  30  32
ATOM     32  C   UNL     1      22.654  14.565  -3.255  0.00  0.00    +0.227 C 
BRANCH  32  33
ATOM     33  C   UNL     1      21.413  15.258  -3.775  0.00  0.00    +0.330 C 
ATOM     34  O   UNL     1      21.021  15.099  -4.926  0.00  0.00    -0.249 OA
BRANCH  33  35
ATOM     35  O   UNL     1      20.720  16.026  -2.909  0.00  0.00    -0.479 OA
ATOM     36  H   UNL     1      20.221  15.553  -2.194  0.00  0.00    +0.295 HD
ENDBRANCH  33  35
ENDBRANCH  32  33
BRANCH  32  37
ATOM     37  C   UNL     1      22.614  14.364  -1.733  0.00  0.00    +0.158 C 
BRANCH  37  38
ATOM     38  C   UNL     1      23.412  13.167  -1.300  0.00  0.00    +0.307 C 
ATOM     39  O   UNL     1      23.012  12.014  -1.392  0.00  0.00    -0.251 OA
BRANCH  38  40
ATOM     40  O   UNL     1      24.652  13.470  -0.873  0.00  0.00    -0.481 OA
ATOM     41  H   UNL     1      24.812  13.325   0.081  0.00  0.00    +0.295 HD
ENDBRANCH  38  40
ENDBRANCH  37  38
ENDBRANCH  32  37
ENDBRANCH  30  32
ENDBRANCH  26  28
ENDBRANCH  25  26
ENDBRANCH  24  25
ENDBRANCH   1  24
TORSDOF 16
