REMARK VINA RESULT:    -6.816      2.832      5.327
REMARK INTER + INTRA:         -14.828
REMARK INTER:                 -11.447
REMARK INTRA:                  -3.381
REMARK UNBOUND:                -2.234
REMARK  Name = lig_assembled_83.pdb
REMARK  15 active torsions:
REMARK  status: ('A' for Active; 'I' for Inactive)
REMARK    1  A    between atoms: _2  and  _11
REMARK    2  A    between atoms: _3  and  _13
REMARK    3  A    between atoms: _8  and  _9
REMARK    4  A    between atoms: _8  and  _19
REMARK    5  A    between atoms: _11  and  _12
REMARK    6  A    between atoms: _12  and  _13
REMARK    7  A    between atoms: _12  and  _17
REMARK    8  A    between atoms: _19  and  _21
REMARK    9  A    between atoms: _20  and  _25
REMARK   10  A    between atoms: _21  and  _24
REMARK   11  A    between atoms: _29  and  _39
REMARK   12  A    between atoms: _31  and  _32
REMARK   13  A    between atoms: _33  and  _35
REMARK   14  A    between atoms: _35  and  _37
REMARK   15  A    between atoms: _37  and  _39
REMARK                            x       y       z     vdW  Elec       q    Type
REMARK                         _______ _______ _______ _____ _____    ______ ____
ROOT
ATOM      1  C   UNL     1      28.173  17.405  -0.590  0.00  0.00    +0.400 C 
ATOM      2  N   UNL     1      29.207  16.707  -0.011  0.00  0.00    -0.278 N 
ATOM      3  H   UNL     1      29.280  17.138   0.965  0.00  0.00    +0.152 HD
ATOM      4  O   UNL     1      27.506  18.151   0.123  0.00  0.00    -0.226 OA
ENDROOT
BRANCH   2   5
ATOM      5  C   UNL     1      30.216  15.657  -0.123  0.00  0.00    +0.152 C 
BRANCH   5   6
ATOM      6  C   UNL     1      29.700  14.258  -0.518  0.00  0.00    +0.193 C 
ATOM      7  O   UNL     1      30.859  13.403  -0.623  0.00  0.00    -0.219 OA
BRANCH   6   8
ATOM      8  C   UNL     1      28.773  13.530   0.481  0.00  0.00    +0.212 C 
ATOM      9  O   UNL     1      28.223  14.461   1.426  0.00  0.00    -0.218 OA
BRANCH   8  10
ATOM     10  C   UNL     1      27.587  12.760  -0.216  0.00  0.00    +0.171 C 
ATOM     11  O   UNL     1      26.929  13.546  -1.204  0.00  0.00    -0.343 OA
ATOM     12  C   UNL     1      25.710  13.208  -1.796  0.00  0.00    +0.220 C 
ATOM     13  C   UNL     1      24.642  12.860  -0.745  0.00  0.00    +0.076 C 
ATOM     14  C   UNL     1      25.235  11.781   0.176  0.00  0.00    +0.177 C 
ATOM     15  O   UNL     1      24.272  11.392   1.145  0.00  0.00    -0.221 OA
ATOM     16  C   UNL     1      26.539  12.308   0.853  0.00  0.00    +0.155 C 
BRANCH  16  17
ATOM     17  N   UNL     1      27.101  11.288   1.734  0.00  0.00    -0.202 NA
ATOM     18  C   UNL     1      27.290  11.311   3.078  0.00  0.00    +0.242 C 
ATOM     19  C   UNL     1      27.615  10.017   3.777  0.00  0.00    +0.096 C 
ATOM     20  O   UNL     1      27.192  12.374   3.687  0.00  0.00    -0.273 OA
ENDBRANCH  16  17
BRANCH  12  21
ATOM     21  C   UNL     1      25.838  12.047  -2.925  0.00  0.00    +0.391 C 
ATOM     22  O   UNL     1      24.573  11.647  -3.157  0.00  0.00    -0.243 OA
ATOM     23  O   UNL     1      27.084  12.136  -3.407  0.00  0.00    -0.243 OA
ENDBRANCH  12  21
ENDBRANCH   8  10
ENDBRANCH   6   8
ENDBRANCH   5   6
ENDBRANCH   2   5
BRANCH   1  24
ATOM     24  O   UNL     1      28.021  17.227  -1.861  0.00  0.00    -0.450 OA
BRANCH  24  25
ATOM     25  C   UNL     1      27.107  17.550  -2.883  0.00  0.00    +0.240 C 
BRANCH  25  26
ATOM     26  C   UNL     1      27.011  16.587  -4.082  0.00  0.00    +0.100 C 
BRANCH  26  28
ATOM     27  N   UNL     1      24.753  16.163  -3.141  0.00  0.00    -0.134 NA
ATOM     28  C   UNL     1      25.689  15.937  -4.118  0.00  0.00    +0.086 A 
ATOM     29  C   UNL     1      25.168  15.060  -5.042  0.00  0.00    +0.133 A 
ATOM     30  N   UNL     1      23.914  14.803  -4.579  0.00  0.00    -0.249 N 
ATOM     31  N   UNL     1      23.668  15.456  -3.432  0.00  0.00    -0.065 NA
BRANCH  30  32
ATOM     32  C   UNL     1      22.920  13.924  -5.156  0.00  0.00    +0.178 C 
BRANCH  32  33
ATOM     33  C   UNL     1      21.544  14.116  -4.513  0.00  0.00    +0.156 C 
BRANCH  33  34
ATOM     34  O   UNL     1      20.612  14.592  -5.490  0.00  0.00    -0.388 OA
ATOM     35  H   UNL     1      19.713  14.269  -5.274  0.00  0.00    +0.210 HD
ENDBRANCH  33  34
BRANCH  33  36
ATOM     36  C   UNL     1      21.047  12.798  -3.899  0.00  0.00    +0.162 C 
BRANCH  36  37
ATOM     37  N   UNL     1      20.929  12.866  -2.451  0.00  0.00    -0.269 N 
ATOM     38  C   UNL     1      20.519  13.993  -1.776  0.00  0.00    +0.113 A 
ATOM     39  C   UNL     1      20.511  13.644  -0.446  0.00  0.00    +0.137 A 
ATOM     40  N   UNL     1      20.929  12.352  -0.280  0.00  0.00    -0.172 NA
ATOM     41  C   UNL     1      21.169  11.904  -1.499  0.00  0.00    +0.450 A 
ATOM     42  N   UNL     1      21.625  10.557  -1.754  0.00  0.00    +0.120 N 
ATOM     43  O   UNL     1      21.821  10.229  -2.936  0.00  0.00    +0.045 OA
ATOM     44  O   UNL     1      21.801   9.819  -0.778  0.00  0.00    -0.573 OA
ENDBRANCH  36  37
ENDBRANCH  33  36
ENDBRANCH  32  33
ENDBRANCH  30  32
ENDBRANCH  26  28
ENDBRANCH  25  26
ENDBRANCH  24  25
ENDBRANCH   1  24
TORSDOF 15
