REMARK VINA RESULT:    -6.422      1.652      2.443
REMARK INTER + INTRA:         -14.164
REMARK INTER:                 -12.345
REMARK INTRA:                  -1.819
REMARK UNBOUND:                -2.486
REMARK  Name = lig_assembled_29.pdb
REMARK  16 active torsions:
REMARK  status: ('A' for Active; 'I' for Inactive)
REMARK    1  A    between atoms: _2  and  _8
REMARK    2  A    between atoms: _5  and  _6
REMARK    3  A    between atoms: _5  and  _18
REMARK    4  A    between atoms: _8  and  _9
REMARK    5  A    between atoms: _11  and  _17
REMARK    6  A    between atoms: _12  and  _17
REMARK    7  A    between atoms: _13  and  _16
REMARK    8  A    between atoms: _14  and  _16
REMARK    9  A    between atoms: _18  and  _20
REMARK   10  A    between atoms: _19  and  _24
REMARK   11  A    between atoms: _20  and  _23
REMARK   12  A    between atoms: _28  and  _38
REMARK   13  A    between atoms: _30  and  _31
REMARK   14  A    between atoms: _32  and  _34
REMARK   15  A    between atoms: _34  and  _36
REMARK   16  A    between atoms: _36  and  _38
REMARK                            x       y       z     vdW  Elec       q    Type
REMARK                         _______ _______ _______ _____ _____    ______ ____
ROOT
ATOM      1  C   UNL     1      28.885  17.036  -0.492  0.00  0.00    +0.400 C 
ATOM      2  N   UNL     1      28.976  15.882   0.250  0.00  0.00    -0.278 N 
ATOM      3  H   UNL     1      29.700  16.125   0.997  0.00  0.00    +0.152 HD
ATOM      4  O   UNL     1      29.446  18.044  -0.067  0.00  0.00    -0.226 OA
ENDROOT
BRANCH   2   5
ATOM      5  C   UNL     1      28.526  14.511   0.478  0.00  0.00    +0.152 C 
BRANCH   5   6
ATOM      6  C   UNL     1      29.057  13.826   1.754  0.00  0.00    +0.193 C 
ATOM      7  O   UNL     1      27.980  13.851   2.717  0.00  0.00    -0.219 OA
BRANCH   6   8
ATOM      8  C   UNL     1      29.450  12.336   1.655  0.00  0.00    +0.212 C 
ATOM      9  O   UNL     1      29.344  11.878   0.297  0.00  0.00    -0.218 OA
BRANCH   8  10
ATOM     10  C   UNL     1      30.909  12.039   2.173  0.00  0.00    +0.171 C 
ATOM     11  O   UNL     1      31.003  12.073   3.593  0.00  0.00    -0.343 OA
ATOM     12  C   UNL     1      32.206  12.088   4.303  0.00  0.00    +0.220 C 
ATOM     13  C   UNL     1      33.162  13.177   3.784  0.00  0.00    +0.076 C 
ATOM     14  C   UNL     1      33.308  12.978   2.267  0.00  0.00    +0.177 C 
ATOM     15  O   UNL     1      34.215  13.937   1.741  0.00  0.00    -0.221 OA
ATOM     16  C   UNL     1      31.914  13.078   1.574  0.00  0.00    +0.155 C 
BRANCH  16  17
ATOM     17  N   UNL     1      32.049  12.897   0.131  0.00  0.00    -0.202 NA
ATOM     18  C   UNL     1      32.087  13.823  -0.860  0.00  0.00    +0.242 C 
ATOM     19  C   UNL     1      32.530  13.385  -2.232  0.00  0.00    +0.096 C 
ATOM     20  O   UNL     1      31.764  14.984  -0.619  0.00  0.00    -0.273 OA
ENDBRANCH  16  17
BRANCH  12  21
ATOM     21  C   UNL     1      32.935  10.638   4.373  0.00  0.00    +0.391 C 
ATOM     22  O   UNL     1      34.190  10.899   4.786  0.00  0.00    -0.243 OA
ATOM     23  O   UNL     1      31.956   9.728   4.291  0.00  0.00    -0.243 OA
ENDBRANCH  12  21
ENDBRANCH   8  10
ENDBRANCH   6   8
ENDBRANCH   5   6
ENDBRANCH   2   5
BRANCH   1  24
ATOM     24  O   UNL     1      28.230  16.938  -1.602  0.00  0.00    -0.450 OA
BRANCH  24  25
ATOM     25  C   UNL     1      27.165  17.570  -2.273  0.00  0.00    +0.240 C 
BRANCH  25  26
ATOM     26  C   UNL     1      26.932  17.194  -3.749  0.00  0.00    +0.100 C 
BRANCH  26  28
ATOM     27  N   UNL     1      25.649  15.472  -4.989  0.00  0.00    -0.134 NA
ATOM     28  C   UNL     1      25.811  16.242  -3.868  0.00  0.00    +0.086 A 
ATOM     29  C   UNL     1      24.820  15.939  -2.965  0.00  0.00    +0.134 A 
ATOM     30  N   UNL     1      24.142  14.911  -3.555  0.00  0.00    -0.247 N 
ATOM     31  N   UNL     1      24.614  14.665  -4.791  0.00  0.00    -0.065 NA
BRANCH  30  32
ATOM     32  C   UNL     1      23.082  14.095  -2.992  0.00  0.00    +0.180 C 
BRANCH  32  33
ATOM     33  C   UNL     1      23.575  13.340  -1.779  0.00  0.00    -0.022 A 
ATOM     34  C   UNL     1      22.666  12.645  -0.961  0.00  0.00    +0.054 A 
ATOM     35  C   UNL     1      23.117  11.876   0.121  0.00  0.00    +0.162 A 
ATOM     36  C   UNL     1      24.498  11.807   0.398  0.00  0.00    +0.162 A 
ATOM     37  C   UNL     1      25.399  12.499  -0.416  0.00  0.00    +0.050 A 
ATOM     38  C   UNL     1      24.942  13.261  -1.494  0.00  0.00    +0.009 A 
BRANCH  36  39
ATOM     39  O   UNL     1      24.861  11.039   1.478  0.00  0.00    -0.491 OA
ATOM     40  C   UNL     1      26.143  10.428   1.453  0.00  0.00    +0.277 C 
ENDBRANCH  36  39
BRANCH  35  41
ATOM     41  O   UNL     1      22.298  11.153   0.952  0.00  0.00    -0.491 OA
ATOM     42  C   UNL     1      21.516  11.868   1.899  0.00  0.00    +0.277 C 
ENDBRANCH  35  41
ENDBRANCH  32  33
ENDBRANCH  30  32
ENDBRANCH  26  28
ENDBRANCH  25  26
ENDBRANCH  24  25
ENDBRANCH   1  24
TORSDOF 14
