REMARK VINA RESULT:    -6.658      1.541      2.365
REMARK INTER + INTRA:         -13.987
REMARK INTER:                 -12.796
REMARK INTRA:                  -1.191
REMARK UNBOUND:                -2.657
REMARK  Name = lig_assembled_46.pdb
REMARK  12 active torsions:
REMARK  status: ('A' for Active; 'I' for Inactive)
REMARK    1  A    between atoms: _2  and  _8
REMARK    2  A    between atoms: _5  and  _6
REMARK    3  A    between atoms: _5  and  _14
REMARK    4  A    between atoms: _8  and  _9
REMARK    5  A    between atoms: _14  and  _16
REMARK    6  A    between atoms: _15  and  _20
REMARK    7  A    between atoms: _16  and  _19
REMARK    8  A    between atoms: _24  and  _34
REMARK    9  A    between atoms: _26  and  _27
REMARK   10  A    between atoms: _28  and  _30
REMARK   11  A    between atoms: _30  and  _32
REMARK   12  A    between atoms: _32  and  _34
REMARK                            x       y       z     vdW  Elec       q    Type
REMARK                         _______ _______ _______ _____ _____    ______ ____
ROOT
ATOM      1  C   UNL     1      28.050  16.947  -0.599  0.00  0.00    +0.400 C 
ATOM      2  N   UNL     1      28.566  15.977   0.229  0.00  0.00    -0.278 N 
ATOM      3  H   UNL     1      29.020  16.540   1.016  0.00  0.00    +0.152 HD
ATOM      4  O   UNL     1      28.053  18.109  -0.201  0.00  0.00    -0.226 OA
ENDROOT
BRANCH   2   5
ATOM      5  C   UNL     1      28.754  14.558   0.516  0.00  0.00    +0.152 C 
BRANCH   5   6
ATOM      6  C   UNL     1      30.209  14.097   0.742  0.00  0.00    +0.193 C 
ATOM      7  O   UNL     1      30.163  12.670   0.961  0.00  0.00    -0.219 OA
BRANCH   6   8
ATOM      8  C   UNL     1      31.205  14.276  -0.425  0.00  0.00    +0.212 C 
ATOM      9  O   UNL     1      31.567  15.659  -0.569  0.00  0.00    -0.218 OA
BRANCH   8  10
ATOM     10  C   UNL     1      32.522  13.425  -0.259  0.00  0.00    +0.171 C 
ATOM     11  O   UNL     1      33.331  13.875   0.824  0.00  0.00    -0.343 OA
ATOM     12  C   UNL     1      34.648  13.467   1.045  0.00  0.00    +0.220 C 
ATOM     13  C   UNL     1      35.510  13.608  -0.222  0.00  0.00    +0.076 C 
ATOM     14  C   UNL     1      34.785  12.869  -1.359  0.00  0.00    +0.177 C 
ATOM     15  O   UNL     1      35.561  12.935  -2.547  0.00  0.00    -0.221 OA
ATOM     16  C   UNL     1      33.364  13.475  -1.575  0.00  0.00    +0.155 C 
BRANCH  16  17
ATOM     17  N   UNL     1      32.675  12.780  -2.659  0.00  0.00    -0.202 NA
ATOM     18  C   UNL     1      32.648  13.056  -3.988  0.00  0.00    +0.242 C 
ATOM     19  C   UNL     1      32.102  12.010  -4.925  0.00  0.00    +0.096 C 
ATOM     20  O   UNL     1      33.065  14.139  -4.392  0.00  0.00    -0.273 OA
ENDBRANCH  16  17
BRANCH  12  21
ATOM     21  C   UNL     1      34.766  11.978   1.683  0.00  0.00    +0.391 C 
ATOM     22  O   UNL     1      36.056  11.628   1.513  0.00  0.00    -0.243 OA
ATOM     23  O   UNL     1      33.645  11.789   2.391  0.00  0.00    -0.243 OA
ENDBRANCH  12  21
ENDBRANCH   8  10
ENDBRANCH   6   8
ENDBRANCH   5   6
ENDBRANCH   2   5
BRANCH   1  24
ATOM     24  O   UNL     1      27.633  16.535  -1.751  0.00  0.00    -0.450 OA
BRANCH  24  25
ATOM     25  C   UNL     1      26.798  16.965  -2.800  0.00  0.00    +0.240 C 
BRANCH  25  26
ATOM     26  C   UNL     1      26.506  15.963  -3.933  0.00  0.00    +0.100 C 
BRANCH  26  28
ATOM     27  N   UNL     1      24.573  14.742  -4.883  0.00  0.00    -0.134 NA
ATOM     28  C   UNL     1      25.084  15.575  -3.923  0.00  0.00    +0.086 A 
ATOM     29  C   UNL     1      24.087  15.892  -3.025  0.00  0.00    +0.134 A 
ATOM     30  N   UNL     1      23.009  15.176  -3.461  0.00  0.00    -0.247 N 
ATOM     31  N   UNL     1      23.304  14.496  -4.587  0.00  0.00    -0.065 NA
BRANCH  30  32
ATOM     32  C   UNL     1      21.781  14.896  -2.737  0.00  0.00    +0.180 C 
BRANCH  32  33
ATOM     33  C   UNL     1      21.943  13.881  -1.634  0.00  0.00    -0.026 A 
ATOM     34  C   UNL     1      20.843  13.464  -0.868  0.00  0.00    +0.005 A 
ATOM     35  C   UNL     1      20.986  12.454   0.087  0.00  0.00    +0.000 A 
ATOM     36  C   UNL     1      22.226  11.849   0.285  0.00  0.00    +0.000 A 
ATOM     37  C   UNL     1      23.327  12.260  -0.462  0.00  0.00    +0.000 A 
ATOM     38  C   UNL     1      23.187  13.269  -1.416  0.00  0.00    +0.005 A 
ENDBRANCH  32  33
ENDBRANCH  30  32
ENDBRANCH  26  28
ENDBRANCH  25  26
ENDBRANCH  24  25
ENDBRANCH   1  24
TORSDOF 12
