REMARK VINA RESULT:    -6.174      2.797     10.740
REMARK INTER + INTRA:         -15.772
REMARK INTER:                 -12.726
REMARK INTRA:                  -3.046
REMARK UNBOUND:                -3.824
REMARK  Name = lig_assembled_81.pdb
REMARK  17 active torsions:
REMARK  status: ('A' for Active; 'I' for Inactive)
REMARK    1  A    between atoms: _2  and  _11
REMARK    2  A    between atoms: _7  and  _23
REMARK    3  A    between atoms: _8  and  _9
REMARK    4  A    between atoms: _8  and  _25
REMARK    5  A    between atoms: _13  and  _14
REMARK    6  A    between atoms: _20  and  _21
REMARK    7  A    between atoms: _21  and  _22
REMARK    8  A    between atoms: _22  and  _24
REMARK    9  A    between atoms: _23  and  _24
REMARK   10  A    between atoms: _25  and  _27
REMARK   11  A    between atoms: _26  and  _31
REMARK   12  A    between atoms: _27  and  _30
REMARK   13  A    between atoms: _35  and  _45
REMARK   14  A    between atoms: _37  and  _38
REMARK   15  A    between atoms: _39  and  _41
REMARK   16  A    between atoms: _41  and  _43
REMARK   17  A    between atoms: _43  and  _45
REMARK                            x       y       z     vdW  Elec       q    Type
REMARK                         _______ _______ _______ _____ _____    ______ ____
ROOT
ATOM      1  C   UNL     1      29.937  13.973  -0.812  0.00  0.00    +0.096 C 
ENDROOT
BRANCH   1   3
ATOM      2  N   UNL     1      32.033  15.244  -0.872  0.00  0.00    -0.133 NA
ATOM      3  C   UNL     1      31.413  14.033  -0.801  0.00  0.00    +0.066 C 
ATOM      4  C   UNL     1      32.377  13.044  -0.760  0.00  0.00    +0.120 C 
ATOM      5  N   UNL     1      33.580  13.730  -0.668  0.00  0.00    -0.187 N 
ATOM      6  N   UNL     1      33.337  15.030  -0.929  0.00  0.00    -0.010 NA
BRANCH   5   7
ATOM      7  C   UNL     1      34.901  13.184  -0.543  0.00  0.00    +0.150 A 
ATOM      8  C   UNL     1      35.553  12.866   0.676  0.00  0.00    +0.022 A 
ATOM      9  C   UNL     1      36.888  12.418   0.496  0.00  0.00    +0.081 A 
ATOM     10  N   UNL     1      37.473  12.385  -0.733  0.00  0.00    -0.214 NA
ATOM     11  C   UNL     1      36.769  12.733  -1.796  0.00  0.00    +0.215 A 
ATOM     12  N   UNL     1      37.405  12.779  -3.014  0.00  0.00    -0.327 N 
ATOM     13  H   UNL     1      38.232  12.201  -3.017  0.00  0.00    +0.145 HD
ATOM     14  H   UNL     1      36.753  12.704  -3.780  0.00  0.00    +0.145 HD
ATOM     15  N   UNL     1      35.487  13.039  -1.764  0.00  0.00    -0.198 NA
BRANCH   9  16
ATOM     16  C   UNL     1      37.863  11.950   1.554  0.00  0.00    +0.001 A 
ATOM     17  C   UNL     1      38.138  10.605   1.860  0.00  0.00    +0.010 A 
ATOM     18  C   UNL     1      39.065  10.232   2.848  0.00  0.00    +0.001 A 
ATOM     19  C   UNL     1      39.798  11.189   3.524  0.00  0.00    +0.000 A 
ATOM     20  C   UNL     1      39.602  12.533   3.216  0.00  0.00    +0.001 A 
ATOM     21  C   UNL     1      38.643  12.897   2.260  0.00  0.00    +0.010 A 
ENDBRANCH   9  16
BRANCH   8  22
ATOM     22  C   UNL     1      34.971  12.843   2.091  0.00  0.00    +0.069 C 
BRANCH  22  23
ATOM     23  C   UNL     1      34.677  14.128   2.842  0.00  0.00    +0.164 C 
BRANCH  23  24
ATOM     24  O   UNL     1      33.500  14.133   3.657  0.00  0.00    -0.380 OA
BRANCH  24  25
ATOM     25  C   UNL     1      32.411  14.506   2.790  0.00  0.00    +0.156 C 
ATOM     26  C   UNL     1      31.288  13.496   2.837  0.00  0.00    +0.034 C 
ENDBRANCH  24  25
ENDBRANCH  23  24
ENDBRANCH  22  23
ENDBRANCH   8  22
ENDBRANCH   5   7
ENDBRANCH   1   3
BRANCH   1  27
ATOM     27  C   UNL     1      29.344  15.265  -0.216  0.00  0.00    +0.240 C 
BRANCH  27  28
ATOM     28  O   UNL     1      28.689  16.146  -1.097  0.00  0.00    -0.450 OA
BRANCH  28  29
ATOM     29  C   UNL     1      27.869  17.145  -1.055  0.00  0.00    +0.400 C 
ATOM     30  N   UNL     1      26.760  17.040  -1.861  0.00  0.00    -0.278 N 
ATOM     31  H   UNL     1      26.140  17.847  -1.535  0.00  0.00    +0.152 HD
ATOM     32  O   UNL     1      27.980  18.145  -0.350  0.00  0.00    -0.226 OA
BRANCH  30  33
ATOM     33  C   UNL     1      26.073  16.346  -2.947  0.00  0.00    +0.152 C 
BRANCH  33  34
ATOM     34  C   UNL     1      25.067  15.255  -2.527  0.00  0.00    +0.193 C 
ATOM     35  O   UNL     1      24.081  15.171  -3.580  0.00  0.00    -0.219 OA
BRANCH  34  36
ATOM     36  C   UNL     1      25.597  13.812  -2.380  0.00  0.00    +0.212 C 
ATOM     37  O   UNL     1      26.995  13.755  -2.710  0.00  0.00    -0.218 OA
BRANCH  36  38
ATOM     38  C   UNL     1      25.396  13.217  -0.934  0.00  0.00    +0.171 C 
ATOM     39  O   UNL     1      26.487  12.400  -0.521  0.00  0.00    -0.343 OA
ATOM     40  C   UNL     1      26.466  11.562   0.596  0.00  0.00    +0.220 C 
ATOM     41  C   UNL     1      25.224  10.654   0.605  0.00  0.00    +0.076 C 
ATOM     42  C   UNL     1      23.989  11.558   0.449  0.00  0.00    +0.177 C 
ATOM     43  O   UNL     1      22.808  10.770   0.491  0.00  0.00    -0.221 OA
ATOM     44  C   UNL     1      24.082  12.371  -0.879  0.00  0.00    +0.155 C 
BRANCH  44  45
ATOM     45  N   UNL     1      22.908  13.225  -1.034  0.00  0.00    -0.202 NA
ATOM     46  C   UNL     1      21.847  13.099  -1.871  0.00  0.00    +0.242 C 
ATOM     47  C   UNL     1      20.632  13.955  -1.621  0.00  0.00    +0.096 C 
ATOM     48  O   UNL     1      21.899  12.298  -2.802  0.00  0.00    -0.273 OA
ENDBRANCH  44  45
BRANCH  40  49
ATOM     49  C   UNL     1      26.635  12.356   2.004  0.00  0.00    +0.391 C 
ATOM     50  O   UNL     1      26.103  11.536   2.931  0.00  0.00    -0.243 OA
ATOM     51  O   UNL     1      27.488  13.359   1.762  0.00  0.00    -0.243 OA
ENDBRANCH  40  49
ENDBRANCH  36  38
ENDBRANCH  34  36
ENDBRANCH  33  34
ENDBRANCH  30  33
ENDBRANCH  28  29
ENDBRANCH  27  28
ENDBRANCH   1  27
TORSDOF 16
