REMARK VINA RESULT:    -6.984      2.954      4.749
REMARK INTER + INTRA:         -16.845
REMARK INTER:                 -15.313
REMARK INTRA:                  -1.532
REMARK UNBOUND:                -3.125
REMARK  Name = lig_assembled_47.pdb
REMARK  17 active torsions:
REMARK  status: ('A' for Active; 'I' for Inactive)
REMARK    1  A    between atoms: _2  and  _8
REMARK    2  A    between atoms: _5  and  _6
REMARK    3  A    between atoms: _5  and  _25
REMARK    4  A    between atoms: _8  and  _9
REMARK    5  A    between atoms: _9  and  _10
REMARK    6  A    between atoms: _9  and  _11
REMARK    7  A    between atoms: _10  and  _23
REMARK    8  A    between atoms: _11  and  _12
REMARK    9  A    between atoms: _11  and  _18
REMARK   10  A    between atoms: _25  and  _27
REMARK   11  A    between atoms: _26  and  _31
REMARK   12  A    between atoms: _27  and  _30
REMARK   13  A    between atoms: _35  and  _45
REMARK   14  A    between atoms: _37  and  _38
REMARK   15  A    between atoms: _39  and  _41
REMARK   16  A    between atoms: _41  and  _43
REMARK   17  A    between atoms: _43  and  _45
REMARK                            x       y       z     vdW  Elec       q    Type
REMARK                         _______ _______ _______ _____ _____    ______ ____
ROOT
ATOM      1  C   UNL     1      27.049  16.523  -2.547  0.00  0.00    +0.100 C 
ENDROOT
BRANCH   1   3
ATOM      2  N   UNL     1      25.964  15.649  -4.603  0.00  0.00    -0.134 NA
ATOM      3  C   UNL     1      25.999  15.745  -3.235  0.00  0.00    +0.086 A 
ATOM      4  C   UNL     1      24.929  15.052  -2.713  0.00  0.00    +0.133 A 
ATOM      5  N   UNL     1      24.257  14.601  -3.811  0.00  0.00    -0.251 N 
ATOM      6  N   UNL     1      24.892  14.944  -4.944  0.00  0.00    -0.065 NA
BRANCH   5   7
ATOM      7  C   UNL     1      22.943  13.979  -3.865  0.00  0.00    +0.160 C 
BRANCH   7   8
ATOM      8  C   UNL     1      21.888  14.685  -3.008  0.00  0.00    +0.131 C 
BRANCH   8   9
ATOM      9  C   UNL     1      21.198  15.717  -3.889  0.00  0.00    +0.311 C 
ATOM     10  O   UNL     1      20.574  16.664  -3.438  0.00  0.00    -0.251 OA
BRANCH   9  11
ATOM     11  O   UNL     1      21.393  15.608  -5.220  0.00  0.00    -0.480 OA
ATOM     12  H   UNL     1      21.383  14.724  -5.624  0.00  0.00    +0.295 HD
ENDBRANCH   9  11
ENDBRANCH   8   9
BRANCH   8  13
ATOM     13  C   UNL     1      20.864  13.730  -2.317  0.00  0.00    +0.064 C 
BRANCH  13  14
ATOM     14  C   UNL     1      20.174  12.719  -3.234  0.00  0.00    -0.039 A 
ATOM     15  C   UNL     1      20.616  11.381  -3.256  0.00  0.00    +0.004 A 
ATOM     16  C   UNL     1      20.007  10.432  -4.084  0.00  0.00    +0.000 A 
ATOM     17  C   UNL     1      18.957  10.802  -4.917  0.00  0.00    +0.000 A 
ATOM     18  C   UNL     1      18.519  12.123  -4.924  0.00  0.00    +0.000 A 
ATOM     19  C   UNL     1      19.115  13.070  -4.084  0.00  0.00    +0.004 A 
ENDBRANCH  13  14
BRANCH  13  20
ATOM     20  C   UNL     1      21.498  13.080  -1.079  0.00  0.00    -0.039 A 
ATOM     21  C   UNL     1      22.841  12.668  -1.103  0.00  0.00    +0.004 A 
ATOM     22  C   UNL     1      23.375  11.925  -0.046  0.00  0.00    +0.000 A 
ATOM     23  C   UNL     1      22.586  11.605   1.057  0.00  0.00    +0.000 A 
ATOM     24  C   UNL     1      21.267  12.039   1.113  0.00  0.00    +0.000 A 
ATOM     25  C   UNL     1      20.729  12.770   0.055  0.00  0.00    +0.004 A 
ENDBRANCH  13  20
ENDBRANCH   8  13
ENDBRANCH   7   8
ENDBRANCH   5   7
ENDBRANCH   1   3
BRANCH   1  26
ATOM     26  C   UNL     1      27.875  15.625  -1.607  0.00  0.00    +0.240 C 
BRANCH  26  27
ATOM     27  O   UNL     1      28.461  16.231  -0.478  0.00  0.00    -0.450 OA
BRANCH  27  28
ATOM     28  C   UNL     1      29.422  17.046  -0.191  0.00  0.00    +0.400 C 
ATOM     29  N   UNL     1      30.484  16.498   0.490  0.00  0.00    -0.278 N 
ATOM     30  H   UNL     1      31.227  17.265   0.449  0.00  0.00    +0.152 HD
ATOM     31  O   UNL     1      29.480  18.235  -0.494  0.00  0.00    -0.226 OA
BRANCH  29  32
ATOM     32  C   UNL     1      31.034  15.370   1.238  0.00  0.00    +0.152 C 
BRANCH  32  33
ATOM     33  C   UNL     1      31.339  14.097   0.422  0.00  0.00    +0.193 C 
ATOM     34  O   UNL     1      30.068  13.566  -0.011  0.00  0.00    -0.219 OA
BRANCH  33  35
ATOM     35  C   UNL     1      32.152  14.262  -0.882  0.00  0.00    +0.212 C 
ATOM     36  O   UNL     1      32.616  15.615  -1.017  0.00  0.00    -0.218 OA
BRANCH  35  37
ATOM     37  C   UNL     1      33.392  13.292  -0.971  0.00  0.00    +0.171 C 
ATOM     38  O   UNL     1      34.378  13.573   0.016  0.00  0.00    -0.343 OA
ATOM     39  C   UNL     1      35.669  13.038   0.014  0.00  0.00    +0.220 C 
ATOM     40  C   UNL     1      36.361  13.221  -1.348  0.00  0.00    +0.076 C 
ATOM     41  C   UNL     1      35.422  12.651  -2.424  0.00  0.00    +0.177 C 
ATOM     42  O   UNL     1      36.033  12.759  -3.702  0.00  0.00    -0.221 OA
ATOM     43  C   UNL     1      34.049  13.391  -2.387  0.00  0.00    +0.155 C 
BRANCH  43  44
ATOM     44  N   UNL     1      33.157  12.856  -3.412  0.00  0.00    -0.202 NA
ATOM     45  C   UNL     1      32.944  13.281  -4.684  0.00  0.00    +0.242 C 
ATOM     46  C   UNL     1      32.192  12.374  -5.624  0.00  0.00    +0.096 C 
ATOM     47  O   UNL     1      33.364  14.381  -5.036  0.00  0.00    -0.273 OA
ENDBRANCH  43  44
BRANCH  39  48
ATOM     48  C   UNL     1      35.730  11.493   0.512  0.00  0.00    +0.391 C 
ATOM     49  O   UNL     1      34.974  11.457   1.627  0.00  0.00    -0.243 OA
ATOM     50  O   UNL     1      36.239  10.795  -0.511  0.00  0.00    -0.243 OA
ENDBRANCH  39  48
ENDBRANCH  35  37
ENDBRANCH  33  35
ENDBRANCH  32  33
ENDBRANCH  29  32
ENDBRANCH  27  28
ENDBRANCH  26  27
ENDBRANCH   1  26
TORSDOF 17
