REMARK VINA RESULT:    -7.780      1.639      2.328
REMARK INTER + INTRA:         -14.202
REMARK INTER:                 -11.775
REMARK INTRA:                  -2.426
REMARK UNBOUND:                -1.418
REMARK  Name = lig_assembled_20.pdb
REMARK  11 active torsions:
REMARK  status: ('A' for Active; 'I' for Inactive)
REMARK    1  A    between atoms: _2  and  _10
REMARK    2  A    between atoms: _7  and  _8
REMARK    3  A    between atoms: _7  and  _16
REMARK    4  A    between atoms: _16  and  _18
REMARK    5  A    between atoms: _17  and  _22
REMARK    6  A    between atoms: _18  and  _21
REMARK    7  A    between atoms: _26  and  _36
REMARK    8  A    between atoms: _28  and  _29
REMARK    9  A    between atoms: _30  and  _32
REMARK   10  A    between atoms: _32  and  _34
REMARK   11  A    between atoms: _34  and  _36
REMARK                            x       y       z     vdW  Elec       q    Type
REMARK                         _______ _______ _______ _____ _____    ______ ____
ROOT
ATOM      1  C   UNL     1      28.138  16.728  -0.741  0.00  0.00    +0.400 C 
ATOM      2  N   UNL     1      28.341  15.488  -0.180  0.00  0.00    -0.278 N 
ATOM      3  H   UNL     1      28.756  15.715   0.778  0.00  0.00    +0.152 HD
ATOM      4  O   UNL     1      28.279  17.717  -0.026  0.00  0.00    -0.226 OA
ENDROOT
BRANCH   1   5
ATOM      5  O   UNL     1      27.842  16.732  -1.999  0.00  0.00    -0.450 OA
BRANCH   5   6
ATOM      6  C   UNL     1      27.126  17.514  -2.926  0.00  0.00    +0.240 C 
BRANCH   6   7
ATOM      7  C   UNL     1      26.137  16.787  -3.856  0.00  0.00    +0.100 C 
BRANCH   7   9
ATOM      8  N   UNL     1      26.284  14.330  -3.556  0.00  0.00    -0.134 NA
ATOM      9  C   UNL     1      25.692  15.520  -3.248  0.00  0.00    +0.086 A 
ATOM     10  C   UNL     1      24.686  15.298  -2.338  0.00  0.00    +0.139 A 
ATOM     11  N   UNL     1      24.699  13.940  -2.112  0.00  0.00    -0.220 N 
ATOM     12  N   UNL     1      25.677  13.375  -2.861  0.00  0.00    -0.061 NA
BRANCH  11  13
ATOM     13  C   UNL     1      23.864  13.181  -1.251  0.00  0.00    +0.068 A 
ATOM     14  C   UNL     1      22.468  13.258  -1.387  0.00  0.00    +0.030 A 
ATOM     15  C   UNL     1      21.614  12.519  -0.556  0.00  0.00    +0.030 A 
ATOM     16  C   UNL     1      22.211  11.704   0.410  0.00  0.00    +0.066 A 
ATOM     17  C   UNL     1      23.587  11.608   0.570  0.00  0.00    +0.021 A 
ATOM     18  C   UNL     1      23.759  10.697   1.635  0.00  0.00    +0.142 A 
ATOM     19  N   UNL     1      22.600  10.245   2.118  0.00  0.00    -0.181 NA
ATOM     20  N   UNL     1      21.681  10.868   1.358  0.00  0.00    -0.277 N 
ATOM     21  H   UNL     1      20.701  10.682   1.539  0.00  0.00    +0.189 HD
ATOM     22  C   UNL     1      24.435  12.354  -0.268  0.00  0.00    +0.039 A 
ENDBRANCH  11  13
ENDBRANCH   7   9
ENDBRANCH   6   7
ENDBRANCH   5   6
ENDBRANCH   1   5
BRANCH   2  23
ATOM     23  C   UNL     1      28.233  14.037  -0.299  0.00  0.00    +0.152 C 
BRANCH  23  24
ATOM     24  C   UNL     1      27.999  13.263   1.015  0.00  0.00    +0.193 C 
ATOM     25  O   UNL     1      28.564  11.947   0.828  0.00  0.00    -0.219 OA
BRANCH  24  26
ATOM     26  C   UNL     1      28.684  13.799   2.292  0.00  0.00    +0.212 C 
ATOM     27  O   UNL     1      27.726  13.936   3.355  0.00  0.00    -0.218 OA
BRANCH  26  28
ATOM     28  C   UNL     1      29.867  12.887   2.795  0.00  0.00    +0.171 C 
ATOM     29  O   UNL     1      29.700  12.468   4.145  0.00  0.00    -0.343 OA
ATOM     30  C   UNL     1      30.699  11.865   4.912  0.00  0.00    +0.220 C 
ATOM     31  C   UNL     1      32.012  12.667   4.873  0.00  0.00    +0.076 C 
ATOM     32  C   UNL     1      32.375  12.887   3.395  0.00  0.00    +0.177 C 
ATOM     33  O   UNL     1      33.604  13.592   3.301  0.00  0.00    -0.221 OA
ATOM     34  C   UNL     1      31.226  13.652   2.667  0.00  0.00    +0.155 C 
BRANCH  34  35
ATOM     35  N   UNL     1      31.570  13.869   1.264  0.00  0.00    -0.202 NA
ATOM     36  C   UNL     1      31.650  15.027   0.560  0.00  0.00    +0.242 C 
ATOM     37  C   UNL     1      32.312  14.996  -0.793  0.00  0.00    +0.096 C 
ATOM     38  O   UNL     1      31.187  16.061   1.036  0.00  0.00    -0.273 OA
ENDBRANCH  34  35
BRANCH  30  39
ATOM     39  C   UNL     1      30.944  10.301   4.544  0.00  0.00    +0.391 C 
ATOM     40  O   UNL     1      32.150  10.006   5.065  0.00  0.00    -0.243 OA
ATOM     41  O   UNL     1      29.759   9.827   4.140  0.00  0.00    -0.243 OA
ENDBRANCH  30  39
ENDBRANCH  26  28
ENDBRANCH  24  26
ENDBRANCH  23  24
ENDBRANCH   2  23
TORSDOF 11
