REMARK VINA RESULT:    -6.076      3.695      8.576
REMARK INTER + INTRA:         -13.551
REMARK INTER:                 -10.596
REMARK INTRA:                  -2.955
REMARK UNBOUND:                -3.035
REMARK  Name = lig_assembled_22.pdb
REMARK  15 active torsions:
REMARK  status: ('A' for Active; 'I' for Inactive)
REMARK    1  A    between atoms: _2  and  _8
REMARK    2  A    between atoms: _4  and  _8
REMARK    3  A    between atoms: _4  and  _11
REMARK    4  A    between atoms: _5  and  _6
REMARK    5  A    between atoms: _5  and  _13
REMARK    6  A    between atoms: _8  and  _9
REMARK    7  A    between atoms: _8  and  _10
REMARK    8  A    between atoms: _13  and  _15
REMARK    9  A    between atoms: _14  and  _19
REMARK   10  A    between atoms: _15  and  _18
REMARK   11  A    between atoms: _23  and  _33
REMARK   12  A    between atoms: _25  and  _26
REMARK   13  A    between atoms: _27  and  _29
REMARK   14  A    between atoms: _29  and  _31
REMARK   15  A    between atoms: _31  and  _33
REMARK                            x       y       z     vdW  Elec       q    Type
REMARK                         _______ _______ _______ _____ _____    ______ ____
ROOT
ATOM      1  C   UNL     1      27.897  17.796  -0.977  0.00  0.00    +0.400 C 
ATOM      2  N   UNL     1      27.201  17.575  -2.142  0.00  0.00    -0.278 N 
ATOM      3  H   UNL     1      26.221  17.936  -1.917  0.00  0.00    +0.152 HD
ATOM      4  O   UNL     1      27.357  18.463  -0.097  0.00  0.00    -0.226 OA
ENDROOT
BRANCH   1   5
ATOM      5  O   UNL     1      29.064  17.244  -0.908  0.00  0.00    -0.450 OA
BRANCH   5   6
ATOM      6  C   UNL     1      30.185  17.219  -0.056  0.00  0.00    +0.240 C 
BRANCH   6   7
ATOM      7  C   UNL     1      31.126  16.003  -0.156  0.00  0.00    +0.100 C 
BRANCH   7   9
ATOM      8  N   UNL     1      30.125  13.975  -1.147  0.00  0.00    -0.134 NA
ATOM      9  C   UNL     1      30.356  14.751  -0.045  0.00  0.00    +0.086 A 
ATOM     10  C   UNL     1      29.770  14.157   1.051  0.00  0.00    +0.135 A 
ATOM     11  N   UNL     1      29.196  13.021   0.554  0.00  0.00    -0.235 N 
ATOM     12  N   UNL     1      29.414  12.924  -0.772  0.00  0.00    -0.064 NA
BRANCH  11  13
ATOM     13  C   UNL     1      28.414  11.994   1.246  0.00  0.00    +0.155 C 
ATOM     14  C   UNL     1      28.932  11.734   2.677  0.00  0.00    +0.048 C 
ATOM     15  C   UNL     1      28.509  10.680   0.446  0.00  0.00    +0.048 C 
BRANCH  13  16
ATOM     16  C   UNL     1      26.949  12.425   1.355  0.00  0.00    +0.332 C 
ATOM     17  O   UNL     1      26.248  12.233   2.341  0.00  0.00    -0.248 OA
BRANCH  16  18
ATOM     18  O   UNL     1      26.448  13.057   0.267  0.00  0.00    -0.479 OA
ATOM     19  H   UNL     1      27.031  13.103  -0.517  0.00  0.00    +0.295 HD
ENDBRANCH  16  18
ENDBRANCH  13  16
ENDBRANCH  11  13
ENDBRANCH   7   9
ENDBRANCH   6   7
ENDBRANCH   5   6
ENDBRANCH   1   5
BRANCH   2  20
ATOM     20  C   UNL     1      27.204  17.092  -3.520  0.00  0.00    +0.152 C 
BRANCH  20  21
ATOM     21  C   UNL     1      26.061  16.131  -3.906  0.00  0.00    +0.193 C 
ATOM     22  O   UNL     1      26.167  15.909  -5.330  0.00  0.00    -0.219 OA
BRANCH  21  23
ATOM     23  C   UNL     1      26.081  14.713  -3.293  0.00  0.00    +0.212 C 
ATOM     24  O   UNL     1      26.790  14.717  -2.043  0.00  0.00    -0.218 OA
BRANCH  23  25
ATOM     25  C   UNL     1      24.642  14.115  -3.054  0.00  0.00    +0.171 C 
ATOM     26  O   UNL     1      23.938  14.782  -2.012  0.00  0.00    -0.343 OA
ATOM     27  C   UNL     1      22.757  14.312  -1.432  0.00  0.00    +0.220 C 
ATOM     28  C   UNL     1      22.883  12.842  -0.993  0.00  0.00    +0.076 C 
ATOM     29  C   UNL     1      23.373  12.037  -2.208  0.00  0.00    +0.177 C 
ATOM     30  O   UNL     1      23.469  10.661  -1.867  0.00  0.00    -0.221 OA
ATOM     31  C   UNL     1      24.744  12.594  -2.705  0.00  0.00    +0.155 C 
BRANCH  31  32
ATOM     32  N   UNL     1      25.216  11.827  -3.854  0.00  0.00    -0.202 NA
ATOM     33  C   UNL     1      26.375  11.140  -4.022  0.00  0.00    +0.242 C 
ATOM     34  C   UNL     1      26.482  10.194  -5.190  0.00  0.00    +0.096 C 
ATOM     35  O   UNL     1      27.298  11.301  -3.226  0.00  0.00    -0.273 OA
ENDBRANCH  31  32
BRANCH  27  36
ATOM     36  C   UNL     1      21.443  14.548  -2.358  0.00  0.00    +0.391 C 
ATOM     37  O   UNL     1      20.472  13.819  -1.775  0.00  0.00    -0.243 OA
ATOM     38  O   UNL     1      21.732  15.588  -3.150  0.00  0.00    -0.243 OA
ENDBRANCH  27  36
ENDBRANCH  23  25
ENDBRANCH  21  23
ENDBRANCH  20  21
ENDBRANCH   2  20
TORSDOF 13
