REMARK VINA RESULT:    -5.986      1.753      2.641
REMARK INTER + INTRA:         -13.043
REMARK INTER:                 -11.532
REMARK INTRA:                  -1.510
REMARK UNBOUND:                -1.808
REMARK  Name = lig_assembled_43.pdb
REMARK  15 active torsions:
REMARK  status: ('A' for Active; 'I' for Inactive)
REMARK    1  A    between atoms: _2  and  _8
REMARK    2  A    between atoms: _5  and  _6
REMARK    3  A    between atoms: _5  and  _13
REMARK    4  A    between atoms: _8  and  _9
REMARK    5  A    between atoms: _9  and  _10
REMARK    6  A    between atoms: _10  and  _11
REMARK    7  A    between atoms: _11  and  _12
REMARK    8  A    between atoms: _13  and  _15
REMARK    9  A    between atoms: _14  and  _19
REMARK   10  A    between atoms: _15  and  _18
REMARK   11  A    between atoms: _23  and  _33
REMARK   12  A    between atoms: _25  and  _26
REMARK   13  A    between atoms: _27  and  _29
REMARK   14  A    between atoms: _29  and  _31
REMARK   15  A    between atoms: _31  and  _33
REMARK                            x       y       z     vdW  Elec       q    Type
REMARK                         _______ _______ _______ _____ _____    ______ ____
ROOT
ATOM      1  C   UNL     1      30.804  13.012  -1.788  0.00  0.00    +0.152 C 
ENDROOT
BRANCH   1   3
ATOM      2  C   UNL     1      29.197  14.548  -0.205  0.00  0.00    +0.400 C 
ATOM      3  N   UNL     1      30.199  13.728  -0.667  0.00  0.00    -0.278 N 
ATOM      4  H   UNL     1      30.780  13.529   0.208  0.00  0.00    +0.152 HD
ATOM      5  O   UNL     1      29.086  14.699   1.009  0.00  0.00    -0.226 OA
BRANCH   2   6
ATOM      6  O   UNL     1      28.474  15.115  -1.114  0.00  0.00    -0.450 OA
BRANCH   6   7
ATOM      7  C   UNL     1      27.426  14.796  -1.999  0.00  0.00    +0.240 C 
BRANCH   7   8
ATOM      8  C   UNL     1      26.716  15.963  -2.711  0.00  0.00    +0.100 C 
BRANCH   8  10
ATOM      9  N   UNL     1      25.458  14.985  -4.606  0.00  0.00    -0.134 NA
ATOM     10  C   UNL     1      25.464  15.497  -3.334  0.00  0.00    +0.086 A 
ATOM     11  C   UNL     1      24.180  15.484  -2.838  0.00  0.00    +0.133 A 
ATOM     12  N   UNL     1      23.442  14.959  -3.855  0.00  0.00    -0.251 N 
ATOM     13  N   UNL     1      24.209  14.658  -4.915  0.00  0.00    -0.065 NA
BRANCH  12  14
ATOM     14  C   UNL     1      22.011  14.745  -3.900  0.00  0.00    +0.145 C 
BRANCH  14  15
ATOM     15  C   UNL     1      21.363  15.014  -2.545  0.00  0.00    +0.024 C 
BRANCH  15  16
ATOM     16  C   UNL     1      20.255  14.008  -2.227  0.00  0.00    +0.006 C 
BRANCH  16  17
ATOM     17  C   UNL     1      20.298  13.613  -0.750  0.00  0.00    +0.026 C 
BRANCH  17  18
ATOM     18  C   UNL     1      21.442  12.689  -0.448  0.00  0.00    -0.034 C 
ATOM     19  C   UNL     1      21.410  11.750   0.507  0.00  0.00    +0.004 C 
ENDBRANCH  17  18
ENDBRANCH  16  17
ENDBRANCH  15  16
ENDBRANCH  14  15
ENDBRANCH  12  14
ENDBRANCH   8  10
ENDBRANCH   7   8
ENDBRANCH   6   7
ENDBRANCH   2   6
ENDBRANCH   1   3
BRANCH   1  20
ATOM     20  C   UNL     1      32.334  13.143  -1.931  0.00  0.00    +0.193 C 
ATOM     21  O   UNL     1      32.583  13.680  -3.249  0.00  0.00    -0.219 OA
BRANCH  20  22
ATOM     22  C   UNL     1      33.062  14.114  -0.976  0.00  0.00    +0.212 C 
ATOM     23  O   UNL     1      32.426  15.402  -0.990  0.00  0.00    -0.218 OA
BRANCH  22  24
ATOM     24  C   UNL     1      33.122  13.598   0.512  0.00  0.00    +0.171 C 
ATOM     25  O   UNL     1      32.358  14.405   1.403  0.00  0.00    -0.343 OA
ATOM     26  C   UNL     1      32.429  14.325   2.796  0.00  0.00    +0.220 C 
ATOM     27  C   UNL     1      33.882  14.388   3.298  0.00  0.00    +0.076 C 
ATOM     28  C   UNL     1      34.678  13.309   2.547  0.00  0.00    +0.177 C 
ATOM     29  O   UNL     1      36.023  13.297   3.004  0.00  0.00    -0.221 OA
ATOM     30  C   UNL     1      34.604  13.560   1.008  0.00  0.00    +0.155 C 
BRANCH  30  31
ATOM     31  N   UNL     1      35.366  12.540   0.291  0.00  0.00    -0.202 NA
ATOM     32  C   UNL     1      36.365  12.682  -0.617  0.00  0.00    +0.242 C 
ATOM     33  C   UNL     1      37.178  11.467  -0.981  0.00  0.00    +0.096 C 
ATOM     34  O   UNL     1      36.582  13.785  -1.113  0.00  0.00    -0.273 OA
ENDBRANCH  30  31
BRANCH  26  35
ATOM     35  C   UNL     1      31.639  13.045   3.411  0.00  0.00    +0.391 C 
ATOM     36  O   UNL     1      30.978  12.510   2.366  0.00  0.00    -0.243 OA
ATOM     37  O   UNL     1      32.170  12.830   4.621  0.00  0.00    -0.243 OA
ENDBRANCH  26  35
ENDBRANCH  22  24
ENDBRANCH  20  22
ENDBRANCH   1  20
TORSDOF 15
