REMARK VINA RESULT:    -6.295      3.016      5.969
REMARK INTER + INTRA:         -14.355
REMARK INTER:                 -11.001
REMARK INTRA:                  -3.354
REMARK UNBOUND:                -2.540
REMARK  Name = lig_assembled_31.pdb
REMARK  15 active torsions:
REMARK  status: ('A' for Active; 'I' for Inactive)
REMARK    1  A    between atoms: _2  and  _10
REMARK    2  A    between atoms: _3  and  _11
REMARK    3  A    between atoms: _4  and  _13
REMARK    4  A    between atoms: _7  and  _8
REMARK    5  A    between atoms: _7  and  _19
REMARK    6  A    between atoms: _10  and  _11
REMARK    7  A    between atoms: _13  and  _14
REMARK    8  A    between atoms: _19  and  _21
REMARK    9  A    between atoms: _20  and  _25
REMARK   10  A    between atoms: _21  and  _24
REMARK   11  A    between atoms: _29  and  _39
REMARK   12  A    between atoms: _31  and  _32
REMARK   13  A    between atoms: _33  and  _35
REMARK   14  A    between atoms: _35  and  _37
REMARK   15  A    between atoms: _37  and  _39
REMARK                            x       y       z     vdW  Elec       q    Type
REMARK                         _______ _______ _______ _____ _____    ______ ____
ROOT
ATOM      1  C   UNL     1      27.868  17.627  -0.848  0.00  0.00    +0.400 C 
ATOM      2  N   UNL     1      26.958  17.205  -1.788  0.00  0.00    -0.278 N 
ATOM      3  H   UNL     1      26.034  17.614  -1.438  0.00  0.00    +0.152 HD
ATOM      4  O   UNL     1      27.500  18.451  -0.014  0.00  0.00    -0.226 OA
ENDROOT
BRANCH   2   5
ATOM      5  C   UNL     1      26.695  16.478  -3.027  0.00  0.00    +0.152 C 
BRANCH   5   6
ATOM      6  C   UNL     1      25.610  15.384  -2.956  0.00  0.00    +0.193 C 
ATOM      7  O   UNL     1      24.925  15.395  -4.228  0.00  0.00    -0.219 OA
BRANCH   6   8
ATOM      8  C   UNL     1      26.079  13.922  -2.784  0.00  0.00    +0.212 C 
ATOM      9  O   UNL     1      27.311  13.704  -3.490  0.00  0.00    -0.218 OA
BRANCH   8  10
ATOM     10  C   UNL     1      26.280  13.504  -1.277  0.00  0.00    +0.171 C 
ATOM     11  O   UNL     1      27.547  12.899  -1.041  0.00  0.00    -0.343 OA
ATOM     12  C   UNL     1      27.891  12.222   0.131  0.00  0.00    +0.220 C 
ATOM     13  C   UNL     1      26.836  11.169   0.512  0.00  0.00    +0.076 C 
ATOM     14  C   UNL     1      25.470  11.875   0.549  0.00  0.00    +0.177 C 
ATOM     15  O   UNL     1      24.462  10.952   0.936  0.00  0.00    -0.221 OA
ATOM     16  C   UNL     1      25.155  12.509  -0.842  0.00  0.00    +0.155 C 
BRANCH  16  17
ATOM     17  N   UNL     1      23.855  13.174  -0.813  0.00  0.00    -0.202 NA
ATOM     18  C   UNL     1      22.766  12.986  -1.601  0.00  0.00    +0.242 C 
ATOM     19  C   UNL     1      21.457  13.595  -1.170  0.00  0.00    +0.096 C 
ATOM     20  O   UNL     1      22.871  12.331  -2.636  0.00  0.00    -0.273 OA
ENDBRANCH  16  17
BRANCH  12  21
ATOM     21  C   UNL     1      28.224  13.211   1.376  0.00  0.00    +0.391 C 
ATOM     22  O   UNL     1      28.703  12.405   2.342  0.00  0.00    -0.243 OA
ATOM     23  O   UNL     1      28.185  14.455   0.881  0.00  0.00    -0.243 OA
ENDBRANCH  12  21
ENDBRANCH   8  10
ENDBRANCH   6   8
ENDBRANCH   5   6
ENDBRANCH   2   5
BRANCH   1  24
ATOM     24  O   UNL     1      29.038  17.082  -0.917  0.00  0.00    -0.450 OA
BRANCH  24  25
ATOM     25  C   UNL     1      30.221  16.992  -0.158  0.00  0.00    +0.240 C 
BRANCH  25  26
ATOM     26  C   UNL     1      31.207  15.861  -0.509  0.00  0.00    +0.100 C 
BRANCH  26  28
ATOM     27  N   UNL     1      31.315  15.595   1.950  0.00  0.00    -0.134 NA
ATOM     28  C   UNL     1      31.558  15.091   0.701  0.00  0.00    +0.086 A 
ATOM     29  C   UNL     1      32.137  13.847   0.823  0.00  0.00    +0.133 A 
ATOM     30  N   UNL     1      32.227  13.659   2.170  0.00  0.00    -0.250 N 
ATOM     31  N   UNL     1      31.727  14.707   2.845  0.00  0.00    -0.065 NA
BRANCH  30  32
ATOM     32  C   UNL     1      32.775  12.522   2.880  0.00  0.00    +0.164 C 
BRANCH  32  33
ATOM     33  C   UNL     1      32.352  12.525   4.342  0.00  0.00    +0.129 C 
BRANCH  33  34
ATOM     34  N   UNL     1      30.912  12.471   4.557  0.00  0.00    -0.298 N 
ATOM     35  H   UNL     1      30.375  13.318   4.675  0.00  0.00    +0.150 HD
ATOM     36  C   UNL     1      30.369  11.302   5.022  0.00  0.00    +0.300 C 
ATOM     37  O   UNL     1      31.028  10.274   5.168  0.00  0.00    -0.253 OA
ATOM     38  N   UNL     1      29.035  11.365   5.282  0.00  0.00    -0.292 N 
ATOM     39  H   UNL     1      28.503  12.220   5.202  0.00  0.00    +0.151 HD
BRANCH  38  40
ATOM     40  C   UNL     1      28.368  10.182   5.771  0.00  0.00    +0.180 C 
BRANCH  40  41
ATOM     41  C   UNL     1      27.726   9.382   4.698  0.00  0.00    +0.122 A 
ATOM     42  O   UNL     1      28.222   8.142   4.406  0.00  0.00    -0.466 OA
ATOM     43  C   UNL     1      27.455   7.640   3.399  0.00  0.00    +0.195 A 
ATOM     44  C   UNL     1      26.477   8.537   3.038  0.00  0.00    +0.041 A 
ATOM     45  C   UNL     1      26.651   9.662   3.875  0.00  0.00    +0.046 A 
ENDBRANCH  40  41
ENDBRANCH  38  40
ENDBRANCH  33  34
ENDBRANCH  32  33
ENDBRANCH  30  32
ENDBRANCH  26  28
ENDBRANCH  25  26
ENDBRANCH  24  25
ENDBRANCH   1  24
TORSDOF 15
