REMARK VINA RESULT:    -7.172      1.172      3.382
REMARK INTER + INTRA:         -14.054
REMARK INTER:                 -12.881
REMARK INTRA:                  -1.174
REMARK UNBOUND:                -1.431
REMARK  Name = lig_assembled_36.pdb
REMARK  13 active torsions:
REMARK  status: ('A' for Active; 'I' for Inactive)
REMARK    1  A    between atoms: _2  and  _9
REMARK    2  A    between atoms: _6  and  _7
REMARK    3  A    between atoms: _6  and  _16
REMARK    4  A    between atoms: _9  and  _10
REMARK    5  A    between atoms: _13  and  _14
REMARK    6  A    between atoms: _16  and  _18
REMARK    7  A    between atoms: _17  and  _22
REMARK    8  A    between atoms: _18  and  _21
REMARK    9  A    between atoms: _26  and  _36
REMARK   10  A    between atoms: _28  and  _29
REMARK   11  A    between atoms: _30  and  _32
REMARK   12  A    between atoms: _32  and  _34
REMARK   13  A    between atoms: _34  and  _36
REMARK                            x       y       z     vdW  Elec       q    Type
REMARK                         _______ _______ _______ _____ _____    ______ ____
ROOT
ATOM      1  C   UNL     1      27.798  17.600  -1.162  0.00  0.00    +0.400 C 
ATOM      2  N   UNL     1      28.412  16.963  -0.109  0.00  0.00    -0.278 N 
ATOM      3  H   UNL     1      28.605  17.755   0.581  0.00  0.00    +0.152 HD
ATOM      4  O   UNL     1      27.467  18.774  -1.015  0.00  0.00    -0.226 OA
ENDROOT
BRANCH   1   5
ATOM      5  O   UNL     1      27.655  16.896  -2.236  0.00  0.00    -0.450 OA
BRANCH   5   6
ATOM      6  C   UNL     1      26.858  15.842  -2.724  0.00  0.00    +0.240 C 
BRANCH   6   7
ATOM      7  C   UNL     1      26.114  16.070  -4.054  0.00  0.00    +0.100 C 
BRANCH   7   9
ATOM      8  N   UNL     1      24.389  14.450  -4.785  0.00  0.00    -0.134 NA
ATOM      9  C   UNL     1      24.756  15.500  -3.984  0.00  0.00    +0.086 A 
ATOM     10  C   UNL     1      23.696  15.843  -3.175  0.00  0.00    +0.134 A 
ATOM     11  N   UNL     1      22.750  14.905  -3.465  0.00  0.00    -0.247 N 
ATOM     12  N   UNL     1      23.147  14.105  -4.471  0.00  0.00    -0.065 NA
BRANCH  11  13
ATOM     13  C   UNL     1      21.468  14.702  -2.820  0.00  0.00    +0.180 C 
BRANCH  13  14
ATOM     14  C   UNL     1      21.584  13.744  -1.657  0.00  0.00    -0.026 A 
ATOM     15  C   UNL     1      22.695  12.895  -1.531  0.00  0.00    +0.007 A 
ATOM     16  C   UNL     1      22.796  12.015  -0.448  0.00  0.00    +0.019 A 
ATOM     17  C   UNL     1      21.787  11.967   0.517  0.00  0.00    +0.052 A 
ATOM     18  C   UNL     1      20.666  12.791   0.386  0.00  0.00    +0.019 A 
ATOM     19  C   UNL     1      20.563  13.670  -0.696  0.00  0.00    +0.007 A 
BRANCH  17  20
ATOM     20  C   UNL     1      21.902  11.078   1.639  0.00  0.00    +0.099 C 
ATOM     21  N   UNL     1      22.003  10.367   2.550  0.00  0.00    -0.191 NA
ENDBRANCH  17  20
ENDBRANCH  13  14
ENDBRANCH  11  13
ENDBRANCH   7   9
ENDBRANCH   6   7
ENDBRANCH   5   6
ENDBRANCH   1   5
BRANCH   2  22
ATOM     22  C   UNL     1      28.894  15.716   0.480  0.00  0.00    +0.152 C 
BRANCH  22  23
ATOM     23  C   UNL     1      30.162  15.110  -0.154  0.00  0.00    +0.193 C 
ATOM     24  O   UNL     1      30.996  16.219  -0.556  0.00  0.00    -0.219 OA
BRANCH  23  25
ATOM     25  C   UNL     1      31.073  14.250   0.750  0.00  0.00    +0.212 C 
ATOM     26  O   UNL     1      30.385  13.061   1.169  0.00  0.00    -0.218 OA
BRANCH  25  27
ATOM     27  C   UNL     1      32.426  13.832   0.057  0.00  0.00    +0.171 C 
ATOM     28  O   UNL     1      32.221  13.101  -1.148  0.00  0.00    -0.343 OA
ATOM     29  C   UNL     1      33.223  12.407  -1.829  0.00  0.00    +0.220 C 
ATOM     30  C   UNL     1      34.009  11.475  -0.890  0.00  0.00    +0.076 C 
ATOM     31  C   UNL     1      34.499  12.320   0.297  0.00  0.00    +0.177 C 
ATOM     32  O   UNL     1      35.268  11.513   1.178  0.00  0.00    -0.221 OA
ATOM     33  C   UNL     1      33.285  12.966   1.034  0.00  0.00    +0.155 C 
BRANCH  33  34
ATOM     34  N   UNL     1      33.746  13.764   2.168  0.00  0.00    -0.202 NA
ATOM     35  C   UNL     1      33.492  13.617   3.493  0.00  0.00    +0.242 C 
ATOM     36  C   UNL     1      34.329  14.398   4.472  0.00  0.00    +0.096 C 
ATOM     37  O   UNL     1      32.596  12.859   3.859  0.00  0.00    -0.273 OA
ENDBRANCH  33  34
BRANCH  29  38
ATOM     38  C   UNL     1      34.215  13.371  -2.680  0.00  0.00    +0.391 C 
ATOM     39  O   UNL     1      35.371  12.686  -2.774  0.00  0.00    -0.243 OA
ATOM     40  O   UNL     1      33.438  14.321  -3.215  0.00  0.00    -0.243 OA
ENDBRANCH  29  38
ENDBRANCH  25  27
ENDBRANCH  23  25
ENDBRANCH  22  23
ENDBRANCH   2  22
TORSDOF 13
