REMARK VINA RESULT:    -7.507      2.410      9.062
REMARK INTER + INTRA:         -13.932
REMARK INTER:                 -12.549
REMARK INTRA:                  -1.382
REMARK UNBOUND:                -1.598
REMARK  Name = lig_assembled_80.pdb
REMARK  11 active torsions:
REMARK  status: ('A' for Active; 'I' for Inactive)
REMARK    1  A    between atoms: _2  and  _9
REMARK    2  A    between atoms: _6  and  _7
REMARK    3  A    between atoms: _6  and  _19
REMARK    4  A    between atoms: _19  and  _21
REMARK    5  A    between atoms: _20  and  _25
REMARK    6  A    between atoms: _21  and  _24
REMARK    7  A    between atoms: _29  and  _39
REMARK    8  A    between atoms: _31  and  _32
REMARK    9  A    between atoms: _33  and  _35
REMARK   10  A    between atoms: _35  and  _37
REMARK   11  A    between atoms: _37  and  _39
REMARK                            x       y       z     vdW  Elec       q    Type
REMARK                         _______ _______ _______ _____ _____    ______ ____
ROOT
ATOM      1  C   UNL     1      27.950  17.832  -1.086  0.00  0.00    +0.400 C 
ATOM      2  N   UNL     1      27.154  17.609  -2.184  0.00  0.00    -0.278 N 
ATOM      3  H   UNL     1      26.181  17.894  -1.846  0.00  0.00    +0.152 HD
ATOM      4  O   UNL     1      27.462  18.424  -0.127  0.00  0.00    -0.226 OA
ENDROOT
BRANCH   1   5
ATOM      5  O   UNL     1      29.151  17.359  -1.159  0.00  0.00    -0.450 OA
BRANCH   5   6
ATOM      6  C   UNL     1      30.087  16.691  -0.346  0.00  0.00    +0.240 C 
BRANCH   6   7
ATOM      7  C   UNL     1      30.024  15.152  -0.306  0.00  0.00    +0.100 C 
BRANCH   7   9
ATOM      8  N   UNL     1      31.327  15.484   1.758  0.00  0.00    -0.134 NA
ATOM      9  C   UNL     1      30.609  14.644   0.951  0.00  0.00    +0.086 A 
ATOM     10  C   UNL     1      30.562  13.391   1.517  0.00  0.00    +0.134 A 
ATOM     11  N   UNL     1      31.324  13.516   2.648  0.00  0.00    -0.240 N 
ATOM     12  N   UNL     1      31.750  14.788   2.805  0.00  0.00    -0.065 NA
BRANCH  11  13
ATOM     13  C   UNL     1      31.566  12.553   3.728  0.00  0.00    +0.195 C 
ATOM     14  C   UNL     1      32.874  12.919   4.417  0.00  0.00    +0.041 C 
ATOM     15  C   UNL     1      33.332  11.811   5.342  0.00  0.00    +0.039 C 
ATOM     16  C   UNL     1      32.667  11.955   6.676  0.00  0.00    -0.026 A 
ATOM     17  C   UNL     1      31.287  11.829   6.846  0.00  0.00    +0.037 A 
ATOM     18  C   UNL     1      30.752  11.856   8.145  0.00  0.00    +0.023 A 
ATOM     19  C   UNL     1      31.557  12.125   9.250  0.00  0.00    +0.002 A 
ATOM     20  C   UNL     1      32.918  12.327   9.074  0.00  0.00    +0.000 A 
ATOM     21  N   UNL     1      30.337  11.753   5.814  0.00  0.00    -0.284 N 
ATOM     22  H   UNL     1      29.379  11.636   6.127  0.00  0.00    +0.155 HD
ATOM     23  C   UNL     1      33.473  12.216   7.801  0.00  0.00    +0.005 A 
ATOM     24  C   UNL     1      30.325  12.362   4.591  0.00  0.00    +0.242 C 
ATOM     25  O   UNL     1      29.198  12.656   4.174  0.00  0.00    -0.273 OA
ENDBRANCH  11  13
ENDBRANCH   7   9
ENDBRANCH   6   7
ENDBRANCH   5   6
ENDBRANCH   1   5
BRANCH   2  26
ATOM     26  C   UNL     1      27.047  17.183  -3.577  0.00  0.00    +0.152 C 
BRANCH  26  27
ATOM     27  C   UNL     1      25.984  16.107  -3.879  0.00  0.00    +0.193 C 
ATOM     28  O   UNL     1      26.007  15.888  -5.307  0.00  0.00    -0.219 OA
BRANCH  27  29
ATOM     29  C   UNL     1      26.195  14.703  -3.270  0.00  0.00    +0.212 C 
ATOM     30  O   UNL     1      26.918  14.796  -2.032  0.00  0.00    -0.218 OA
BRANCH  29  31
ATOM     31  C   UNL     1      24.848  13.926  -3.011  0.00  0.00    +0.171 C 
ATOM     32  O   UNL     1      23.937  14.664  -2.203  0.00  0.00    -0.343 OA
ATOM     33  C   UNL     1      22.786  14.127  -1.622  0.00  0.00    +0.220 C 
ATOM     34  C   UNL     1      23.087  12.830  -0.852  0.00  0.00    +0.076 C 
ATOM     35  C   UNL     1      23.830  11.884  -1.811  0.00  0.00    +0.177 C 
ATOM     36  O   UNL     1      24.098  10.651  -1.159  0.00  0.00    -0.221 OA
ATOM     37  C   UNL     1      25.144  12.556  -2.317  0.00  0.00    +0.155 C 
BRANCH  37  38
ATOM     38  N   UNL     1      25.856  11.658  -3.223  0.00  0.00    -0.202 NA
ATOM     39  C   UNL     1      27.095  11.115  -3.110  0.00  0.00    +0.242 C 
ATOM     40  C   UNL     1      27.470   9.990  -4.040  0.00  0.00    +0.096 C 
ATOM     41  O   UNL     1      27.873  11.547  -2.262  0.00  0.00    -0.273 OA
ENDBRANCH  37  38
BRANCH  33  42
ATOM     42  C   UNL     1      21.563  13.927  -2.674  0.00  0.00    +0.391 C 
ATOM     43  O   UNL     1      21.975  14.532  -3.804  0.00  0.00    -0.243 OA
ATOM     44  O   UNL     1      20.761  13.000  -2.136  0.00  0.00    -0.243 OA
ENDBRANCH  33  42
ENDBRANCH  29  31
ENDBRANCH  27  29
ENDBRANCH  26  27
ENDBRANCH   2  26
TORSDOF 11
