REMARK VINA RESULT:    -6.959      1.852      3.730
REMARK INTER + INTRA:         -14.341
REMARK INTER:                 -12.659
REMARK INTRA:                  -1.682
REMARK UNBOUND:                -2.094
REMARK  Name = lig_assembled_24.pdb
REMARK  14 active torsions:
REMARK  status: ('A' for Active; 'I' for Inactive)
REMARK    1  A    between atoms: _2  and  _8
REMARK    2  A    between atoms: _5  and  _6
REMARK    3  A    between atoms: _5  and  _16
REMARK    4  A    between atoms: _8  and  _9
REMARK    5  A    between atoms: _12  and  _15
REMARK    6  A    between atoms: _13  and  _15
REMARK    7  A    between atoms: _16  and  _18
REMARK    8  A    between atoms: _17  and  _22
REMARK    9  A    between atoms: _18  and  _21
REMARK   10  A    between atoms: _26  and  _36
REMARK   11  A    between atoms: _28  and  _29
REMARK   12  A    between atoms: _30  and  _32
REMARK   13  A    between atoms: _32  and  _34
REMARK   14  A    between atoms: _34  and  _36
REMARK                            x       y       z     vdW  Elec       q    Type
REMARK                         _______ _______ _______ _____ _____    ______ ____
ROOT
ATOM      1  C   UNL     1      27.931  15.519  -1.260  0.00  0.00    +0.400 C 
ATOM      2  N   UNL     1      28.231  14.921  -0.059  0.00  0.00    -0.278 N 
ATOM      3  H   UNL     1      28.949  15.583   0.374  0.00  0.00    +0.152 HD
ATOM      4  O   UNL     1      28.358  16.653  -1.465  0.00  0.00    -0.226 OA
ENDROOT
BRANCH   1   5
ATOM      5  O   UNL     1      27.241  14.803  -2.086  0.00  0.00    -0.450 OA
BRANCH   5   6
ATOM      6  C   UNL     1      25.917  14.355  -2.263  0.00  0.00    +0.240 C 
BRANCH   6   7
ATOM      7  C   UNL     1      24.856  15.407  -2.640  0.00  0.00    +0.100 C 
BRANCH   7   9
ATOM      8  N   UNL     1      22.395  15.476  -2.899  0.00  0.00    -0.134 NA
ATOM      9  C   UNL     1      23.504  14.902  -2.338  0.00  0.00    +0.086 A 
ATOM     10  C   UNL     1      23.111  13.852  -1.537  0.00  0.00    +0.134 A 
ATOM     11  N   UNL     1      21.759  13.791  -1.706  0.00  0.00    -0.247 N 
ATOM     12  N   UNL     1      21.331  14.796  -2.498  0.00  0.00    -0.065 NA
BRANCH  11  13
ATOM     13  C   UNL     1      20.785  12.823  -1.228  0.00  0.00    +0.180 C 
BRANCH  13  14
ATOM     14  C   UNL     1      21.313  11.848  -0.203  0.00  0.00    -0.026 A 
ATOM     15  C   UNL     1      21.775  10.585  -0.594  0.00  0.00    +0.009 A 
ATOM     16  C   UNL     1      22.263   9.689   0.361  0.00  0.00    +0.046 A 
ATOM     17  C   UNL     1      22.315  10.045   1.710  0.00  0.00    +0.120 A 
ATOM     18  C   UNL     1      21.835  11.289   2.109  0.00  0.00    +0.046 A 
ATOM     19  C   UNL     1      21.338  12.189   1.158  0.00  0.00    +0.009 A 
BRANCH  17  20
ATOM     20  O   UNL     1      22.794   9.080   2.553  0.00  0.00    -0.495 OA
ATOM     21  C   UNL     1      22.240   9.084   3.865  0.00  0.00    +0.277 C 
ENDBRANCH  17  20
ENDBRANCH  13  14
ENDBRANCH  11  13
ENDBRANCH   7   9
ENDBRANCH   6   7
ENDBRANCH   5   6
ENDBRANCH   1   5
BRANCH   2  22
ATOM     22  C   UNL     1      28.002  13.821   0.875  0.00  0.00    +0.152 C 
BRANCH  22  23
ATOM     23  C   UNL     1      28.619  13.983   2.279  0.00  0.00    +0.193 C 
ATOM     24  O   UNL     1      27.658  13.452   3.218  0.00  0.00    -0.219 OA
BRANCH  23  25
ATOM     25  C   UNL     1      29.921  13.209   2.581  0.00  0.00    +0.212 C 
ATOM     26  O   UNL     1      29.755  11.813   2.286  0.00  0.00    -0.218 OA
BRANCH  25  27
ATOM     27  C   UNL     1      31.168  13.749   1.782  0.00  0.00    +0.171 C 
ATOM     28  O   UNL     1      31.014  13.616   0.373  0.00  0.00    -0.343 OA
ATOM     29  C   UNL     1      32.048  13.785  -0.552  0.00  0.00    +0.220 C 
ATOM     30  C   UNL     1      33.290  12.958  -0.177  0.00  0.00    +0.076 C 
ATOM     31  C   UNL     1      33.657  13.307   1.275  0.00  0.00    +0.177 C 
ATOM     32  O   UNL     1      34.825  12.598   1.660  0.00  0.00    -0.221 OA
ATOM     33  C   UNL     1      32.460  12.987   2.224  0.00  0.00    +0.155 C 
BRANCH  33  34
ATOM     34  N   UNL     1      32.808  13.311   3.605  0.00  0.00    -0.202 NA
ATOM     35  C   UNL     1      32.848  12.510   4.701  0.00  0.00    +0.242 C 
ATOM     36  C   UNL     1      33.523  13.031   5.943  0.00  0.00    +0.096 C 
ATOM     37  O   UNL     1      32.340  11.392   4.655  0.00  0.00    -0.273 OA
ENDBRANCH  33  34
BRANCH  29  38
ATOM     38  C   UNL     1      32.426  15.342  -0.823  0.00  0.00    +0.391 C 
ATOM     39  O   UNL     1      33.508  15.302  -1.624  0.00  0.00    -0.243 OA
ATOM     40  O   UNL     1      31.371  16.056  -0.411  0.00  0.00    -0.243 OA
ENDBRANCH  29  38
ENDBRANCH  25  27
ENDBRANCH  23  25
ENDBRANCH  22  23
ENDBRANCH   2  22
TORSDOF 13
