REMARK VINA RESULT:    -6.788      2.434      6.468
REMARK INTER + INTRA:         -12.977
REMARK INTER:                 -10.950
REMARK INTRA:                  -2.027
REMARK UNBOUND:                -1.427
REMARK  Name = lig_assembled_6.pdb
REMARK  12 active torsions:
REMARK  status: ('A' for Active; 'I' for Inactive)
REMARK    1  A    between atoms: _2  and  _9
REMARK    2  A    between atoms: _3  and  _12
REMARK    3  A    between atoms: _6  and  _7
REMARK    4  A    between atoms: _6  and  _16
REMARK    5  A    between atoms: _16  and  _18
REMARK    6  A    between atoms: _17  and  _22
REMARK    7  A    between atoms: _18  and  _21
REMARK    8  A    between atoms: _26  and  _36
REMARK    9  A    between atoms: _28  and  _29
REMARK   10  A    between atoms: _30  and  _32
REMARK   11  A    between atoms: _32  and  _34
REMARK   12  A    between atoms: _34  and  _36
REMARK                            x       y       z     vdW  Elec       q    Type
REMARK                         _______ _______ _______ _____ _____    ______ ____
ROOT
ATOM      1  C   UNL     1      24.993   9.097   1.376  0.00  0.00    +0.400 C 
ATOM      2  N   UNL     1      25.786  10.057   1.959  0.00  0.00    -0.278 N 
ATOM      3  H   UNL     1      26.758   9.844   1.571  0.00  0.00    +0.152 HD
ATOM      4  O   UNL     1      25.482   8.403   0.488  0.00  0.00    -0.226 OA
ENDROOT
BRANCH   2   5
ATOM      5  C   UNL     1      25.889  11.220   2.837  0.00  0.00    +0.152 C 
BRANCH   5   6
ATOM      6  C   UNL     1      26.823  12.351   2.360  0.00  0.00    +0.193 C 
ATOM      7  O   UNL     1      27.099  13.176   3.513  0.00  0.00    -0.219 OA
BRANCH   6   8
ATOM      8  C   UNL     1      28.217  11.951   1.828  0.00  0.00    +0.212 C 
ATOM      9  O   UNL     1      28.091  11.143   0.648  0.00  0.00    -0.218 OA
BRANCH   8  10
ATOM     10  C   UNL     1      29.137  13.188   1.497  0.00  0.00    +0.171 C 
ATOM     11  O   UNL     1      29.187  13.475   0.103  0.00  0.00    -0.343 OA
ATOM     12  C   UNL     1      30.102  14.349  -0.489  0.00  0.00    +0.220 C 
ATOM     13  C   UNL     1      31.547  14.037  -0.064  0.00  0.00    +0.076 C 
ATOM     14  C   UNL     1      31.581  14.008   1.473  0.00  0.00    +0.177 C 
ATOM     15  O   UNL     1      32.906  13.762   1.921  0.00  0.00    -0.221 OA
ATOM     16  C   UNL     1      30.590  12.930   2.013  0.00  0.00    +0.155 C 
BRANCH  16  17
ATOM     17  N   UNL     1      30.625  12.895   3.473  0.00  0.00    -0.202 NA
ATOM     18  C   UNL     1      31.098  11.935   4.307  0.00  0.00    +0.242 C 
ATOM     19  C   UNL     1      31.281  12.278   5.762  0.00  0.00    +0.096 C 
ATOM     20  O   UNL     1      31.366  10.821   3.861  0.00  0.00    -0.273 OA
ENDBRANCH  16  17
BRANCH  12  21
ATOM     21  C   UNL     1      29.738  15.916  -0.264  0.00  0.00    +0.391 C 
ATOM     22  O   UNL     1      28.503  15.913   0.273  0.00  0.00    -0.243 OA
ATOM     23  O   UNL     1      30.888  16.587  -0.407  0.00  0.00    -0.243 OA
ENDBRANCH  12  21
ENDBRANCH   8  10
ENDBRANCH   6   8
ENDBRANCH   5   6
ENDBRANCH   2   5
BRANCH   1  24
ATOM     24  O   UNL     1      23.795   8.995   1.851  0.00  0.00    -0.450 OA
BRANCH  24  25
ATOM     25  C   UNL     1      22.474   9.330   1.497  0.00  0.00    +0.240 C 
BRANCH  25  26
ATOM     26  C   UNL     1      21.975  10.740   1.866  0.00  0.00    +0.100 C 
BRANCH  26  28
ATOM     27  N   UNL     1      21.102  12.259   0.116  0.00  0.00    -0.134 NA
ATOM     28  C   UNL     1      22.165  11.664   0.733  0.00  0.00    +0.086 A 
ATOM     29  C   UNL     1      23.327  12.085   0.129  0.00  0.00    +0.139 A 
ATOM     30  N   UNL     1      22.922  12.973  -0.841  0.00  0.00    -0.220 N 
ATOM     31  N   UNL     1      21.570  13.046  -0.843  0.00  0.00    -0.061 NA
BRANCH  30  32
ATOM     32  C   UNL     1      23.720  13.760  -1.714  0.00  0.00    +0.067 A 
ATOM     33  C   UNL     1      25.086  13.482  -1.881  0.00  0.00    +0.034 A 
ATOM     34  C   UNL     1      25.875  14.302  -2.694  0.00  0.00    +0.086 A 
ATOM     35  C   UNL     1      25.298  15.399  -3.346  0.00  0.00    +0.273 A 
ATOM     36  C   UNL     1      23.931  15.669  -3.207  0.00  0.00    +0.086 A 
ATOM     37  C   UNL     1      23.144  14.847  -2.393  0.00  0.00    +0.034 A 
BRANCH  35  38
ATOM     38  N   UNL     1      26.140  16.281  -4.164  0.00  0.00    +0.080 N 
ATOM     39  O   UNL     1      26.463  15.883  -5.293  0.00  0.00    +0.041 OA
ATOM     40  O   UNL     1      26.483  17.367  -3.678  0.00  0.00    -0.576 OA
ENDBRANCH  35  38
ENDBRANCH  30  32
ENDBRANCH  26  28
ENDBRANCH  25  26
ENDBRANCH  24  25
ENDBRANCH   1  24
TORSDOF 12
