REMARK VINA RESULT:    -6.459      1.609      2.758
REMARK INTER + INTRA:         -13.884
REMARK INTER:                 -12.136
REMARK INTRA:                  -1.748
REMARK UNBOUND:                -2.327
REMARK  Name = lig_assembled_68.pdb
REMARK  14 active torsions:
REMARK  status: ('A' for Active; 'I' for Inactive)
REMARK    1  A    between atoms: _2  and  _8
REMARK    2  A    between atoms: _5  and  _6
REMARK    3  A    between atoms: _5  and  _16
REMARK    4  A    between atoms: _8  and  _9
REMARK    5  A    between atoms: _9  and  _10
REMARK    6  A    between atoms: _9  and  _15
REMARK    7  A    between atoms: _16  and  _18
REMARK    8  A    between atoms: _17  and  _22
REMARK    9  A    between atoms: _18  and  _21
REMARK   10  A    between atoms: _26  and  _36
REMARK   11  A    between atoms: _28  and  _29
REMARK   12  A    between atoms: _30  and  _32
REMARK   13  A    between atoms: _32  and  _34
REMARK   14  A    between atoms: _34  and  _36
REMARK                            x       y       z     vdW  Elec       q    Type
REMARK                         _______ _______ _______ _____ _____    ______ ____
ROOT
ATOM      1  C   UNL     1      27.946  14.777  -1.339  0.00  0.00    +0.400 C 
ATOM      2  N   UNL     1      28.434  14.395  -0.112  0.00  0.00    -0.278 N 
ATOM      3  H   UNL     1      28.042  13.408   0.014  0.00  0.00    +0.152 HD
ATOM      4  O   UNL     1      27.392  13.928  -2.032  0.00  0.00    -0.226 OA
ENDROOT
BRANCH   2   5
ATOM      5  C   UNL     1      29.240  14.718   1.063  0.00  0.00    +0.152 C 
BRANCH   5   6
ATOM      6  C   UNL     1      30.623  15.344   0.787  0.00  0.00    +0.193 C 
ATOM      7  O   UNL     1      31.256  15.533   2.071  0.00  0.00    -0.219 OA
BRANCH   6   8
ATOM      8  C   UNL     1      31.637  14.508  -0.024  0.00  0.00    +0.212 C 
ATOM      9  O   UNL     1      32.411  15.356  -0.887  0.00  0.00    -0.218 OA
BRANCH   8  10
ATOM     10  C   UNL     1      32.624  13.675   0.881  0.00  0.00    +0.171 C 
ATOM     11  O   UNL     1      33.989  14.013   0.657  0.00  0.00    -0.343 OA
ATOM     12  C   UNL     1      35.073  13.273   1.135  0.00  0.00    +0.220 C 
ATOM     13  C   UNL     1      34.939  11.779   0.793  0.00  0.00    +0.076 C 
ATOM     14  C   UNL     1      33.563  11.310   1.295  0.00  0.00    +0.177 C 
ATOM     15  O   UNL     1      33.404   9.922   1.038  0.00  0.00    -0.221 OA
ATOM     16  C   UNL     1      32.432  12.145   0.619  0.00  0.00    +0.155 C 
BRANCH  16  17
ATOM     17  N   UNL     1      31.122  11.699   1.088  0.00  0.00    -0.202 NA
ATOM     18  C   UNL     1      30.073  11.201   0.386  0.00  0.00    +0.242 C 
ATOM     19  C   UNL     1      28.951  10.542   1.147  0.00  0.00    +0.096 C 
ATOM     20  O   UNL     1      30.061  11.296  -0.840  0.00  0.00    -0.273 OA
ENDBRANCH  16  17
BRANCH  12  21
ATOM     21  C   UNL     1      35.362  13.499   2.718  0.00  0.00    +0.391 C 
ATOM     22  O   UNL     1      36.663  13.190   2.881  0.00  0.00    -0.243 OA
ATOM     23  O   UNL     1      34.312  14.180   3.192  0.00  0.00    -0.243 OA
ENDBRANCH  12  21
ENDBRANCH   8  10
ENDBRANCH   6   8
ENDBRANCH   5   6
ENDBRANCH   2   5
BRANCH   1  24
ATOM     24  O   UNL     1      28.095  16.026  -1.636  0.00  0.00    -0.450 OA
BRANCH  24  25
ATOM     25  C   UNL     1      27.313  17.135  -2.013  0.00  0.00    +0.240 C 
BRANCH  25  26
ATOM     26  C   UNL     1      27.064  17.351  -3.518  0.00  0.00    +0.100 C 
BRANCH  26  28
ATOM     27  N   UNL     1      26.264  15.745  -5.229  0.00  0.00    -0.134 NA
ATOM     28  C   UNL     1      26.084  16.375  -4.024  0.00  0.00    +0.086 A 
ATOM     29  C   UNL     1      24.906  15.940  -3.463  0.00  0.00    +0.133 A 
ATOM     30  N   UNL     1      24.420  15.043  -4.369  0.00  0.00    -0.249 N 
ATOM     31  N   UNL     1      25.233  14.937  -5.434  0.00  0.00    -0.065 NA
BRANCH  30  32
ATOM     32  C   UNL     1      23.156  14.339  -4.330  0.00  0.00    +0.181 C 
BRANCH  32  33
ATOM     33  C   UNL     1      22.194  14.934  -3.294  0.00  0.00    +0.166 C 
BRANCH  33  34
ATOM     34  C   UNL     1      21.946  14.044  -2.084  0.00  0.00    -0.017 A 
ATOM     35  C   UNL     1      20.676  14.061  -1.479  0.00  0.00    +0.006 A 
ATOM     36  C   UNL     1      20.397  13.242  -0.383  0.00  0.00    +0.000 A 
ATOM     37  C   UNL     1      21.376  12.392   0.121  0.00  0.00    +0.000 A 
ATOM     38  C   UNL     1      22.631  12.348  -0.477  0.00  0.00    +0.000 A 
ATOM     39  C   UNL     1      22.913  13.166  -1.576  0.00  0.00    +0.006 A 
ENDBRANCH  33  34
BRANCH  33  40
ATOM     40  O   UNL     1      20.931  15.189  -3.921  0.00  0.00    -0.385 OA
ATOM     41  H   UNL     1      21.088  15.335  -4.869  0.00  0.00    +0.210 HD
ENDBRANCH  33  40
ENDBRANCH  32  33
ENDBRANCH  30  32
ENDBRANCH  26  28
ENDBRANCH  25  26
ENDBRANCH  24  25
ENDBRANCH   1  24
TORSDOF 14
