REMARK VINA RESULT:    -6.731      2.346      3.182
REMARK INTER + INTRA:         -13.745
REMARK INTER:                 -11.405
REMARK INTRA:                  -2.340
REMARK UNBOUND:                -2.096
REMARK  Name = lig_assembled_88.pdb
REMARK  13 active torsions:
REMARK  status: ('A' for Active; 'I' for Inactive)
REMARK    1  A    between atoms: _2  and  _8
REMARK    2  A    between atoms: _4  and  _14
REMARK    3  A    between atoms: _5  and  _6
REMARK    4  A    between atoms: _5  and  _15
REMARK    5  A    between atoms: _8  and  _9
REMARK    6  A    between atoms: _15  and  _17
REMARK    7  A    between atoms: _16  and  _21
REMARK    8  A    between atoms: _17  and  _20
REMARK    9  A    between atoms: _25  and  _35
REMARK   10  A    between atoms: _27  and  _28
REMARK   11  A    between atoms: _29  and  _31
REMARK   12  A    between atoms: _31  and  _33
REMARK   13  A    between atoms: _33  and  _35
REMARK                            x       y       z     vdW  Elec       q    Type
REMARK                         _______ _______ _______ _____ _____    ______ ____
ROOT
ATOM      1  C   UNL     1      28.860  17.103  -0.492  0.00  0.00    +0.400 C 
ATOM      2  N   UNL     1      28.999  15.964   0.266  0.00  0.00    -0.278 N 
ATOM      3  H   UNL     1      29.704  16.250   1.016  0.00  0.00    +0.152 HD
ATOM      4  O   UNL     1      29.368  18.141  -0.076  0.00  0.00    -0.226 OA
ENDROOT
BRANCH   1   5
ATOM      5  O   UNL     1      28.221  16.959  -1.606  0.00  0.00    -0.450 OA
BRANCH   5   6
ATOM      6  C   UNL     1      27.117  17.513  -2.284  0.00  0.00    +0.240 C 
BRANCH   6   7
ATOM      7  C   UNL     1      26.810  16.980  -3.696  0.00  0.00    +0.100 C 
BRANCH   7   9
ATOM      8  N   UNL     1      24.754  15.600  -3.735  0.00  0.00    -0.134 NA
ATOM      9  C   UNL     1      26.118  15.680  -3.619  0.00  0.00    +0.086 A 
ATOM     10  C   UNL     1      26.628  14.418  -3.416  0.00  0.00    +0.134 A 
ATOM     11  N   UNL     1      25.519  13.625  -3.342  0.00  0.00    -0.247 N 
ATOM     12  N   UNL     1      24.399  14.332  -3.587  0.00  0.00    -0.065 NA
BRANCH  11  13
ATOM     13  C   UNL     1      25.442  12.219  -2.979  0.00  0.00    +0.184 C 
BRANCH  13  14
ATOM     14  C   UNL     1      24.873  11.991  -1.593  0.00  0.00    +0.017 A 
ATOM     15  C   UNL     1      23.499  12.117  -1.309  0.00  0.00    +0.024 A 
ATOM     16  C   UNL     1      23.010  11.899  -0.020  0.00  0.00    +0.019 A 
ATOM     17 BR   UNL     1      21.166  12.127   0.333  0.00  0.00    -0.050 Br
ATOM     18  C   UNL     1      23.864  11.519   1.012  0.00  0.00    +0.034 A 
ATOM     19  C   UNL     1      25.217  11.343   0.736  0.00  0.00    +0.061 A 
ATOM     20 BR   UNL     1      26.371  10.790   2.136  0.00  0.00    -0.046 Br
ATOM     21  C   UNL     1      25.716  11.572  -0.554  0.00  0.00    +0.136 A 
BRANCH  21  22
ATOM     22  O   UNL     1      27.043  11.387  -0.838  0.00  0.00    -0.505 OA
ATOM     23  H   UNL     1      27.439  10.896  -0.093  0.00  0.00    +0.292 HD
ENDBRANCH  21  22
ENDBRANCH  13  14
ENDBRANCH  11  13
ENDBRANCH   7   9
ENDBRANCH   6   7
ENDBRANCH   5   6
ENDBRANCH   1   5
BRANCH   2  24
ATOM     24  C   UNL     1      28.613  14.576   0.509  0.00  0.00    +0.152 C 
BRANCH  24  25
ATOM     25  C   UNL     1      29.192  13.922   1.780  0.00  0.00    +0.193 C 
ATOM     26  O   UNL     1      28.115  13.857   2.741  0.00  0.00    -0.219 OA
BRANCH  25  27
ATOM     27  C   UNL     1      29.698  12.467   1.669  0.00  0.00    +0.212 C 
ATOM     28  O   UNL     1      29.719  12.046   0.296  0.00  0.00    -0.218 OA
BRANCH  27  29
ATOM     29  C   UNL     1      31.135  12.257   2.282  0.00  0.00    +0.171 C 
ATOM     30  O   UNL     1      31.134  12.289   3.706  0.00  0.00    -0.343 OA
ATOM     31  C   UNL     1      32.284  12.373   4.493  0.00  0.00    +0.220 C 
ATOM     32  C   UNL     1      33.203  13.521   4.040  0.00  0.00    +0.076 C 
ATOM     33  C   UNL     1      33.461  13.340   2.535  0.00  0.00    +0.177 C 
ATOM     34  O   UNL     1      34.340  14.354   2.071  0.00  0.00    -0.221 OA
ATOM     35  C   UNL     1      32.111  13.358   1.752  0.00  0.00    +0.155 C 
BRANCH  35  36
ATOM     36  N   UNL     1      32.352  13.193   0.321  0.00  0.00    -0.202 NA
ATOM     37  C   UNL     1      32.344  14.118  -0.672  0.00  0.00    +0.242 C 
ATOM     38  C   UNL     1      32.915  13.733  -2.013  0.00  0.00    +0.096 C 
ATOM     39  O   UNL     1      31.879  15.236  -0.458  0.00  0.00    -0.273 OA
ENDBRANCH  35  36
BRANCH  31  40
ATOM     40  C   UNL     1      33.094  10.969   4.608  0.00  0.00    +0.391 C 
ATOM     41  O   UNL     1      34.314  11.308   5.067  0.00  0.00    -0.243 OA
ATOM     42  O   UNL     1      32.175  10.002   4.499  0.00  0.00    -0.243 OA
ENDBRANCH  31  40
ENDBRANCH  27  29
ENDBRANCH  25  27
ENDBRANCH  24  25
ENDBRANCH   2  24
TORSDOF 13
