REMARK VINA RESULT:    -6.349      1.355      3.951
REMARK INTER + INTRA:         -13.942
REMARK INTER:                 -12.363
REMARK INTRA:                  -1.579
REMARK UNBOUND:                -2.025
REMARK  Name = lig_assembled_10.pdb
REMARK  16 active torsions:
REMARK  status: ('A' for Active; 'I' for Inactive)
REMARK    1  A    between atoms: _2  and  _8
REMARK    2  A    between atoms: _4  and  _8
REMARK    3  A    between atoms: _4  and  _11
REMARK    4  A    between atoms: _5  and  _6
REMARK    5  A    between atoms: _5  and  _15
REMARK    6  A    between atoms: _8  and  _9
REMARK    7  A    between atoms: _9  and  _10
REMARK    8  A    between atoms: _10  and  _13
REMARK    9  A    between atoms: _15  and  _17
REMARK   10  A    between atoms: _16  and  _21
REMARK   11  A    between atoms: _17  and  _20
REMARK   12  A    between atoms: _25  and  _35
REMARK   13  A    between atoms: _27  and  _28
REMARK   14  A    between atoms: _29  and  _31
REMARK   15  A    between atoms: _31  and  _33
REMARK   16  A    between atoms: _33  and  _35
REMARK                            x       y       z     vdW  Elec       q    Type
REMARK                         _______ _______ _______ _____ _____    ______ ____
ROOT
ATOM      1  C   UNL     1      27.850  17.346  -0.898  0.00  0.00    +0.400 C 
ATOM      2  N   UNL     1      28.539  16.474  -0.089  0.00  0.00    -0.278 N 
ATOM      3  H   UNL     1      28.792  17.072   0.760  0.00  0.00    +0.152 HD
ATOM      4  O   UNL     1      27.541  18.443  -0.438  0.00  0.00    -0.226 OA
ENDROOT
BRANCH   2   5
ATOM      5  C   UNL     1      29.055  15.126   0.133  0.00  0.00    +0.152 C 
BRANCH   5   6
ATOM      6  C   UNL     1      30.585  14.957   0.025  0.00  0.00    +0.193 C 
ATOM      7  O   UNL     1      31.148  15.489   1.244  0.00  0.00    -0.219 OA
BRANCH   6   8
ATOM      8  C   UNL     1      31.141  13.519  -0.062  0.00  0.00    +0.212 C 
ATOM      9  O   UNL     1      30.168  12.639  -0.646  0.00  0.00    -0.218 OA
BRANCH   8  10
ATOM     10  C   UNL     1      32.477  13.416  -0.892  0.00  0.00    +0.171 C 
ATOM     11  O   UNL     1      32.320  12.664  -2.091  0.00  0.00    -0.343 OA
ATOM     12  C   UNL     1      33.379  12.213  -2.883  0.00  0.00    +0.220 C 
ATOM     13  C   UNL     1      34.440  11.474  -2.049  0.00  0.00    +0.076 C 
ATOM     14  C   UNL     1      34.847  12.400  -0.891  0.00  0.00    +0.177 C 
ATOM     15  O   UNL     1      35.858  11.779  -0.110  0.00  0.00    -0.221 OA
ATOM     16  C   UNL     1      33.599  12.756  -0.024  0.00  0.00    +0.155 C 
BRANCH  16  17
ATOM     17  N   UNL     1      33.982  13.631   1.081  0.00  0.00    -0.202 NA
ATOM     18  C   UNL     1      33.849  13.447   2.419  0.00  0.00    +0.242 C 
ATOM     19  C   UNL     1      34.594  14.373   3.346  0.00  0.00    +0.096 C 
ATOM     20  O   UNL     1      33.134  12.540   2.840  0.00  0.00    -0.273 OA
ENDBRANCH  16  17
BRANCH  12  21
ATOM     21  C   UNL     1      34.044  13.378  -3.798  0.00  0.00    +0.391 C 
ATOM     22  O   UNL     1      35.275  12.922  -4.101  0.00  0.00    -0.243 OA
ATOM     23  O   UNL     1      33.040  14.190  -4.151  0.00  0.00    -0.243 OA
ENDBRANCH  12  21
ENDBRANCH   8  10
ENDBRANCH   6   8
ENDBRANCH   5   6
ENDBRANCH   2   5
BRANCH   1  24
ATOM     24  O   UNL     1      27.617  16.929  -2.100  0.00  0.00    -0.450 OA
BRANCH  24  25
ATOM     25  C   UNL     1      26.697  17.143  -3.145  0.00  0.00    +0.240 C 
BRANCH  25  26
ATOM     26  C   UNL     1      26.598  16.060  -4.237  0.00  0.00    +0.100 C 
BRANCH  26  28
ATOM     27  N   UNL     1      24.791  14.823  -5.393  0.00  0.00    -0.134 NA
ATOM     28  C   UNL     1      25.224  15.529  -4.304  0.00  0.00    +0.086 A 
ATOM     29  C   UNL     1      24.201  15.613  -3.387  0.00  0.00    +0.134 A 
ATOM     30  N   UNL     1      23.187  14.904  -3.951  0.00  0.00    -0.237 N 
ATOM     31  N   UNL     1      23.539  14.451  -5.172  0.00  0.00    -0.065 NA
BRANCH  30  32
ATOM     32  C   UNL     1      21.858  14.583  -3.457  0.00  0.00    +0.227 C 
BRANCH  32  33
ATOM     33  C   UNL     1      20.762  15.496  -3.961  0.00  0.00    +0.330 C 
ATOM     34  O   UNL     1      19.687  15.596  -3.379  0.00  0.00    -0.249 OA
BRANCH  33  35
ATOM     35  O   UNL     1      21.026  16.239  -5.056  0.00  0.00    -0.479 OA
ATOM     36  H   UNL     1      21.896  16.715  -5.073  0.00  0.00    +0.295 HD
ENDBRANCH  33  35
ENDBRANCH  32  33
BRANCH  32  37
ATOM     37  C   UNL     1      21.784  14.367  -1.939  0.00  0.00    +0.158 C 
BRANCH  37  38
ATOM     38  C   UNL     1      21.043  13.110  -1.581  0.00  0.00    +0.307 C 
ATOM     39  O   UNL     1      20.714  12.260  -2.398  0.00  0.00    -0.251 OA
BRANCH  38  40
ATOM     40  O   UNL     1      20.841  12.959  -0.259  0.00  0.00    -0.481 OA
ATOM     41  H   UNL     1      20.085  12.390  -0.014  0.00  0.00    +0.295 HD
ENDBRANCH  38  40
ENDBRANCH  37  38
ENDBRANCH  32  37
ENDBRANCH  30  32
ENDBRANCH  26  28
ENDBRANCH  25  26
ENDBRANCH  24  25
ENDBRANCH   1  24
TORSDOF 16
