REMARK VINA RESULT:    -5.381      3.437      9.610
REMARK INTER + INTRA:         -12.348
REMARK INTER:                 -10.363
REMARK INTRA:                  -1.985
REMARK UNBOUND:                -3.035
REMARK  Name = lig_assembled_22.pdb
REMARK  15 active torsions:
REMARK  status: ('A' for Active; 'I' for Inactive)
REMARK    1  A    between atoms: _2  and  _8
REMARK    2  A    between atoms: _4  and  _8
REMARK    3  A    between atoms: _4  and  _11
REMARK    4  A    between atoms: _5  and  _6
REMARK    5  A    between atoms: _5  and  _13
REMARK    6  A    between atoms: _8  and  _9
REMARK    7  A    between atoms: _8  and  _10
REMARK    8  A    between atoms: _13  and  _15
REMARK    9  A    between atoms: _14  and  _19
REMARK   10  A    between atoms: _15  and  _18
REMARK   11  A    between atoms: _23  and  _33
REMARK   12  A    between atoms: _25  and  _26
REMARK   13  A    between atoms: _27  and  _29
REMARK   14  A    between atoms: _29  and  _31
REMARK   15  A    between atoms: _31  and  _33
REMARK                            x       y       z     vdW  Elec       q    Type
REMARK                         _______ _______ _______ _____ _____    ______ ____
ROOT
ATOM      1  C   UNL     1      28.499  17.118  -0.526  0.00  0.00    +0.400 C 
ATOM      2  N   UNL     1      27.792  16.019  -0.956  0.00  0.00    -0.278 N 
ATOM      3  H   UNL     1      26.788  16.241  -0.663  0.00  0.00    +0.152 HD
ATOM      4  O   UNL     1      27.867  18.090  -0.120  0.00  0.00    -0.226 OA
ENDROOT
BRANCH   1   5
ATOM      5  O   UNL     1      29.786  17.005  -0.564  0.00  0.00    -0.450 OA
BRANCH   5   6
ATOM      6  C   UNL     1      30.845  16.577   0.260  0.00  0.00    +0.240 C 
BRANCH   6   7
ATOM      7  C   UNL     1      31.504  15.225  -0.073  0.00  0.00    +0.100 C 
BRANCH   7   9
ATOM      8  N   UNL     1      31.987  13.408   1.528  0.00  0.00    -0.134 NA
ATOM      9  C   UNL     1      31.070  14.194   0.888  0.00  0.00    +0.086 A 
ATOM     10  C   UNL     1      29.806  13.837   1.303  0.00  0.00    +0.135 A 
ATOM     11  N   UNL     1      30.018  12.826   2.198  0.00  0.00    -0.235 N 
ATOM     12  N   UNL     1      31.335  12.575   2.323  0.00  0.00    -0.064 NA
BRANCH  11  13
ATOM     13  C   UNL     1      29.046  12.036   2.957  0.00  0.00    +0.155 C 
ATOM     14  C   UNL     1      29.474  11.841   4.427  0.00  0.00    +0.048 C 
ATOM     15  C   UNL     1      28.916  10.650   2.298  0.00  0.00    +0.048 C 
BRANCH  13  16
ATOM     16  C   UNL     1      27.683  12.734   2.961  0.00  0.00    +0.332 C 
ATOM     17  O   UNL     1      27.374  13.634   3.732  0.00  0.00    -0.248 OA
BRANCH  16  18
ATOM     18  O   UNL     1      26.801  12.290   2.033  0.00  0.00    -0.479 OA
ATOM     19  H   UNL     1      27.182  11.859   1.242  0.00  0.00    +0.295 HD
ENDBRANCH  16  18
ENDBRANCH  13  16
ENDBRANCH  11  13
ENDBRANCH   7   9
ENDBRANCH   6   7
ENDBRANCH   5   6
ENDBRANCH   1   5
BRANCH   2  20
ATOM     20  C   UNL     1      27.794  14.724  -1.631  0.00  0.00    +0.152 C 
BRANCH  20  21
ATOM     21  C   UNL     1      26.517  14.364  -2.417  0.00  0.00    +0.193 C 
ATOM     22  O   UNL     1      26.937  14.014  -3.754  0.00  0.00    -0.219 OA
BRANCH  21  23
ATOM     23  C   UNL     1      25.702  13.143  -1.936  0.00  0.00    +0.212 C 
ATOM     24  O   UNL     1      25.803  13.002  -0.510  0.00  0.00    -0.218 OA
BRANCH  23  25
ATOM     25  C   UNL     1      24.177  13.217  -2.328  0.00  0.00    +0.171 C 
ATOM     26  O   UNL     1      23.580  14.461  -1.975  0.00  0.00    -0.343 OA
ATOM     27  C   UNL     1      22.205  14.706  -1.983  0.00  0.00    +0.220 C 
ATOM     28  C   UNL     1      21.428  13.624  -1.212  0.00  0.00    +0.076 C 
ATOM     29  C   UNL     1      21.846  12.259  -1.784  0.00  0.00    +0.177 C 
ATOM     30  O   UNL     1      21.126  11.222  -1.132  0.00  0.00    -0.221 OA
ATOM     31  C   UNL     1      23.386  12.061  -1.632  0.00  0.00    +0.155 C 
BRANCH  31  32
ATOM     32  N   UNL     1      23.786  10.762  -2.168  0.00  0.00    -0.202 NA
ATOM     33  C   UNL     1      24.321   9.688  -1.532  0.00  0.00    +0.242 C 
ATOM     34  C   UNL     1      24.365   8.373  -2.265  0.00  0.00    +0.096 C 
ATOM     35  O   UNL     1      24.749   9.812  -0.387  0.00  0.00    -0.273 OA
ENDBRANCH  31  32
BRANCH  27  36
ATOM     36  C   UNL     1      21.596  14.931  -3.472  0.00  0.00    +0.391 C 
ATOM     37  O   UNL     1      20.314  15.292  -3.272  0.00  0.00    -0.243 OA
ATOM     38  O   UNL     1      22.648  14.970  -4.299  0.00  0.00    -0.243 OA
ENDBRANCH  27  36
ENDBRANCH  23  25
ENDBRANCH  21  23
ENDBRANCH  20  21
ENDBRANCH   2  20
TORSDOF 13
