REMARK VINA RESULT:    -6.634      3.526      8.767
REMARK INTER + INTRA:         -14.805
REMARK INTER:                 -11.639
REMARK INTRA:                  -3.166
REMARK UNBOUND:                -1.965
REMARK  Name = lig_assembled_11.pdb
REMARK  17 active torsions:
REMARK  status: ('A' for Active; 'I' for Inactive)
REMARK    1  A    between atoms: _2  and  _8
REMARK    2  A    between atoms: _4  and  _8
REMARK    3  A    between atoms: _4  and  _12
REMARK    4  A    between atoms: _5  and  _6
REMARK    5  A    between atoms: _5  and  _16
REMARK    6  A    between atoms: _8  and  _9
REMARK    7  A    between atoms: _9  and  _10
REMARK    8  A    between atoms: _10  and  _11
REMARK    9  A    between atoms: _11  and  _14
REMARK   10  A    between atoms: _16  and  _18
REMARK   11  A    between atoms: _17  and  _22
REMARK   12  A    between atoms: _18  and  _21
REMARK   13  A    between atoms: _26  and  _36
REMARK   14  A    between atoms: _28  and  _29
REMARK   15  A    between atoms: _30  and  _32
REMARK   16  A    between atoms: _32  and  _34
REMARK   17  A    between atoms: _34  and  _36
REMARK                            x       y       z     vdW  Elec       q    Type
REMARK                         _______ _______ _______ _____ _____    ______ ____
ROOT
ATOM      1  C   UNL     1      27.871  17.791  -1.036  0.00  0.00    +0.400 C 
ATOM      2  N   UNL     1      27.141  17.515  -2.168  0.00  0.00    -0.278 N 
ATOM      3  H   UNL     1      26.154  17.833  -1.909  0.00  0.00    +0.152 HD
ATOM      4  O   UNL     1      27.335  18.446  -0.146  0.00  0.00    -0.226 OA
ENDROOT
BRANCH   1   5
ATOM      5  O   UNL     1      29.065  17.296  -1.006  0.00  0.00    -0.450 OA
BRANCH   5   6
ATOM      6  C   UNL     1      30.141  17.156  -0.108  0.00  0.00    +0.240 C 
BRANCH   6   7
ATOM      7  C   UNL     1      30.842  15.785  -0.047  0.00  0.00    +0.100 C 
BRANCH   7   9
ATOM      8  N   UNL     1      30.585  14.379   1.973  0.00  0.00    -0.134 NA
ATOM      9  C   UNL     1      30.074  14.851   0.797  0.00  0.00    +0.086 A 
ATOM     10  C   UNL     1      28.818  14.321   0.609  0.00  0.00    +0.134 A 
ATOM     11  N   UNL     1      28.635  13.498   1.682  0.00  0.00    -0.238 N 
ATOM     12  N   UNL     1      29.692  13.562   2.515  0.00  0.00    -0.065 NA
BRANCH  11  13
ATOM     13  C   UNL     1      27.467  12.725   2.094  0.00  0.00    +0.217 C 
BRANCH  13  14
ATOM     14  C   UNL     1      27.659  11.976   3.404  0.00  0.00    +0.330 C 
ATOM     15  O   UNL     1      27.699  10.763   3.536  0.00  0.00    -0.249 OA
BRANCH  14  16
ATOM     16  O   UNL     1      27.782  12.784   4.488  0.00  0.00    -0.479 OA
ATOM     17  H   UNL     1      27.625  13.739   4.352  0.00  0.00    +0.295 HD
ENDBRANCH  14  16
ENDBRANCH  13  14
BRANCH  13  18
ATOM     18  C   UNL     1      26.952  11.818   0.962  0.00  0.00    +0.049 C 
BRANCH  18  19
ATOM     19  C   UNL     1      25.440  11.887   0.717  0.00  0.00    +0.123 C 
BRANCH  19  20
ATOM     20  C   UNL     1      24.696  10.972   1.663  0.00  0.00    +0.305 C 
ATOM     21  O   UNL     1      23.651  11.254   2.226  0.00  0.00    -0.251 OA
BRANCH  20  22
ATOM     22  O   UNL     1      25.327   9.792   1.850  0.00  0.00    -0.481 OA
ATOM     23  H   UNL     1      24.890   9.027   1.431  0.00  0.00    +0.295 HD
ENDBRANCH  20  22
ENDBRANCH  19  20
ENDBRANCH  18  19
ENDBRANCH  13  18
ENDBRANCH  11  13
ENDBRANCH   7   9
ENDBRANCH   6   7
ENDBRANCH   5   6
ENDBRANCH   1   5
BRANCH   2  24
ATOM     24  C   UNL     1      27.112  17.009  -3.538  0.00  0.00    +0.152 C 
BRANCH  24  25
ATOM     25  C   UNL     1      25.919  16.102  -3.902  0.00  0.00    +0.193 C 
ATOM     26  O   UNL     1      25.995  15.868  -5.326  0.00  0.00    -0.219 OA
BRANCH  25  27
ATOM     27  C   UNL     1      25.879  14.689  -3.281  0.00  0.00    +0.212 C 
ATOM     28  O   UNL     1      26.526  14.686  -1.998  0.00  0.00    -0.218 OA
BRANCH  27  29
ATOM     29  C   UNL     1      24.417  14.124  -3.109  0.00  0.00    +0.171 C 
ATOM     30  O   UNL     1      23.660  14.848  -2.145  0.00  0.00    -0.343 OA
ATOM     31  C   UNL     1      22.437  14.422  -1.622  0.00  0.00    +0.220 C 
ATOM     32  C   UNL     1      22.508  12.973  -1.110  0.00  0.00    +0.076 C 
ATOM     33  C   UNL     1      23.061  12.105  -2.253  0.00  0.00    +0.177 C 
ATOM     34  O   UNL     1      23.111  10.745  -1.845  0.00  0.00    -0.221 OA
ATOM     35  C   UNL     1      24.470  12.619  -2.685  0.00  0.00    +0.155 C 
BRANCH  35  36
ATOM     36  N   UNL     1      25.001  11.793  -3.766  0.00  0.00    -0.202 NA
ATOM     37  C   UNL     1      26.104  11.003  -3.792  0.00  0.00    +0.242 C 
ATOM     38  C   UNL     1      26.261  10.031  -4.933  0.00  0.00    +0.096 C 
ATOM     39  O   UNL     1      26.939  11.095  -2.895  0.00  0.00    -0.273 OA
ENDBRANCH  35  36
BRANCH  31  40
ATOM     40  C   UNL     1      21.189  14.634  -2.640  0.00  0.00    +0.391 C 
ATOM     41  O   UNL     1      20.212  13.837  -2.165  0.00  0.00    -0.243 OA
ATOM     42  O   UNL     1      21.485  15.718  -3.368  0.00  0.00    -0.243 OA
ENDBRANCH  31  40
ENDBRANCH  27  29
ENDBRANCH  25  27
ENDBRANCH  24  25
ENDBRANCH   2  24
TORSDOF 17
