REMARK VINA RESULT:    -6.990      1.751      3.691
REMARK INTER + INTRA:         -15.009
REMARK INTER:                 -12.770
REMARK INTRA:                  -2.239
REMARK UNBOUND:                -2.911
REMARK  Name = lig_assembled_23.pdb
REMARK  13 active torsions:
REMARK  status: ('A' for Active; 'I' for Inactive)
REMARK    1  A    between atoms: _2  and  _9
REMARK    2  A    between atoms: _3  and  _44
REMARK    3  A    between atoms: _6  and  _7
REMARK    4  A    between atoms: _6  and  _16
REMARK    5  A    between atoms: _11  and  _44
REMARK    6  A    between atoms: _16  and  _18
REMARK    7  A    between atoms: _17  and  _22
REMARK    8  A    between atoms: _18  and  _21
REMARK    9  A    between atoms: _26  and  _36
REMARK   10  A    between atoms: _28  and  _29
REMARK   11  A    between atoms: _30  and  _32
REMARK   12  A    between atoms: _32  and  _34
REMARK   13  A    between atoms: _34  and  _36
REMARK                            x       y       z     vdW  Elec       q    Type
REMARK                         _______ _______ _______ _____ _____    ______ ____
ROOT
ATOM      1  C   UNL     1      28.244  17.515  -0.501  0.00  0.00    +0.400 C 
ATOM      2  N   UNL     1      29.524  17.268  -0.064  0.00  0.00    -0.278 N 
ATOM      3  H   UNL     1      29.583  17.818   0.851  0.00  0.00    +0.152 HD
ATOM      4  O   UNL     1      27.471  18.088   0.263  0.00  0.00    -0.226 OA
ENDROOT
BRANCH   2   5
ATOM      5  C   UNL     1      30.803  16.596  -0.276  0.00  0.00    +0.152 C 
BRANCH   5   6
ATOM      6  C   UNL     1      30.793  15.059  -0.145  0.00  0.00    +0.193 C 
ATOM      7  O   UNL     1      31.787  14.557  -1.066  0.00  0.00    -0.219 OA
BRANCH   6   8
ATOM      8  C   UNL     1      31.192  14.455   1.219  0.00  0.00    +0.212 C 
ATOM      9  O   UNL     1      31.303  15.487   2.212  0.00  0.00    -0.218 OA
BRANCH   8  10
ATOM     10  C   UNL     1      30.181  13.363   1.738  0.00  0.00    +0.171 C 
ATOM     11  O   UNL     1      28.834  13.824   1.749  0.00  0.00    -0.343 OA
ATOM     12  C   UNL     1      27.779  13.162   2.381  0.00  0.00    +0.220 C 
ATOM     13  C   UNL     1      28.121  12.804   3.837  0.00  0.00    +0.076 C 
ATOM     14  C   UNL     1      29.452  12.035   3.824  0.00  0.00    +0.177 C 
ATOM     15  O   UNL     1      29.796  11.644   5.146  0.00  0.00    -0.221 OA
ATOM     16  C   UNL     1      30.573  12.912   3.183  0.00  0.00    +0.155 C 
BRANCH  16  17
ATOM     17  N   UNL     1      31.841  12.187   3.176  0.00  0.00    -0.202 NA
ATOM     18  C   UNL     1      32.984  12.431   3.866  0.00  0.00    +0.242 C 
ATOM     19  C   UNL     1      34.044  11.361   3.897  0.00  0.00    +0.096 C 
ATOM     20  O   UNL     1      33.127  13.507   4.444  0.00  0.00    -0.273 OA
ENDBRANCH  16  17
BRANCH  12  21
ATOM     21  C   UNL     1      27.242  11.868   1.558  0.00  0.00    +0.391 C 
ATOM     22  O   UNL     1      26.570  11.133   2.466  0.00  0.00    -0.243 OA
ATOM     23  O   UNL     1      27.401  12.162   0.262  0.00  0.00    -0.243 OA
ENDBRANCH  12  21
ENDBRANCH   8  10
ENDBRANCH   6   8
ENDBRANCH   5   6
ENDBRANCH   2   5
BRANCH   1  24
ATOM     24  O   UNL     1      27.983  17.139  -1.710  0.00  0.00    -0.450 OA
BRANCH  24  25
ATOM     25  C   UNL     1      27.110  17.468  -2.766  0.00  0.00    +0.240 C 
BRANCH  25  26
ATOM     26  C   UNL     1      26.846  16.388  -3.832  0.00  0.00    +0.100 C 
BRANCH  26  28
ATOM     27  N   UNL     1      26.179  14.038  -3.454  0.00  0.00    -0.134 NA
ATOM     28  C   UNL     1      25.918  15.369  -3.308  0.00  0.00    +0.086 A 
ATOM     29  C   UNL     1      24.726  15.524  -2.638  0.00  0.00    +0.139 A 
ATOM     30  N   UNL     1      24.294  14.242  -2.381  0.00  0.00    -0.220 N 
ATOM     31  N   UNL     1      25.188  13.360  -2.891  0.00  0.00    -0.061 NA
BRANCH  30  32
ATOM     32  C   UNL     1      23.119  13.814  -1.712  0.00  0.00    +0.069 A 
ATOM     33  C   UNL     1      23.201  12.780  -0.768  0.00  0.00    +0.056 A 
ATOM     34  C   UNL     1      22.037  12.333  -0.133  0.00  0.00    +0.107 A 
ATOM     35  C   UNL     1      20.799  12.917  -0.405  0.00  0.00    +0.028 A 
ATOM     36  C   UNL     1      20.723  13.955  -1.333  0.00  0.00    +0.004 A 
ATOM     37  C   UNL     1      21.875  14.401  -1.989  0.00  0.00    +0.028 A 
BRANCH  34  38
ATOM     38  S   UNL     1      22.149  10.989   1.011  0.00  0.00    +0.056 S 
ATOM     39  O   UNL     1      21.487  11.366   2.237  0.00  0.00    -0.153 OA
ATOM     40  O   UNL     1      21.870   9.752   0.321  0.00  0.00    -0.153 OA
BRANCH  38  41
ATOM     41  N   UNL     1      23.793  10.951   1.344  0.00  0.00    -0.204 NA
ATOM     42  H   UNL     1      24.287  11.616   0.748  0.00  0.00    +0.144 HD
ATOM     43  H   UNL     1      24.142   9.994   1.277  0.00  0.00    +0.144 HD
ENDBRANCH  38  41
ENDBRANCH  34  38
ENDBRANCH  30  32
ENDBRANCH  26  28
ENDBRANCH  25  26
ENDBRANCH  24  25
ENDBRANCH   1  24
TORSDOF 13
