REMARK VINA RESULT:    -7.802      3.696      9.853
REMARK INTER + INTRA:         -14.587
REMARK INTER:                 -12.661
REMARK INTRA:                  -1.926
REMARK UNBOUND:                -1.768
REMARK  Name = lig_assembled_91.pdb
REMARK  11 active torsions:
REMARK  status: ('A' for Active; 'I' for Inactive)
REMARK    1  A    between atoms: _2  and  _9
REMARK    2  A    between atoms: _6  and  _7
REMARK    3  A    between atoms: _6  and  _21
REMARK    4  A    between atoms: _21  and  _23
REMARK    5  A    between atoms: _22  and  _27
REMARK    6  A    between atoms: _23  and  _26
REMARK    7  A    between atoms: _31  and  _41
REMARK    8  A    between atoms: _33  and  _34
REMARK    9  A    between atoms: _35  and  _37
REMARK   10  A    between atoms: _37  and  _39
REMARK   11  A    between atoms: _39  and  _41
REMARK                            x       y       z     vdW  Elec       q    Type
REMARK                         _______ _______ _______ _____ _____    ______ ____
ROOT
ATOM      1  C   UNL     1      26.349  15.093  -4.632  0.00  0.00    +0.400 C 
ATOM      2  N   UNL     1      26.532  13.746  -4.426  0.00  0.00    -0.278 N 
ATOM      3  H   UNL     1      26.111  13.303  -5.302  0.00  0.00    +0.152 HD
ATOM      4  O   UNL     1      25.964  15.463  -5.739  0.00  0.00    -0.226 OA
ENDROOT
BRANCH   1   5
ATOM      5  O   UNL     1      26.577  15.852  -3.611  0.00  0.00    -0.450 OA
BRANCH   5   6
ATOM      6  C   UNL     1      27.114  17.122  -3.322  0.00  0.00    +0.240 C 
BRANCH   6   7
ATOM      7  C   UNL     1      27.104  17.580  -1.851  0.00  0.00    +0.100 C 
BRANCH   7   9
ATOM      8  N   UNL     1      29.339  17.801  -0.825  0.00  0.00    -0.134 NA
ATOM      9  C   UNL     1      28.263  17.023  -1.127  0.00  0.00    +0.086 A 
ATOM     10  C   UNL     1      28.479  15.755  -0.638  0.00  0.00    +0.139 A 
ATOM     11  N   UNL     1      29.739  15.785  -0.075  0.00  0.00    -0.219 N 
ATOM     12  N   UNL     1      30.223  17.049  -0.188  0.00  0.00    -0.060 NA
BRANCH  11  13
ATOM     13  C   UNL     1      30.491  14.733   0.535  0.00  0.00    +0.085 A 
ATOM     14  C   UNL     1      29.919  13.965   1.613  0.00  0.00    +0.026 A 
ATOM     15  C   UNL     1      30.753  12.969   2.158  0.00  0.00    +0.074 A 
ATOM     16  C   UNL     1      30.314  12.167   3.200  0.00  0.00    +0.028 A 
ATOM     17  C   UNL     1      29.042  12.294   3.750  0.00  0.00    +0.002 A 
ATOM     18  C   UNL     1      28.178  13.232   3.224  0.00  0.00    +0.001 A 
ATOM     19  N   UNL     1      31.982  12.708   1.719  0.00  0.00    -0.247 NA
ATOM     20  C   UNL     1      32.496  13.402   0.704  0.00  0.00    +0.074 A 
ATOM     21  C   UNL     1      33.788  13.047   0.329  0.00  0.00    +0.028 A 
ATOM     22  C   UNL     1      34.472  13.704  -0.689  0.00  0.00    +0.002 A 
ATOM     23  C   UNL     1      33.855  14.752  -1.342  0.00  0.00    +0.001 A 
ATOM     24  C   UNL     1      32.558  15.124  -0.973  0.00  0.00    +0.012 A 
ATOM     25  C   UNL     1      28.599  14.038   2.160  0.00  0.00    +0.012 A 
ATOM     26  C   UNL     1      31.821  14.447   0.053  0.00  0.00    +0.026 A 
ENDBRANCH  11  13
ENDBRANCH   7   9
ENDBRANCH   6   7
ENDBRANCH   5   6
ENDBRANCH   1   5
BRANCH   2  27
ATOM     27  C   UNL     1      27.043  12.676  -3.573  0.00  0.00    +0.152 C 
BRANCH  27  28
ATOM     28  C   UNL     1      25.990  11.718  -2.981  0.00  0.00    +0.193 C 
ATOM     29  O   UNL     1      26.674  10.480  -2.685  0.00  0.00    -0.219 OA
BRANCH  28  30
ATOM     30  C   UNL     1      25.327  12.121  -1.645  0.00  0.00    +0.212 C 
ATOM     31  O   UNL     1      25.692  13.464  -1.289  0.00  0.00    -0.218 OA
BRANCH  30  32
ATOM     32  C   UNL     1      23.754  12.015  -1.671  0.00  0.00    +0.171 C 
ATOM     33  O   UNL     1      23.145  13.093  -2.375  0.00  0.00    -0.343 OA
ATOM     34  C   UNL     1      21.778  13.380  -2.347  0.00  0.00    +0.220 C 
ATOM     35  C   UNL     1      21.240  13.449  -0.908  0.00  0.00    +0.076 C 
ATOM     36  C   UNL     1      21.642  12.145  -0.200  0.00  0.00    +0.177 C 
ATOM     37  O   UNL     1      21.132  12.140   1.126  0.00  0.00    -0.221 OA
ATOM     38  C   UNL     1      23.194  11.983  -0.212  0.00  0.00    +0.155 C 
BRANCH  38  39
ATOM     39  N   UNL     1      23.580  10.749   0.466  0.00  0.00    -0.202 NA
ATOM     40  C   UNL     1      24.306  10.572   1.599  0.00  0.00    +0.242 C 
ATOM     41  C   UNL     1      24.309   9.209   2.242  0.00  0.00    +0.096 C 
ATOM     42  O   UNL     1      24.937  11.516   2.071  0.00  0.00    -0.273 OA
ENDBRANCH  38  39
BRANCH  34  43
ATOM     43  C   UNL     1      20.889  12.382  -3.270  0.00  0.00    +0.391 C 
ATOM     44  O   UNL     1      19.622  12.551  -2.844  0.00  0.00    -0.243 OA
ATOM     45  O   UNL     1      21.682  12.008  -4.281  0.00  0.00    -0.243 OA
ENDBRANCH  34  43
ENDBRANCH  30  32
ENDBRANCH  28  30
ENDBRANCH  27  28
ENDBRANCH   2  27
TORSDOF 11
