REMARK VINA RESULT:    -6.144      4.968      8.008
REMARK INTER + INTRA:         -14.971
REMARK INTER:                 -12.135
REMARK INTRA:                  -2.835
REMARK UNBOUND:                -3.439
REMARK  Name = lig_assembled_84.pdb
REMARK  16 active torsions:
REMARK  status: ('A' for Active; 'I' for Inactive)
REMARK    1  A    between atoms: _2  and  _10
REMARK    2  A    between atoms: _3  and  _13
REMARK    3  A    between atoms: _4  and  _16
REMARK    4  A    between atoms: _7  and  _8
REMARK    5  A    between atoms: _7  and  _23
REMARK    6  A    between atoms: _10  and  _11
REMARK    7  A    between atoms: _11  and  _12
REMARK    8  A    between atoms: _11  and  _13
REMARK    9  A    between atoms: _23  and  _25
REMARK   10  A    between atoms: _24  and  _29
REMARK   11  A    between atoms: _25  and  _28
REMARK   12  A    between atoms: _33  and  _43
REMARK   13  A    between atoms: _35  and  _36
REMARK   14  A    between atoms: _37  and  _39
REMARK   15  A    between atoms: _39  and  _41
REMARK   16  A    between atoms: _41  and  _43
REMARK                            x       y       z     vdW  Elec       q    Type
REMARK                         _______ _______ _______ _____ _____    ______ ____
ROOT
ATOM      1  C   UNL     1      28.156  15.415  -1.112  0.00  0.00    +0.240 C 
ENDROOT
BRANCH   1   2
ATOM      2  C   UNL     1      28.566  13.952  -1.369  0.00  0.00    +0.100 C 
BRANCH   2   4
ATOM      3  N   UNL     1      28.102  13.726   1.055  0.00  0.00    -0.134 NA
ATOM      4  C   UNL     1      28.400  13.142  -0.148  0.00  0.00    +0.086 A 
ATOM      5  C   UNL     1      28.535  11.783   0.033  0.00  0.00    +0.133 A 
ATOM      6  N   UNL     1      28.372  11.613   1.376  0.00  0.00    -0.251 N 
ATOM      7  N   UNL     1      28.090  12.778   1.984  0.00  0.00    -0.065 NA
BRANCH   6   8
ATOM      8  C   UNL     1      28.606  10.411   2.152  0.00  0.00    +0.149 C 
BRANCH   8   9
ATOM      9  C   UNL     1      28.235  10.535   3.639  0.00  0.00    +0.021 C 
ATOM     10  C   UNL     1      27.012   9.671   3.982  0.00  0.00    +0.010 C 
BRANCH   9  11
ATOM     11  C   UNL     1      29.414  10.113   4.549  0.00  0.00    +0.089 C 
BRANCH  11  12
ATOM     12  N   UNL     1      29.643  10.959   5.728  0.00  0.00    -0.299 NA
ATOM     13  C   UNL     1      31.102  11.089   5.987  0.00  0.00    +0.103 C 
ATOM     14  C   UNL     1      31.391  12.039   7.167  0.00  0.00    +0.120 C 
ATOM     15  N   UNL     1      30.716  11.547   8.373  0.00  0.00    -0.327 N 
ATOM     16  C   UNL     1      29.271  11.327   8.212  0.00  0.00    +0.120 C 
ATOM     17  C   UNL     1      29.000  10.440   6.963  0.00  0.00    +0.103 C 
BRANCH  15  18
ATOM     18  C   UNL     1      31.372  11.362   9.568  0.00  0.00    +0.030 A 
ATOM     19  C   UNL     1      31.026  10.310  10.437  0.00  0.00    +0.024 A 
ATOM     20  C   UNL     1      31.663  10.120  11.667  0.00  0.00    +0.022 A 
ATOM     21  C   UNL     1      32.676  10.982  12.054  0.00  0.00    +0.041 A 
ATOM     22 CL   UNL     1      33.462  10.758  13.568  0.00  0.00    -0.084 Cl
ATOM     23  C   UNL     1      33.050  12.032  11.225  0.00  0.00    +0.022 A 
ATOM     24  C   UNL     1      32.399  12.216   9.996  0.00  0.00    +0.024 A 
ENDBRANCH  15  18
ENDBRANCH  11  12
ENDBRANCH   9  11
ENDBRANCH   8   9
ENDBRANCH   6   8
ENDBRANCH   2   4
ENDBRANCH   1   2
BRANCH   1  25
ATOM     25  O   UNL     1      29.186  16.370  -1.009  0.00  0.00    -0.450 OA
BRANCH  25  26
ATOM     26  C   UNL     1      29.841  17.011  -0.096  0.00  0.00    +0.400 C 
ATOM     27  N   UNL     1      30.841  16.302   0.527  0.00  0.00    -0.278 N 
ATOM     28  H   UNL     1      31.367  17.051   1.080  0.00  0.00    +0.152 HD
ATOM     29  O   UNL     1      29.669  18.182   0.233  0.00  0.00    -0.226 OA
BRANCH  27  30
ATOM     30  C   UNL     1      31.483  15.015   0.778  0.00  0.00    +0.152 C 
BRANCH  30  31
ATOM     31  C   UNL     1      32.281  14.412  -0.397  0.00  0.00    +0.193 C 
ATOM     32  O   UNL     1      32.767  15.524  -1.182  0.00  0.00    -0.219 OA
BRANCH  31  33
ATOM     33  C   UNL     1      33.548  13.597  -0.058  0.00  0.00    +0.212 C 
ATOM     34  O   UNL     1      34.723  14.278  -0.526  0.00  0.00    -0.218 OA
BRANCH  33  35
ATOM     35  C   UNL     1      33.712  13.310   1.483  0.00  0.00    +0.171 C 
ATOM     36  O   UNL     1      34.722  14.112   2.086  0.00  0.00    -0.343 OA
ATOM     37  C   UNL     1      35.240  13.898   3.365  0.00  0.00    +0.220 C 
ATOM     38  C   UNL     1      35.676  12.436   3.567  0.00  0.00    +0.076 C 
ATOM     39  C   UNL     1      34.482  11.541   3.194  0.00  0.00    +0.177 C 
ATOM     40  O   UNL     1      34.819  10.177   3.401  0.00  0.00    -0.221 OA
ATOM     41  C   UNL     1      34.057  11.802   1.715  0.00  0.00    +0.155 C 
BRANCH  41  42
ATOM     42  N   UNL     1      32.927  10.949   1.354  0.00  0.00    -0.202 NA
ATOM     43  C   UNL     1      32.840   9.978   0.410  0.00  0.00    +0.242 C 
ATOM     44  C   UNL     1      31.653   9.051   0.445  0.00  0.00    +0.096 C 
ATOM     45  O   UNL     1      33.722   9.877  -0.441  0.00  0.00    -0.273 OA
ENDBRANCH  41  42
BRANCH  37  46
ATOM     46  C   UNL     1      34.252  14.396   4.555  0.00  0.00    +0.391 C 
ATOM     47  O   UNL     1      33.661  15.507   4.074  0.00  0.00    -0.243 OA
ATOM     48  O   UNL     1      34.169  13.376   5.418  0.00  0.00    -0.243 OA
ENDBRANCH  37  46
ENDBRANCH  33  35
ENDBRANCH  31  33
ENDBRANCH  30  31
ENDBRANCH  27  30
ENDBRANCH  25  26
ENDBRANCH   1  25
TORSDOF 15
