REMARK VINA RESULT:    -6.117      1.530      2.035
REMARK INTER + INTRA:         -13.290
REMARK INTER:                 -11.992
REMARK INTRA:                  -1.298
REMARK UNBOUND:                -1.808
REMARK  Name = lig_assembled_43.pdb
REMARK  15 active torsions:
REMARK  status: ('A' for Active; 'I' for Inactive)
REMARK    1  A    between atoms: _2  and  _8
REMARK    2  A    between atoms: _5  and  _6
REMARK    3  A    between atoms: _5  and  _13
REMARK    4  A    between atoms: _8  and  _9
REMARK    5  A    between atoms: _9  and  _10
REMARK    6  A    between atoms: _10  and  _11
REMARK    7  A    between atoms: _11  and  _12
REMARK    8  A    between atoms: _13  and  _15
REMARK    9  A    between atoms: _14  and  _19
REMARK   10  A    between atoms: _15  and  _18
REMARK   11  A    between atoms: _23  and  _33
REMARK   12  A    between atoms: _25  and  _26
REMARK   13  A    between atoms: _27  and  _29
REMARK   14  A    between atoms: _29  and  _31
REMARK   15  A    between atoms: _31  and  _33
REMARK                            x       y       z     vdW  Elec       q    Type
REMARK                         _______ _______ _______ _____ _____    ______ ____
ROOT
ATOM      1  C   UNL     1      28.561  14.665   0.007  0.00  0.00    +0.152 C 
ENDROOT
BRANCH   1   3
ATOM      2  C   UNL     1      28.043  17.245  -0.713  0.00  0.00    +0.400 C 
ATOM      3  N   UNL     1      28.393  16.115  -0.011  0.00  0.00    -0.278 N 
ATOM      4  H   UNL     1      28.640  16.492   0.958  0.00  0.00    +0.152 HD
ATOM      5  O   UNL     1      27.916  18.297  -0.090  0.00  0.00    -0.226 OA
BRANCH   2   6
ATOM      6  O   UNL     1      27.909  17.093  -1.989  0.00  0.00    -0.450 OA
BRANCH   6   7
ATOM      7  C   UNL     1      26.885  16.980  -2.950  0.00  0.00    +0.240 C 
BRANCH   7   8
ATOM      8  C   UNL     1      27.021  15.868  -4.007  0.00  0.00    +0.100 C 
BRANCH   8  10
ATOM      9  N   UNL     1      25.199  15.077  -5.485  0.00  0.00    -0.134 NA
ATOM     10  C   UNL     1      25.722  15.205  -4.224  0.00  0.00    +0.086 A 
ATOM     11  C   UNL     1      24.852  14.645  -3.318  0.00  0.00    +0.133 A 
ATOM     12  N   UNL     1      23.820  14.200  -4.087  0.00  0.00    -0.251 N 
ATOM     13  N   UNL     1      24.030  14.458  -5.388  0.00  0.00    -0.065 NA
BRANCH  12  14
ATOM     14  C   UNL     1      22.599  13.554  -3.654  0.00  0.00    +0.145 C 
BRANCH  14  15
ATOM     15  C   UNL     1      21.784  14.459  -2.735  0.00  0.00    +0.024 C 
BRANCH  15  16
ATOM     16  C   UNL     1      21.925  14.061  -1.265  0.00  0.00    +0.006 C 
BRANCH  16  17
ATOM     17  C   UNL     1      20.682  13.302  -0.793  0.00  0.00    +0.026 C 
BRANCH  17  18
ATOM     18  C   UNL     1      21.037  12.097   0.027  0.00  0.00    -0.034 C 
ATOM     19  C   UNL     1      22.274  11.835   0.472  0.00  0.00    +0.004 C 
ENDBRANCH  17  18
ENDBRANCH  16  17
ENDBRANCH  15  16
ENDBRANCH  14  15
ENDBRANCH  12  14
ENDBRANCH   8  10
ENDBRANCH   7   8
ENDBRANCH   6   7
ENDBRANCH   2   6
ENDBRANCH   1   3
BRANCH   1  20
ATOM     20  C   UNL     1      29.970  14.148   0.367  0.00  0.00    +0.193 C 
ATOM     21  O   UNL     1      29.888  12.706   0.397  0.00  0.00    -0.219 OA
BRANCH  20  22
ATOM     22  C   UNL     1      31.117  14.449  -0.622  0.00  0.00    +0.212 C 
ATOM     23  O   UNL     1      31.506  15.829  -0.535  0.00  0.00    -0.218 OA
BRANCH  22  24
ATOM     24  C   UNL     1      32.391  13.550  -0.393  0.00  0.00    +0.171 C 
ATOM     25  O   UNL     1      33.164  13.971   0.726  0.00  0.00    -0.343 OA
ATOM     26  C   UNL     1      34.454  13.515   1.010  0.00  0.00    +0.220 C 
ATOM     27  C   UNL     1      35.379  13.621  -0.215  0.00  0.00    +0.076 C 
ATOM     28  C   UNL     1      34.682  12.906  -1.385  0.00  0.00    +0.177 C 
ATOM     29  O   UNL     1      35.514  12.940  -2.535  0.00  0.00    -0.221 OA
ATOM     30  C   UNL     1      33.296  13.565  -1.668  0.00  0.00    +0.155 C 
BRANCH  30  31
ATOM     31  N   UNL     1      32.634  12.893  -2.783  0.00  0.00    -0.202 NA
ATOM     32  C   UNL     1      32.671  13.173  -4.111  0.00  0.00    +0.242 C 
ATOM     33  C   UNL     1      32.135  12.145  -5.074  0.00  0.00    +0.096 C 
ATOM     34  O   UNL     1      33.137  14.244  -4.493  0.00  0.00    -0.273 OA
ENDBRANCH  30  31
BRANCH  26  35
ATOM     35  C   UNL     1      34.485  12.024   1.654  0.00  0.00    +0.391 C 
ATOM     36  O   UNL     1      33.241  11.825   2.131  0.00  0.00    -0.243 OA
ATOM     37  O   UNL     1      35.612  11.453   1.211  0.00  0.00    -0.243 OA
ENDBRANCH  26  35
ENDBRANCH  22  24
ENDBRANCH  20  22
ENDBRANCH   1  20
TORSDOF 15
