REMARK VINA RESULT:    -5.990      4.799     11.126
REMARK INTER + INTRA:         -14.681
REMARK INTER:                 -13.524
REMARK INTRA:                  -1.157
REMARK UNBOUND:                -3.439
REMARK  Name = lig_assembled_84.pdb
REMARK  16 active torsions:
REMARK  status: ('A' for Active; 'I' for Inactive)
REMARK    1  A    between atoms: _2  and  _10
REMARK    2  A    between atoms: _3  and  _13
REMARK    3  A    between atoms: _4  and  _16
REMARK    4  A    between atoms: _7  and  _8
REMARK    5  A    between atoms: _7  and  _23
REMARK    6  A    between atoms: _10  and  _11
REMARK    7  A    between atoms: _11  and  _12
REMARK    8  A    between atoms: _11  and  _13
REMARK    9  A    between atoms: _23  and  _25
REMARK   10  A    between atoms: _24  and  _29
REMARK   11  A    between atoms: _25  and  _28
REMARK   12  A    between atoms: _33  and  _43
REMARK   13  A    between atoms: _35  and  _36
REMARK   14  A    between atoms: _37  and  _39
REMARK   15  A    between atoms: _39  and  _41
REMARK   16  A    between atoms: _41  and  _43
REMARK                            x       y       z     vdW  Elec       q    Type
REMARK                         _______ _______ _______ _____ _____    ______ ____
ROOT
ATOM      1  C   UNL     1      29.752  15.657  -0.109  0.00  0.00    +0.240 C 
ENDROOT
BRANCH   1   2
ATOM      2  C   UNL     1      31.000  15.918   0.756  0.00  0.00    +0.100 C 
BRANCH   2   4
ATOM      3  N   UNL     1      30.496  14.043   2.297  0.00  0.00    -0.134 NA
ATOM      4  C   UNL     1      31.389  14.700   1.492  0.00  0.00    +0.086 A 
ATOM      5  C   UNL     1      32.607  14.059   1.554  0.00  0.00    +0.133 A 
ATOM      6  N   UNL     1      32.406  13.062   2.461  0.00  0.00    -0.251 N 
ATOM      7  N   UNL     1      31.133  13.040   2.889  0.00  0.00    -0.065 NA
BRANCH   6   8
ATOM      8  C   UNL     1      33.403  12.196   3.061  0.00  0.00    +0.149 C 
BRANCH   8   9
ATOM      9  C   UNL     1      33.680  12.483   4.546  0.00  0.00    +0.021 C 
ATOM     10  C   UNL     1      33.885  13.984   4.795  0.00  0.00    +0.010 C 
BRANCH   9  11
ATOM     11  C   UNL     1      32.518  11.984   5.440  0.00  0.00    +0.089 C 
BRANCH  11  12
ATOM     12  N   UNL     1      32.599  12.363   6.858  0.00  0.00    -0.299 NA
ATOM     13  C   UNL     1      33.674  11.586   7.532  0.00  0.00    +0.103 C 
ATOM     14  C   UNL     1      33.850  12.013   9.003  0.00  0.00    +0.120 C 
ATOM     15  N   UNL     1      32.584  11.836   9.724  0.00  0.00    -0.327 N 
ATOM     16  C   UNL     1      31.436  12.518   9.109  0.00  0.00    +0.120 C 
ATOM     17  C   UNL     1      31.333  12.141   7.603  0.00  0.00    +0.103 C 
BRANCH  15  18
ATOM     18  C   UNL     1      32.493  11.136  10.905  0.00  0.00    +0.030 A 
ATOM     19  C   UNL     1      33.573  11.079  11.807  0.00  0.00    +0.024 A 
ATOM     20  C   UNL     1      33.510  10.353  13.000  0.00  0.00    +0.022 A 
ATOM     21  C   UNL     1      32.350   9.669  13.324  0.00  0.00    +0.041 A 
ATOM     22 CL   UNL     1      32.265   8.768  14.788  0.00  0.00    -0.084 Cl
ATOM     23  C   UNL     1      31.259   9.701  12.463  0.00  0.00    +0.022 A 
ATOM     24  C   UNL     1      31.338  10.427  11.266  0.00  0.00    +0.024 A 
ENDBRANCH  15  18
ENDBRANCH  11  12
ENDBRANCH   9  11
ENDBRANCH   8   9
ENDBRANCH   6   8
ENDBRANCH   2   4
ENDBRANCH   1   2
BRANCH   1  25
ATOM     25  O   UNL     1      29.208  16.750  -0.812  0.00  0.00    -0.450 OA
BRANCH  25  26
ATOM     26  C   UNL     1      28.066  17.326  -0.997  0.00  0.00    +0.400 C 
ATOM     27  N   UNL     1      27.140  16.598  -1.705  0.00  0.00    -0.278 N 
ATOM     28  H   UNL     1      26.236  17.153  -1.573  0.00  0.00    +0.152 HD
ATOM     29  O   UNL     1      27.736  18.432  -0.577  0.00  0.00    -0.226 OA
BRANCH  27  30
ATOM     30  C   UNL     1      26.846  15.442  -2.548  0.00  0.00    +0.152 C 
BRANCH  30  31
ATOM     31  C   UNL     1      25.401  14.905  -2.487  0.00  0.00    +0.193 C 
ATOM     32  O   UNL     1      24.773  15.263  -3.738  0.00  0.00    -0.219 OA
BRANCH  31  33
ATOM     33  C   UNL     1      25.210  13.376  -2.383  0.00  0.00    +0.212 C 
ATOM     34  O   UNL     1      26.261  12.690  -3.082  0.00  0.00    -0.218 OA
BRANCH  33  35
ATOM     35  C   UNL     1      25.167  12.852  -0.897  0.00  0.00    +0.171 C 
ATOM     36  O   UNL     1      26.266  12.003  -0.584  0.00  0.00    -0.343 OA
ATOM     37  C   UNL     1      26.350  11.214   0.566  0.00  0.00    +0.220 C 
ATOM     38  C   UNL     1      25.082  10.367   0.771  0.00  0.00    +0.076 C 
ATOM     39  C   UNL     1      23.877  11.321   0.727  0.00  0.00    +0.177 C 
ATOM     40  O   UNL     1      22.678  10.593   0.951  0.00  0.00    -0.221 OA
ATOM     41  C   UNL     1      23.836  12.073  -0.640  0.00  0.00    +0.155 C 
BRANCH  41  42
ATOM     42  N   UNL     1      22.688  12.975  -0.688  0.00  0.00    -0.202 NA
ATOM     43  C   UNL     1      21.451  12.778  -1.211  0.00  0.00    +0.242 C 
ATOM     44  C   UNL     1      20.364  13.762  -0.865  0.00  0.00    +0.096 C 
ATOM     45  O   UNL     1      21.247  11.812  -1.943  0.00  0.00    -0.273 OA
ENDBRANCH  41  42
BRANCH  37  46
ATOM     46  C   UNL     1      26.728  12.057   1.902  0.00  0.00    +0.391 C 
ATOM     47  O   UNL     1      27.286  13.196   1.449  0.00  0.00    -0.243 OA
ATOM     48  O   UNL     1      26.085  11.457   2.912  0.00  0.00    -0.243 OA
ENDBRANCH  37  46
ENDBRANCH  33  35
ENDBRANCH  31  33
ENDBRANCH  30  31
ENDBRANCH  27  30
ENDBRANCH  25  26
ENDBRANCH   1  25
TORSDOF 15
