REMARK VINA RESULT:    -6.622      2.294      3.882
REMARK INTER + INTRA:         -13.850
REMARK INTER:                 -12.244
REMARK INTRA:                  -1.605
REMARK UNBOUND:                -2.194
REMARK  Name = lig_assembled_14.pdb
REMARK  13 active torsions:
REMARK  status: ('A' for Active; 'I' for Inactive)
REMARK    1  A    between atoms: _2  and  _9
REMARK    2  A    between atoms: _3  and  _10
REMARK    3  A    between atoms: _6  and  _7
REMARK    4  A    between atoms: _6  and  _14
REMARK    5  A    between atoms: _9  and  _10
REMARK    6  A    between atoms: _14  and  _16
REMARK    7  A    between atoms: _15  and  _20
REMARK    8  A    between atoms: _16  and  _19
REMARK    9  A    between atoms: _24  and  _34
REMARK   10  A    between atoms: _26  and  _27
REMARK   11  A    between atoms: _28  and  _30
REMARK   12  A    between atoms: _30  and  _32
REMARK   13  A    between atoms: _32  and  _34
REMARK                            x       y       z     vdW  Elec       q    Type
REMARK                         _______ _______ _______ _____ _____    ______ ____
ROOT
ATOM      1  C   UNL     1      28.247  17.737  -0.469  0.00  0.00    +0.400 C 
ATOM      2  N   UNL     1      29.422  17.371   0.144  0.00  0.00    -0.278 N 
ATOM      3  H   UNL     1      29.402  17.915   1.064  0.00  0.00    +0.152 HD
ATOM      4  O   UNL     1      27.431  18.384   0.183  0.00  0.00    -0.226 OA
ENDROOT
BRANCH   2   5
ATOM      5  C   UNL     1      30.649  16.579   0.110  0.00  0.00    +0.152 C 
BRANCH   5   6
ATOM      6  C   UNL     1      30.468  15.048   0.060  0.00  0.00    +0.193 C 
ATOM      7  O   UNL     1      31.272  14.570  -1.041  0.00  0.00    -0.219 OA
BRANCH   6   8
ATOM      8  C   UNL     1      30.957  14.231   1.277  0.00  0.00    +0.212 C 
ATOM      9  O   UNL     1      31.250  15.101   2.381  0.00  0.00    -0.218 OA
BRANCH   8  10
ATOM     10  C   UNL     1      29.921  13.142   1.754  0.00  0.00    +0.171 C 
ATOM     11  O   UNL     1      28.582  13.627   1.763  0.00  0.00    -0.343 OA
ATOM     12  C   UNL     1      27.509  12.966   2.364  0.00  0.00    +0.220 C 
ATOM     13  C   UNL     1      27.828  12.561   3.814  0.00  0.00    +0.076 C 
ATOM     14  C   UNL     1      29.146  11.770   3.794  0.00  0.00    +0.177 C 
ATOM     15  O   UNL     1      29.467  11.336   5.108  0.00  0.00    -0.221 OA
ATOM     16  C   UNL     1      30.288  12.644   3.190  0.00  0.00    +0.155 C 
BRANCH  16  17
ATOM     17  N   UNL     1      31.544  11.899   3.176  0.00  0.00    -0.202 NA
ATOM     18  C   UNL     1      32.659  12.063   3.932  0.00  0.00    +0.242 C 
ATOM     19  C   UNL     1      33.699  10.972   3.919  0.00  0.00    +0.096 C 
ATOM     20  O   UNL     1      32.794  13.083   4.604  0.00  0.00    -0.273 OA
ENDBRANCH  16  17
BRANCH  12  21
ATOM     21  C   UNL     1      26.959  11.705   1.500  0.00  0.00    +0.391 C 
ATOM     22  O   UNL     1      26.195  11.001   2.358  0.00  0.00    -0.243 OA
ATOM     23  O   UNL     1      27.214  11.996   0.218  0.00  0.00    -0.243 OA
ENDBRANCH  12  21
ENDBRANCH   8  10
ENDBRANCH   6   8
ENDBRANCH   5   6
ENDBRANCH   2   5
BRANCH   1  24
ATOM     24  O   UNL     1      28.127  17.384  -1.706  0.00  0.00    -0.450 OA
BRANCH  24  25
ATOM     25  C   UNL     1      27.430  16.440  -2.485  0.00  0.00    +0.240 C 
BRANCH  25  26
ATOM     26  C   UNL     1      26.765  16.939  -3.782  0.00  0.00    +0.100 C 
BRANCH  26  28
ATOM     27  N   UNL     1      25.845  15.450  -5.530  0.00  0.00    -0.134 NA
ATOM     28  C   UNL     1      25.772  15.961  -4.261  0.00  0.00    +0.086 A 
ATOM     29  C   UNL     1      24.680  15.420  -3.620  0.00  0.00    +0.133 A 
ATOM     30  N   UNL     1      24.124  14.603  -4.556  0.00  0.00    -0.250 N 
ATOM     31  N   UNL     1      24.831  14.614  -5.699  0.00  0.00    -0.065 NA
BRANCH  30  32
ATOM     32  C   UNL     1      22.906  13.829  -4.458  0.00  0.00    +0.160 C 
BRANCH  32  33
ATOM     33  C   UNL     1      21.961  14.382  -3.386  0.00  0.00    +0.107 C 
BRANCH  33  34
ATOM     34  N   UNL     1      21.471  13.347  -2.459  0.00  0.00    -0.301 NA
ATOM     35  C   UNL     1      22.548  12.675  -1.725  0.00  0.00    +0.084 C 
ATOM     36  C   UNL     1      21.802  12.000  -0.592  0.00  0.00    +0.017 C 
ATOM     37  C   UNL     1      20.731  13.007  -0.214  0.00  0.00    +0.017 C 
ATOM     38  C   UNL     1      20.578  13.909  -1.436  0.00  0.00    +0.084 C 
ENDBRANCH  33  34
ENDBRANCH  32  33
ENDBRANCH  30  32
ENDBRANCH  26  28
ENDBRANCH  25  26
ENDBRANCH  24  25
ENDBRANCH   1  24
TORSDOF 13
