REMARK VINA RESULT:    -6.581      4.362      9.919
REMARK INTER + INTRA:         -13.930
REMARK INTER:                 -11.862
REMARK INTRA:                  -2.068
REMARK UNBOUND:                -2.732
REMARK  Name = lig_assembled_85.pdb
REMARK  14 active torsions:
REMARK  status: ('A' for Active; 'I' for Inactive)
REMARK    1  A    between atoms: _2  and  _9
REMARK    2  A    between atoms: _3  and  _5
REMARK    3  A    between atoms: _3  and  _16
REMARK    4  A    between atoms: _6  and  _7
REMARK    5  A    between atoms: _6  and  _18
REMARK    6  A    between atoms: _14  and  _15
REMARK    7  A    between atoms: _18  and  _20
REMARK    8  A    between atoms: _19  and  _24
REMARK    9  A    between atoms: _20  and  _23
REMARK   10  A    between atoms: _28  and  _38
REMARK   11  A    between atoms: _30  and  _31
REMARK   12  A    between atoms: _32  and  _34
REMARK   13  A    between atoms: _34  and  _36
REMARK   14  A    between atoms: _36  and  _38
REMARK                            x       y       z     vdW  Elec       q    Type
REMARK                         _______ _______ _______ _____ _____    ______ ____
ROOT
ATOM      1  C   UNL     1      27.906  17.707  -1.052  0.00  0.00    +0.400 C 
ATOM      2  N   UNL     1      27.182  17.561  -2.212  0.00  0.00    -0.278 N 
ATOM      3  H   UNL     1      26.265  18.065  -1.996  0.00  0.00    +0.152 HD
ATOM      4  O   UNL     1      27.471  18.465  -0.189  0.00  0.00    -0.226 OA
ENDROOT
BRANCH   2   5
ATOM      5  C   UNL     1      27.112  17.051  -3.579  0.00  0.00    +0.152 C 
BRANCH   5   6
ATOM      6  C   UNL     1      25.951  16.082  -3.883  0.00  0.00    +0.193 C 
ATOM      7  O   UNL     1      25.942  15.881  -5.314  0.00  0.00    -0.219 OA
BRANCH   6   8
ATOM      8  C   UNL     1      26.036  14.657  -3.294  0.00  0.00    +0.212 C 
ATOM      9  O   UNL     1      26.748  14.671  -2.046  0.00  0.00    -0.218 OA
BRANCH   8  10
ATOM     10  C   UNL     1      24.626  13.991  -3.063  0.00  0.00    +0.171 C 
ATOM     11  O   UNL     1      23.799  14.751  -2.188  0.00  0.00    -0.343 OA
ATOM     12  C   UNL     1      22.610  14.283  -1.623  0.00  0.00    +0.220 C 
ATOM     13  C   UNL     1      22.799  12.911  -0.952  0.00  0.00    +0.076 C 
ATOM     14  C   UNL     1      23.436  11.972  -1.989  0.00  0.00    +0.177 C 
ATOM     15  O   UNL     1      23.596  10.676  -1.431  0.00  0.00    -0.221 OA
ATOM     16  C   UNL     1      24.801  12.553  -2.473  0.00  0.00    +0.155 C 
BRANCH  16  17
ATOM     17  N   UNL     1      25.413  11.660  -3.453  0.00  0.00    -0.202 NA
ATOM     18  C   UNL     1      26.592  10.989  -3.399  0.00  0.00    +0.242 C 
ATOM     19  C   UNL     1      26.846   9.906  -4.415  0.00  0.00    +0.096 C 
ATOM     20  O   UNL     1      27.414  11.274  -2.530  0.00  0.00    -0.273 OA
ENDBRANCH  16  17
BRANCH  12  21
ATOM     21  C   UNL     1      21.361  14.272  -2.662  0.00  0.00    +0.391 C 
ATOM     22  O   UNL     1      21.723  15.113  -3.650  0.00  0.00    -0.243 OA
ATOM     23  O   UNL     1      20.596  13.231  -2.310  0.00  0.00    -0.243 OA
ENDBRANCH  12  21
ENDBRANCH   8  10
ENDBRANCH   6   8
ENDBRANCH   5   6
ENDBRANCH   2   5
BRANCH   1  24
ATOM     24  O   UNL     1      28.981  16.994  -0.970  0.00  0.00    -0.450 OA
BRANCH  24  25
ATOM     25  C   UNL     1      29.458  15.855  -0.292  0.00  0.00    +0.240 C 
BRANCH  25  26
ATOM     26  C   UNL     1      30.860  15.940   0.341  0.00  0.00    +0.100 C 
BRANCH  26  28
ATOM     27  N   UNL     1      31.409  13.615  -0.283  0.00  0.00    -0.134 NA
ATOM     28  C   UNL     1      31.754  14.936  -0.262  0.00  0.00    +0.086 A 
ATOM     29  C   UNL     1      32.958  15.104  -0.910  0.00  0.00    +0.139 A 
ATOM     30  N   UNL     1      33.310  13.841  -1.320  0.00  0.00    -0.219 N 
ATOM     31  N   UNL     1      32.347  12.961  -0.953  0.00  0.00    -0.061 NA
BRANCH  30  32
ATOM     32  C   UNL     1      34.412  13.422  -2.095  0.00  0.00    +0.080 A 
ATOM     33  C   UNL     1      34.327  13.015  -3.436  0.00  0.00    +0.062 A 
ATOM     34  C   UNL     1      35.459  12.389  -4.005  0.00  0.00    +0.016 A 
ATOM     35  C   UNL     1      36.641  12.196  -3.281  0.00  0.00    +0.021 A 
ATOM     36  C   UNL     1      36.730  12.671  -1.982  0.00  0.00    +0.043 A 
ATOM     37 CL   UNL     1      38.161  12.412  -1.066  0.00  0.00    -0.083 Cl
ATOM     38  C   UNL     1      35.637  13.305  -1.396  0.00  0.00    +0.048 A 
BRANCH  33  39
ATOM     39  C   UNL     1      33.153  13.079  -4.354  0.00  0.00    +0.248 C 
ATOM     40  O   UNL     1      33.060  14.121  -5.011  0.00  0.00    -0.270 OA
ATOM     41  N   UNL     1      32.173  12.083  -4.441  0.00  0.00    -0.304 N 
ATOM     42  C   UNL     1      32.195  10.756  -3.843  0.00  0.00    +0.132 C 
ATOM     43  C   UNL     1      31.089  12.320  -5.389  0.00  0.00    +0.132 C 
ENDBRANCH  33  39
ENDBRANCH  30  32
ENDBRANCH  26  28
ENDBRANCH  25  26
ENDBRANCH  24  25
ENDBRANCH   1  24
TORSDOF 12
