REMARK VINA RESULT:    -6.980      2.320      9.247
REMARK INTER + INTRA:         -16.292
REMARK INTER:                 -13.356
REMARK INTRA:                  -2.936
REMARK UNBOUND:                -2.580
REMARK  Name = lig_assembled_90.pdb
REMARK  17 active torsions:
REMARK  status: ('A' for Active; 'I' for Inactive)
REMARK    1  A    between atoms: _2  and  _12
REMARK    2  A    between atoms: _3  and  _14
REMARK    3  A    between atoms: _4  and  _16
REMARK    4  A    between atoms: _9  and  _10
REMARK    5  A    between atoms: _9  and  _23
REMARK    6  A    between atoms: _12  and  _13
REMARK    7  A    between atoms: _14  and  _15
REMARK    8  A    between atoms: _15  and  _16
REMARK    9  A    between atoms: _15  and  _21
REMARK   10  A    between atoms: _23  and  _25
REMARK   11  A    between atoms: _24  and  _29
REMARK   12  A    between atoms: _25  and  _28
REMARK   13  A    between atoms: _33  and  _43
REMARK   14  A    between atoms: _35  and  _36
REMARK   15  A    between atoms: _37  and  _39
REMARK   16  A    between atoms: _39  and  _41
REMARK   17  A    between atoms: _41  and  _43
REMARK                            x       y       z     vdW  Elec       q    Type
REMARK                         _______ _______ _______ _____ _____    ______ ____
ROOT
ATOM      1  C   UNL     1      26.641  17.169  -3.351  0.00  0.00    +0.240 C 
ENDROOT
BRANCH   1   2
ATOM      2  O   UNL     1      27.635  16.999  -2.368  0.00  0.00    -0.450 OA
BRANCH   2   3
ATOM      3  C   UNL     1      27.853  17.305  -1.131  0.00  0.00    +0.400 C 
ATOM      4  N   UNL     1      28.232  16.264  -0.317  0.00  0.00    -0.278 N 
ATOM      5  H   UNL     1      28.546  16.752   0.580  0.00  0.00    +0.152 HD
ATOM      6  O   UNL     1      27.782  18.428  -0.639  0.00  0.00    -0.226 OA
BRANCH   4   7
ATOM      7  C   UNL     1      28.381  14.823  -0.128  0.00  0.00    +0.152 C 
BRANCH   7   8
ATOM      8  C   UNL     1      29.456  14.378   0.885  0.00  0.00    +0.193 C 
ATOM      9  O   UNL     1      29.578  12.944   0.758  0.00  0.00    -0.219 OA
BRANCH   8  10
ATOM     10  C   UNL     1      30.893  14.907   0.682  0.00  0.00    +0.212 C 
ATOM     11  O   UNL     1      30.987  16.278   1.102  0.00  0.00    -0.218 OA
BRANCH  10  12
ATOM     12  C   UNL     1      31.982  14.067   1.453  0.00  0.00    +0.171 C 
ATOM     13  O   UNL     1      32.358  14.663   2.690  0.00  0.00    -0.343 OA
ATOM     14  C   UNL     1      33.461  14.270   3.451  0.00  0.00    +0.220 C 
ATOM     15  C   UNL     1      34.743  14.198   2.603  0.00  0.00    +0.076 C 
ATOM     16  C   UNL     1      34.444  13.305   1.387  0.00  0.00    +0.177 C 
ATOM     17  O   UNL     1      35.610  13.172   0.588  0.00  0.00    -0.221 OA
ATOM     18  C   UNL     1      33.257  13.897   0.564  0.00  0.00    +0.155 C 
BRANCH  18  19
ATOM     19  N   UNL     1      32.974  13.056  -0.595  0.00  0.00    -0.202 NA
ATOM     20  C   UNL     1      33.057  13.345  -1.919  0.00  0.00    +0.242 C 
ATOM     21  C   UNL     1      32.994  12.208  -2.905  0.00  0.00    +0.096 C 
ATOM     22  O   UNL     1      33.182  14.514  -2.278  0.00  0.00    -0.273 OA
ENDBRANCH  18  19
BRANCH  14  23
ATOM     23  C   UNL     1      33.217  12.896   4.282  0.00  0.00    +0.391 C 
ATOM     24  O   UNL     1      34.411  12.609   4.837  0.00  0.00    -0.243 OA
ATOM     25  O   UNL     1      31.890  12.736   4.352  0.00  0.00    -0.243 OA
ENDBRANCH  14  23
ENDBRANCH  10  12
ENDBRANCH   8  10
ENDBRANCH   7   8
ENDBRANCH   4   7
ENDBRANCH   2   3
ENDBRANCH   1   2
BRANCH   1  26
ATOM     26  C   UNL     1      26.059  15.900  -4.001  0.00  0.00    +0.100 C 
BRANCH  26  28
ATOM     27  N   UNL     1      24.839  14.900  -2.088  0.00  0.00    -0.134 NA
ATOM     28  C   UNL     1      24.813  15.498  -3.322  0.00  0.00    +0.086 A 
ATOM     29  C   UNL     1      23.505  15.622  -3.733  0.00  0.00    +0.134 A 
ATOM     30  N   UNL     1      22.784  15.102  -2.700  0.00  0.00    -0.243 N 
ATOM     31  N   UNL     1      23.588  14.652  -1.721  0.00  0.00    -0.065 NA
BRANCH  30  32
ATOM     32  C   UNL     1      21.357  14.902  -2.618  0.00  0.00    +0.240 C 
BRANCH  32  33
ATOM     33  C   UNL     1      21.010  13.802  -1.640  0.00  0.00    +0.235 C 
ATOM     34  O   UNL     1      20.334  14.000  -0.632  0.00  0.00    -0.274 OA
ATOM     35  N   UNL     1      21.461  12.542  -1.987  0.00  0.00    -0.311 N 
ATOM     36  H   UNL     1      22.226  12.465  -2.653  0.00  0.00    +0.149 HD
BRANCH  35  37
ATOM     37  C   UNL     1      21.265  11.414  -1.087  0.00  0.00    +0.137 C 
BRANCH  37  38
ATOM     38  C   UNL     1      22.593  10.701  -0.795  0.00  0.00    +0.151 C 
BRANCH  38  39
ATOM     39  O   UNL     1      23.214  10.358  -2.040  0.00  0.00    -0.388 OA
ATOM     40  H   UNL     1      24.168  10.207  -1.888  0.00  0.00    +0.210 HD
ENDBRANCH  38  39
BRANCH  38  41
ATOM     41  C   UNL     1      23.521  11.564   0.070  0.00  0.00    +0.162 C 
BRANCH  41  42
ATOM     42  N   UNL     1      23.829  10.942   1.350  0.00  0.00    -0.269 N 
ATOM     43  C   UNL     1      22.983  10.050   1.973  0.00  0.00    +0.113 A 
ATOM     44  C   UNL     1      23.593   9.724   3.160  0.00  0.00    +0.137 A 
ATOM     45  N   UNL     1      24.785  10.388   3.288  0.00  0.00    -0.172 NA
ATOM     46  C   UNL     1      24.909  11.103   2.182  0.00  0.00    +0.450 A 
ATOM     47  N   UNL     1      26.054  11.944   1.930  0.00  0.00    +0.120 N 
ATOM     48  O   UNL     1      26.134  12.492   0.822  0.00  0.00    +0.045 OA
ATOM     49  O   UNL     1      26.877  12.072   2.846  0.00  0.00    -0.573 OA
ENDBRANCH  41  42
ENDBRANCH  38  41
ENDBRANCH  37  38
ENDBRANCH  35  37
ENDBRANCH  32  33
ENDBRANCH  30  32
ENDBRANCH  26  28
ENDBRANCH   1  26
TORSDOF 17
