REMARK VINA RESULT:    -6.057      1.949      2.445
REMARK INTER + INTRA:         -12.179
REMARK INTER:                 -10.484
REMARK INTRA:                  -1.696
REMARK UNBOUND:                -1.696
REMARK  Name = lig_assembled_72.pdb
REMARK  15 active torsions:
REMARK  status: ('A' for Active; 'I' for Inactive)
REMARK    1  A    between atoms: _2  and  _8
REMARK    2  A    between atoms: _4  and  _8
REMARK    3  A    between atoms: _4  and  _11
REMARK    4  A    between atoms: _5  and  _6
REMARK    5  A    between atoms: _5  and  _12
REMARK    6  A    between atoms: _8  and  _9
REMARK    7  A    between atoms: _8  and  _10
REMARK    8  A    between atoms: _12  and  _14
REMARK    9  A    between atoms: _13  and  _18
REMARK   10  A    between atoms: _14  and  _17
REMARK   11  A    between atoms: _22  and  _32
REMARK   12  A    between atoms: _24  and  _25
REMARK   13  A    between atoms: _26  and  _28
REMARK   14  A    between atoms: _28  and  _30
REMARK   15  A    between atoms: _30  and  _32
REMARK                            x       y       z     vdW  Elec       q    Type
REMARK                         _______ _______ _______ _____ _____    ______ ____
ROOT
ATOM      1  C   UNL     1      28.497  14.827  -0.654  0.00  0.00    +0.152 C 
ENDROOT
BRANCH   1   3
ATOM      2  C   UNL     1      27.844  17.423  -1.185  0.00  0.00    +0.400 C 
ATOM      3  N   UNL     1      28.238  16.261  -0.563  0.00  0.00    -0.278 N 
ATOM      4  H   UNL     1      28.422  16.570   0.443  0.00  0.00    +0.152 HD
ATOM      5  O   UNL     1      27.627  18.409  -0.487  0.00  0.00    -0.226 OA
BRANCH   2   6
ATOM      6  O   UNL     1      27.769  17.369  -2.475  0.00  0.00    -0.450 OA
BRANCH   6   7
ATOM      7  C   UNL     1      26.791  17.331  -3.487  0.00  0.00    +0.240 C 
BRANCH   7   8
ATOM      8  C   UNL     1      26.489  15.966  -4.133  0.00  0.00    +0.100 C 
BRANCH   8  10
ATOM      9  N   UNL     1      24.363  15.770  -2.884  0.00  0.00    -0.134 NA
ATOM     10  C   UNL     1      25.536  15.206  -3.304  0.00  0.00    +0.086 A 
ATOM     11  C   UNL     1      25.609  13.915  -2.827  0.00  0.00    +0.134 A 
ATOM     12  N   UNL     1      24.449  13.750  -2.122  0.00  0.00    -0.244 N 
ATOM     13  N   UNL     1      23.706  14.875  -2.164  0.00  0.00    -0.065 NA
BRANCH  12  14
ATOM     14  C   UNL     1      23.986  12.558  -1.398  0.00  0.00    +0.083 C 
ATOM     15  C   UNL     1      24.920  12.298  -0.201  0.00  0.00    +0.038 C 
ATOM     16  C   UNL     1      24.009  11.338  -2.340  0.00  0.00    +0.038 C 
BRANCH  14  17
ATOM     17  C   UNL     1      22.547  12.746  -0.843  0.00  0.00    +0.185 C 
BRANCH  17  18
ATOM     18  O   UNL     1      21.557  12.750  -1.871  0.00  0.00    -0.393 OA
ATOM     19  H   UNL     1      20.777  12.291  -1.493  0.00  0.00    +0.209 HD
ENDBRANCH  17  18
ENDBRANCH  14  17
ENDBRANCH  12  14
ENDBRANCH   8  10
ENDBRANCH   7   8
ENDBRANCH   6   7
ENDBRANCH   2   6
ENDBRANCH   1   3
BRANCH   1  20
ATOM     20  C   UNL     1      29.156  14.175   0.578  0.00  0.00    +0.193 C 
ATOM     21  O   UNL     1      28.186  14.235   1.648  0.00  0.00    -0.219 OA
BRANCH  20  22
ATOM     22  C   UNL     1      29.532  12.680   0.482  0.00  0.00    +0.212 C 
ATOM     23  O   UNL     1      29.811  12.320  -0.881  0.00  0.00    -0.218 OA
BRANCH  22  24
ATOM     24  C   UNL     1      30.774  12.290   1.371  0.00  0.00    +0.171 C 
ATOM     25  O   UNL     1      30.432  12.113   2.742  0.00  0.00    -0.343 OA
ATOM     26  C   UNL     1      31.362  12.006   3.778  0.00  0.00    +0.220 C 
ATOM     27  C   UNL     1      32.395  13.146   3.738  0.00  0.00    +0.076 C 
ATOM     28  C   UNL     1      33.001  13.171   2.324  0.00  0.00    +0.177 C 
ATOM     29  O   UNL     1      33.994  14.183   2.244  0.00  0.00    -0.221 OA
ATOM     30  C   UNL     1      31.879  13.391   1.263  0.00  0.00    +0.155 C 
BRANCH  30  31
ATOM     31  N   UNL     1      32.451  13.422  -0.081  0.00  0.00    -0.202 NA
ATOM     32  C   UNL     1      32.629  14.471  -0.924  0.00  0.00    +0.242 C 
ATOM     33  C   UNL     1      33.511  14.277  -2.130  0.00  0.00    +0.096 C 
ATOM     34  O   UNL     1      32.075  15.542  -0.687  0.00  0.00    -0.273 OA
ENDBRANCH  30  31
BRANCH  26  35
ATOM     35  C   UNL     1      32.081  10.551   3.856  0.00  0.00    +0.391 C 
ATOM     36  O   UNL     1      33.219  10.762   4.544  0.00  0.00    -0.243 OA
ATOM     37  O   UNL     1      31.153   9.661   3.485  0.00  0.00    -0.243 OA
ENDBRANCH  26  35
ENDBRANCH  22  24
ENDBRANCH  20  22
ENDBRANCH   1  20
TORSDOF 13
