REMARK VINA RESULT:    -7.646      3.063      5.308
REMARK INTER + INTRA:         -15.695
REMARK INTER:                 -14.306
REMARK INTRA:                  -1.389
REMARK UNBOUND:                -1.120
REMARK  Name = lig_assembled_76.pdb
REMARK  16 active torsions:
REMARK  status: ('A' for Active; 'I' for Inactive)
REMARK    1  A    between atoms: _2  and  _8
REMARK    2  A    between atoms: _5  and  _6
REMARK    3  A    between atoms: _5  and  _18
REMARK    4  A    between atoms: _8  and  _9
REMARK    5  A    between atoms: _9  and  _10
REMARK    6  A    between atoms: _9  and  _17
REMARK    7  A    between atoms: _10  and  _11
REMARK    8  A    between atoms: _11  and  _12
REMARK    9  A    between atoms: _18  and  _20
REMARK   10  A    between atoms: _19  and  _24
REMARK   11  A    between atoms: _20  and  _23
REMARK   12  A    between atoms: _28  and  _38
REMARK   13  A    between atoms: _30  and  _31
REMARK   14  A    between atoms: _32  and  _34
REMARK   15  A    between atoms: _34  and  _36
REMARK   16  A    between atoms: _36  and  _38
REMARK                            x       y       z     vdW  Elec       q    Type
REMARK                         _______ _______ _______ _____ _____    ______ ____
ROOT
ATOM      1  C   UNL     1      31.920  15.511  -0.358  0.00  0.00    +0.400 C 
ATOM      2  N   UNL     1      31.996  14.894   0.868  0.00  0.00    -0.278 N 
ATOM      3  H   UNL     1      32.632  14.055   0.684  0.00  0.00    +0.152 HD
ATOM      4  O   UNL     1      32.669  15.121  -1.251  0.00  0.00    -0.226 OA
ENDROOT
BRANCH   1   5
ATOM      5  O   UNL     1      31.028  16.441  -0.463  0.00  0.00    -0.450 OA
BRANCH   5   6
ATOM      6  C   UNL     1      29.784  16.795   0.094  0.00  0.00    +0.240 C 
BRANCH   6   7
ATOM      7  C   UNL     1      28.886  17.747  -0.719  0.00  0.00    +0.100 C 
BRANCH   7   9
ATOM      8  N   UNL     1      28.002  15.609  -1.609  0.00  0.00    -0.134 NA
ATOM      9  C   UNL     1      27.992  16.980  -1.602  0.00  0.00    +0.086 A 
ATOM     10  C   UNL     1      27.070  17.430  -2.519  0.00  0.00    +0.133 A 
ATOM     11  N   UNL     1      26.549  16.287  -3.044  0.00  0.00    -0.249 N 
ATOM     12  N   UNL     1      27.116  15.194  -2.506  0.00  0.00    -0.065 NA
BRANCH  11  13
ATOM     13  C   UNL     1      25.619  16.162  -4.144  0.00  0.00    +0.176 C 
BRANCH  13  14
ATOM     14  C   UNL     1      24.525  15.122  -3.885  0.00  0.00    +0.136 C 
BRANCH  14  15
ATOM     15  O   UNL     1      25.080  13.799  -3.929  0.00  0.00    -0.390 OA
ATOM     16  H   UNL     1      24.625  13.241  -3.275  0.00  0.00    +0.210 HD
ENDBRANCH  14  15
BRANCH  14  17
ATOM     17  C   UNL     1      23.863  15.297  -2.509  0.00  0.00    +0.038 C 
BRANCH  17  18
ATOM     18  C   UNL     1      22.457  14.699  -2.429  0.00  0.00    +0.038 C 
BRANCH  18  19
ATOM     19  C   UNL     1      22.360  13.613  -1.390  0.00  0.00    -0.047 A 
ATOM     20  C   UNL     1      23.516  12.957  -0.943  0.00  0.00    +0.003 A 
ATOM     21  C   UNL     1      23.431  11.962   0.032  0.00  0.00    +0.000 A 
ATOM     22  C   UNL     1      22.192  11.612   0.563  0.00  0.00    +0.000 A 
ATOM     23  C   UNL     1      21.036  12.251   0.118  0.00  0.00    +0.000 A 
ATOM     24  C   UNL     1      21.118  13.245  -0.859  0.00  0.00    +0.003 A 
ENDBRANCH  18  19
ENDBRANCH  17  18
ENDBRANCH  14  17
ENDBRANCH  13  14
ENDBRANCH  11  13
ENDBRANCH   7   9
ENDBRANCH   6   7
ENDBRANCH   5   6
ENDBRANCH   1   5
BRANCH   2  25
ATOM     25  C   UNL     1      31.619  14.880   2.279  0.00  0.00    +0.152 C 
BRANCH  25  26
ATOM     26  C   UNL     1      30.584  13.814   2.695  0.00  0.00    +0.193 C 
ATOM     27  O   UNL     1      30.183  13.132   1.487  0.00  0.00    -0.219 OA
BRANCH  26  28
ATOM     28  C   UNL     1      31.058  12.685   3.636  0.00  0.00    +0.212 C 
ATOM     29  O   UNL     1      30.814  11.400   3.041  0.00  0.00    -0.218 OA
BRANCH  28  30
ATOM     30  C   UNL     1      32.586  12.785   4.010  0.00  0.00    +0.171 C 
ATOM     31  O   UNL     1      33.440  12.415   2.932  0.00  0.00    -0.343 OA
ATOM     32  C   UNL     1      34.811  12.180   3.057  0.00  0.00    +0.220 C 
ATOM     33  C   UNL     1      35.119  11.201   4.204  0.00  0.00    +0.076 C 
ATOM     34  C   UNL     1      34.437  11.743   5.471  0.00  0.00    +0.177 C 
ATOM     35  O   UNL     1      34.724  10.894   6.573  0.00  0.00    -0.221 OA
ATOM     36  C   UNL     1      32.899  11.872   5.240  0.00  0.00    +0.155 C 
BRANCH  36  37
ATOM     37  N   UNL     1      32.246  12.379   6.444  0.00  0.00    -0.202 NA
ATOM     38  C   UNL     1      31.237  11.843   7.176  0.00  0.00    +0.242 C 
ATOM     39  C   UNL     1      30.953  12.425   8.536  0.00  0.00    +0.096 C 
ATOM     40  O   UNL     1      30.587  10.905   6.719  0.00  0.00    -0.273 OA
ENDBRANCH  36  37
BRANCH  32  41
ATOM     41  C   UNL     1      35.692  13.539   3.180  0.00  0.00    +0.391 C 
ATOM     42  O   UNL     1      36.974  13.123   3.181  0.00  0.00    -0.243 OA
ATOM     43  O   UNL     1      34.850  14.550   2.931  0.00  0.00    -0.243 OA
ENDBRANCH  32  41
ENDBRANCH  28  30
ENDBRANCH  26  28
ENDBRANCH  25  26
ENDBRANCH   2  25
TORSDOF 16
