REMARK VINA RESULT:    -7.270      2.174      7.220
REMARK INTER + INTRA:         -13.914
REMARK INTER:                 -12.222
REMARK INTRA:                  -1.692
REMARK UNBOUND:                -1.544
REMARK  Name = lig_assembled_69.pdb
REMARK  13 active torsions:
REMARK  status: ('A' for Active; 'I' for Inactive)
REMARK    1  A    between atoms: _2  and  _8
REMARK    2  A    between atoms: _5  and  _6
REMARK    3  A    between atoms: _5  and  _16
REMARK    4  A    between atoms: _10  and  _15
REMARK    5  A    between atoms: _13  and  _14
REMARK    6  A    between atoms: _16  and  _18
REMARK    7  A    between atoms: _17  and  _22
REMARK    8  A    between atoms: _18  and  _21
REMARK    9  A    between atoms: _26  and  _36
REMARK   10  A    between atoms: _28  and  _29
REMARK   11  A    between atoms: _30  and  _32
REMARK   12  A    between atoms: _32  and  _34
REMARK   13  A    between atoms: _34  and  _36
REMARK                            x       y       z     vdW  Elec       q    Type
REMARK                         _______ _______ _______ _____ _____    ______ ____
ROOT
ATOM      1  C   UNL     1      28.262  17.487  -0.446  0.00  0.00    +0.400 C 
ATOM      2  N   UNL     1      29.533  17.277   0.037  0.00  0.00    -0.278 N 
ATOM      3  H   UNL     1      29.571  17.893   0.909  0.00  0.00    +0.152 HD
ATOM      4  O   UNL     1      27.473  18.114   0.256  0.00  0.00    -0.226 OA
ENDROOT
BRANCH   1   5
ATOM      5  O   UNL     1      28.029  17.022  -1.629  0.00  0.00    -0.450 OA
BRANCH   5   6
ATOM      6  C   UNL     1      27.032  17.081  -2.622  0.00  0.00    +0.240 C 
BRANCH   6   7
ATOM      7  C   UNL     1      26.823  15.830  -3.496  0.00  0.00    +0.100 C 
BRANCH   7   9
ATOM      8  N   UNL     1      24.371  15.852  -3.190  0.00  0.00    -0.134 NA
ATOM      9  C   UNL     1      25.554  15.166  -3.146  0.00  0.00    +0.086 A 
ATOM     10  C   UNL     1      25.311  13.873  -2.737  0.00  0.00    +0.134 A 
ATOM     11  N   UNL     1      23.962  13.841  -2.537  0.00  0.00    -0.248 N 
ATOM     12  N   UNL     1      23.403  15.033  -2.809  0.00  0.00    -0.065 NA
BRANCH  11  13
ATOM     13  C   UNL     1      23.152  12.731  -2.038  0.00  0.00    +0.114 C 
ATOM     14  C   UNL     1      21.661  12.956  -2.313  0.00  0.00    +0.062 C 
ATOM     15  C   UNL     1      20.904  13.802  -1.285  0.00  0.00    +0.139 C 
ATOM     16  C   UNL     1      20.672  13.174   0.059  0.00  0.00    +0.002 C 
ATOM     17  C   UNL     1      21.338  12.163   0.639  0.00  0.00    +0.002 C 
ATOM     18  C   UNL     1      22.587  11.489   0.157  0.00  0.00    +0.139 C 
ATOM     19  C   UNL     1      23.549  12.404  -0.592  0.00  0.00    +0.062 C 
BRANCH  18  20
ATOM     20  O   UNL     1      22.237  10.372  -0.646  0.00  0.00    -0.388 OA
ATOM     21  H   UNL     1      21.281  10.425  -0.817  0.00  0.00    +0.210 HD
ENDBRANCH  18  20
BRANCH  15  22
ATOM     22  O   UNL     1      19.598  14.044  -1.824  0.00  0.00    -0.388 OA
ATOM     23  H   UNL     1      19.557  14.983  -2.073  0.00  0.00    +0.210 HD
ENDBRANCH  15  22
ENDBRANCH  11  13
ENDBRANCH   7   9
ENDBRANCH   6   7
ENDBRANCH   5   6
ENDBRANCH   1   5
BRANCH   2  24
ATOM     24  C   UNL     1      30.817  16.594  -0.097  0.00  0.00    +0.152 C 
BRANCH  24  25
ATOM     25  C   UNL     1      30.771  15.052  -0.087  0.00  0.00    +0.193 C 
ATOM     26  O   UNL     1      31.805  14.600  -0.989  0.00  0.00    -0.219 OA
BRANCH  25  27
ATOM     27  C   UNL     1      31.082  14.336   1.245  0.00  0.00    +0.212 C 
ATOM     28  O   UNL     1      31.269  15.295   2.299  0.00  0.00    -0.218 OA
BRANCH  27  29
ATOM     29  C   UNL     1      29.961  13.318   1.684  0.00  0.00    +0.171 C 
ATOM     30  O   UNL     1      28.659  13.895   1.664  0.00  0.00    -0.343 OA
ATOM     31  C   UNL     1      27.527  13.304   2.230  0.00  0.00    +0.220 C 
ATOM     32  C   UNL     1      27.779  12.865   3.683  0.00  0.00    +0.076 C 
ATOM     33  C   UNL     1      29.039  11.984   3.688  0.00  0.00    +0.177 C 
ATOM     34  O   UNL     1      29.295  11.516   5.004  0.00  0.00    -0.221 OA
ATOM     35  C   UNL     1      30.255  12.782   3.123  0.00  0.00    +0.155 C 
BRANCH  35  36
ATOM     36  N   UNL     1      31.456  11.951   3.133  0.00  0.00    -0.202 NA
ATOM     37  C   UNL     1      32.611  12.102   3.829  0.00  0.00    +0.242 C 
ATOM     38  C   UNL     1      33.573  10.944   3.880  0.00  0.00    +0.096 C 
ATOM     39  O   UNL     1      32.842  13.167   4.398  0.00  0.00    -0.273 OA
ENDBRANCH  35  36
BRANCH  31  40
ATOM     40  C   UNL     1      26.914  12.093   1.337  0.00  0.00    +0.391 C 
ATOM     41  O   UNL     1      25.926  11.572   2.090  0.00  0.00    -0.243 OA
ATOM     42  O   UNL     1      27.402  12.261   0.102  0.00  0.00    -0.243 OA
ENDBRANCH  31  40
ENDBRANCH  27  29
ENDBRANCH  25  27
ENDBRANCH  24  25
ENDBRANCH   2  24
TORSDOF 13
