REMARK VINA RESULT:    -6.917      2.641      3.890
REMARK INTER + INTRA:         -13.653
REMARK INTER:                 -11.037
REMARK INTRA:                  -2.616
REMARK UNBOUND:                -1.681
REMARK  Name = lig_assembled_59.pdb
REMARK  13 active torsions:
REMARK  status: ('A' for Active; 'I' for Inactive)
REMARK    1  A    between atoms: _2  and  _9
REMARK    2  A    between atoms: _6  and  _7
REMARK    3  A    between atoms: _6  and  _15
REMARK    4  A    between atoms: _12  and  _13
REMARK    5  A    between atoms: _13  and  _14
REMARK    6  A    between atoms: _15  and  _17
REMARK    7  A    between atoms: _16  and  _21
REMARK    8  A    between atoms: _17  and  _20
REMARK    9  A    between atoms: _25  and  _35
REMARK   10  A    between atoms: _27  and  _28
REMARK   11  A    between atoms: _29  and  _31
REMARK   12  A    between atoms: _31  and  _33
REMARK   13  A    between atoms: _33  and  _35
REMARK                            x       y       z     vdW  Elec       q    Type
REMARK                         _______ _______ _______ _____ _____    ______ ____
ROOT
ATOM      1  C   UNL     1      27.616  17.651  -1.491  0.00  0.00    +0.400 C 
ATOM      2  N   UNL     1      28.201  16.904  -0.496  0.00  0.00    -0.278 N 
ATOM      3  H   UNL     1      28.599  17.642   0.166  0.00  0.00    +0.152 HD
ATOM      4  O   UNL     1      27.519  18.864  -1.323  0.00  0.00    -0.226 OA
ENDROOT
BRANCH   1   5
ATOM      5  O   UNL     1      27.246  16.993  -2.541  0.00  0.00    -0.450 OA
BRANCH   5   6
ATOM      6  C   UNL     1      26.292  17.079  -3.573  0.00  0.00    +0.240 C 
BRANCH   6   7
ATOM      7  C   UNL     1      25.798  15.759  -4.196  0.00  0.00    +0.100 C 
BRANCH   7   9
ATOM      8  N   UNL     1      23.501  15.545  -3.307  0.00  0.00    -0.134 NA
ATOM      9  C   UNL     1      24.801  15.121  -3.315  0.00  0.00    +0.087 A 
ATOM     10  C   UNL     1      24.943  14.088  -2.419  0.00  0.00    +0.141 A 
ATOM     11  N   UNL     1      23.689  13.914  -1.879  0.00  0.00    -0.202 N 
ATOM     12  N   UNL     1      22.829  14.805  -2.435  0.00  0.00    -0.059 NA
BRANCH  11  13
ATOM     13  C   UNL     1      23.300  12.977  -0.885  0.00  0.00    +0.156 A 
ATOM     14  C   UNL     1      21.944  12.788  -0.626  0.00  0.00    +0.048 A 
ATOM     15  C   UNL     1      21.570  11.898   0.381  0.00  0.00    +0.011 A 
ATOM     16  C   UNL     1      22.549  11.210   1.102  0.00  0.00    -0.004 A 
ATOM     17  C   UNL     1      23.877  11.462   0.773  0.00  0.00    +0.119 A 
ATOM     18  N   UNL     1      24.274  12.314  -0.202  0.00  0.00    -0.236 NA
BRANCH  16  19
ATOM     19  C   UNL     1      22.173  10.319   2.249  0.00  0.00    +0.192 C 
BRANCH  19  20
ATOM     20  O   UNL     1      23.188  10.296   3.241  0.00  0.00    -0.390 OA
ATOM     21  H   UNL     1      22.758  10.060   4.081  0.00  0.00    +0.210 HD
ENDBRANCH  19  20
ENDBRANCH  16  19
ENDBRANCH  11  13
ENDBRANCH   7   9
ENDBRANCH   6   7
ENDBRANCH   5   6
ENDBRANCH   1   5
BRANCH   2  22
ATOM     22  C   UNL     1      28.503  15.585   0.056  0.00  0.00    +0.152 C 
BRANCH  22  23
ATOM     23  C   UNL     1      29.955  15.095  -0.111  0.00  0.00    +0.193 C 
ATOM     24  O   UNL     1      30.781  15.957   0.702  0.00  0.00    -0.219 OA
BRANCH  23  25
ATOM     25  C   UNL     1      30.289  13.668   0.378  0.00  0.00    +0.212 C 
ATOM     26  O   UNL     1      31.216  13.718   1.475  0.00  0.00    -0.218 OA
BRANCH  25  27
ATOM     27  C   UNL     1      29.020  12.849   0.828  0.00  0.00    +0.171 C 
ATOM     28  O   UNL     1      29.155  12.304   2.137  0.00  0.00    -0.343 OA
ATOM     29  C   UNL     1      28.298  11.346   2.684  0.00  0.00    +0.220 C 
ATOM     30  C   UNL     1      28.104  10.148   1.738  0.00  0.00    +0.076 C 
ATOM     31  C   UNL     1      27.666  10.703   0.372  0.00  0.00    +0.177 C 
ATOM     32  O   UNL     1      27.434   9.632  -0.531  0.00  0.00    -0.221 OA
ATOM     33  C   UNL     1      28.746  11.685  -0.179  0.00  0.00    +0.155 C 
BRANCH  33  34
ATOM     34  N   UNL     1      28.338  12.209  -1.480  0.00  0.00    -0.202 NA
ATOM     35  C   UNL     1      28.959  12.124  -2.684  0.00  0.00    +0.242 C 
ATOM     36  C   UNL     1      28.180  12.495  -3.919  0.00  0.00    +0.096 C 
ATOM     37  O   UNL     1      30.129  11.749  -2.739  0.00  0.00    -0.273 OA
ENDBRANCH  33  34
BRANCH  29  38
ATOM     38  C   UNL     1      26.875  11.957   3.175  0.00  0.00    +0.391 C 
ATOM     39  O   UNL     1      26.058  10.891   3.281  0.00  0.00    -0.243 OA
ATOM     40  O   UNL     1      27.127  13.210   3.572  0.00  0.00    -0.243 OA
ENDBRANCH  29  38
ENDBRANCH  25  27
ENDBRANCH  23  25
ENDBRANCH  22  23
ENDBRANCH   2  22
TORSDOF 13
