REMARK VINA RESULT:    -6.828      1.856      2.497
REMARK INTER + INTRA:         -13.459
REMARK INTER:                 -11.503
REMARK INTRA:                  -1.956
REMARK UNBOUND:                -1.841
REMARK  Name = lig_assembled_39.pdb
REMARK  12 active torsions:
REMARK  status: ('A' for Active; 'I' for Inactive)
REMARK    1  A    between atoms: _2  and  _8
REMARK    2  A    between atoms: _5  and  _6
REMARK    3  A    between atoms: _5  and  _14
REMARK    4  A    between atoms: _8  and  _9
REMARK    5  A    between atoms: _14  and  _16
REMARK    6  A    between atoms: _15  and  _20
REMARK    7  A    between atoms: _16  and  _19
REMARK    8  A    between atoms: _24  and  _34
REMARK    9  A    between atoms: _26  and  _27
REMARK   10  A    between atoms: _28  and  _30
REMARK   11  A    between atoms: _30  and  _32
REMARK   12  A    between atoms: _32  and  _34
REMARK                            x       y       z     vdW  Elec       q    Type
REMARK                         _______ _______ _______ _____ _____    ______ ____
ROOT
ATOM      1  C   UNL     1      28.055  16.761  -0.690  0.00  0.00    +0.400 C 
ATOM      2  N   UNL     1      28.471  15.495  -0.351  0.00  0.00    -0.278 N 
ATOM      3  H   UNL     1      29.311  15.673   0.285  0.00  0.00    +0.152 HD
ATOM      4  O   UNL     1      28.560  17.713  -0.102  0.00  0.00    -0.226 OA
ENDROOT
BRANCH   2   5
ATOM      5  C   UNL     1      28.274  14.051  -0.455  0.00  0.00    +0.152 C 
BRANCH   5   6
ATOM      6  C   UNL     1      27.949  13.313   0.860  0.00  0.00    +0.193 C 
ATOM      7  O   UNL     1      28.419  11.956   0.702  0.00  0.00    -0.219 OA
BRANCH   6   8
ATOM      8  C   UNL     1      28.639  13.811   2.149  0.00  0.00    +0.212 C 
ATOM      9  O   UNL     1      27.673  13.993   3.197  0.00  0.00    -0.218 OA
BRANCH   8  10
ATOM     10  C   UNL     1      29.768  12.842   2.668  0.00  0.00    +0.171 C 
ATOM     11  O   UNL     1      29.541  12.401   4.003  0.00  0.00    -0.343 OA
ATOM     12  C   UNL     1      30.490  11.741   4.788  0.00  0.00    +0.220 C 
ATOM     13  C   UNL     1      31.834  12.489   4.807  0.00  0.00    +0.076 C 
ATOM     14  C   UNL     1      32.253  12.725   3.346  0.00  0.00    +0.177 C 
ATOM     15  O   UNL     1      33.513  13.381   3.306  0.00  0.00    -0.221 OA
ATOM     16  C   UNL     1      31.160  13.552   2.600  0.00  0.00    +0.155 C 
BRANCH  16  17
ATOM     17  N   UNL     1      31.557  13.785   1.214  0.00  0.00    -0.202 NA
ATOM     18  C   UNL     1      31.667  14.950   0.527  0.00  0.00    +0.242 C 
ATOM     19  C   UNL     1      32.380  14.933  -0.800  0.00  0.00    +0.096 C 
ATOM     20  O   UNL     1      31.189  15.980   0.997  0.00  0.00    -0.273 OA
ENDBRANCH  16  17
BRANCH  12  21
ATOM     21  C   UNL     1      30.683  10.177   4.392  0.00  0.00    +0.391 C 
ATOM     22  O   UNL     1      29.680   9.910   3.532  0.00  0.00    -0.243 OA
ATOM     23  O   UNL     1      31.906   9.836   4.816  0.00  0.00    -0.243 OA
ENDBRANCH  12  21
ENDBRANCH   8  10
ENDBRANCH   6   8
ENDBRANCH   5   6
ENDBRANCH   2   5
BRANCH   1  24
ATOM     24  O   UNL     1      27.177  16.827  -1.637  0.00  0.00    -0.450 OA
BRANCH  24  25
ATOM     25  C   UNL     1      27.072  17.277  -2.967  0.00  0.00    +0.240 C 
BRANCH  25  26
ATOM     26  C   UNL     1      26.609  16.260  -4.027  0.00  0.00    +0.100 C 
BRANCH  26  28
ATOM     27  N   UNL     1      24.316  16.213  -3.093  0.00  0.00    -0.134 NA
ATOM     28  C   UNL     1      25.414  15.535  -3.556  0.00  0.00    +0.086 A 
ATOM     29  C   UNL     1      25.165  14.182  -3.505  0.00  0.00    +0.134 A 
ATOM     30  N   UNL     1      23.870  14.106  -3.082  0.00  0.00    -0.247 N 
ATOM     31  N   UNL     1      23.385  15.324  -2.777  0.00  0.00    -0.065 NA
BRANCH  30  32
ATOM     32  C   UNL     1      23.019  12.927  -3.011  0.00  0.00    +0.181 C 
BRANCH  32  33
ATOM     33  C   UNL     1      22.664  12.528  -1.591  0.00  0.00    -0.012 A 
ATOM     34  C   UNL     1      23.582  11.824  -0.783  0.00  0.00    +0.006 A 
ATOM     35  C   UNL     1      23.266  11.446   0.525  0.00  0.00    +0.000 A 
ATOM     36  C   UNL     1      22.015  11.741   1.050  0.00  0.00    +0.001 A 
ATOM     37  C   UNL     1      21.073  12.397   0.261  0.00  0.00    +0.015 A 
ATOM     38  C   UNL     1      21.389  12.778  -1.051  0.00  0.00    +0.023 A 
ATOM     39 BR   UNL     1      20.004  13.614  -2.051  0.00  0.00    -0.050 Br
ENDBRANCH  32  33
ENDBRANCH  30  32
ENDBRANCH  26  28
ENDBRANCH  25  26
ENDBRANCH  24  25
ENDBRANCH   1  24
TORSDOF 12
