REMARK VINA RESULT:    -7.003      1.555      2.438
REMARK INTER + INTRA:         -13.756
REMARK INTER:                 -12.726
REMARK INTRA:                  -1.030
REMARK UNBOUND:                -1.431
REMARK  Name = lig_assembled_36.pdb
REMARK  13 active torsions:
REMARK  status: ('A' for Active; 'I' for Inactive)
REMARK    1  A    between atoms: _2  and  _9
REMARK    2  A    between atoms: _6  and  _7
REMARK    3  A    between atoms: _6  and  _16
REMARK    4  A    between atoms: _9  and  _10
REMARK    5  A    between atoms: _13  and  _14
REMARK    6  A    between atoms: _16  and  _18
REMARK    7  A    between atoms: _17  and  _22
REMARK    8  A    between atoms: _18  and  _21
REMARK    9  A    between atoms: _26  and  _36
REMARK   10  A    between atoms: _28  and  _29
REMARK   11  A    between atoms: _30  and  _32
REMARK   12  A    between atoms: _32  and  _34
REMARK   13  A    between atoms: _34  and  _36
REMARK                            x       y       z     vdW  Elec       q    Type
REMARK                         _______ _______ _______ _____ _____    ______ ____
ROOT
ATOM      1  C   UNL     1      27.874  17.437  -0.994  0.00  0.00    +0.400 C 
ATOM      2  N   UNL     1      28.388  16.448  -0.189  0.00  0.00    -0.278 N 
ATOM      3  H   UNL     1      28.535  16.942   0.747  0.00  0.00    +0.152 HD
ATOM      4  O   UNL     1      27.551  18.500  -0.471  0.00  0.00    -0.226 OA
ENDROOT
BRANCH   1   5
ATOM      5  O   UNL     1      27.810  17.156  -2.254  0.00  0.00    -0.450 OA
BRANCH   5   6
ATOM      6  C   UNL     1      26.886  17.214  -3.316  0.00  0.00    +0.240 C 
BRANCH   6   7
ATOM      7  C   UNL     1      26.628  15.917  -4.106  0.00  0.00    +0.100 C 
BRANCH   7   9
ATOM      8  N   UNL     1      24.645  14.725  -4.992  0.00  0.00    -0.134 NA
ATOM      9  C   UNL     1      25.196  15.568  -4.062  0.00  0.00    +0.086 A 
ATOM     10  C   UNL     1      24.223  15.949  -3.165  0.00  0.00    +0.134 A 
ATOM     11  N   UNL     1      23.130  15.229  -3.549  0.00  0.00    -0.247 N 
ATOM     12  N   UNL     1      23.370  14.539  -4.679  0.00  0.00    -0.065 NA
BRANCH  11  13
ATOM     13  C   UNL     1      21.845  15.138  -2.886  0.00  0.00    +0.180 C 
BRANCH  13  14
ATOM     14  C   UNL     1      21.859  14.082  -1.804  0.00  0.00    -0.026 A 
ATOM     15  C   UNL     1      23.039  13.392  -1.486  0.00  0.00    +0.007 A 
ATOM     16  C   UNL     1      23.044  12.420  -0.480  0.00  0.00    +0.019 A 
ATOM     17  C   UNL     1      21.870  12.121   0.217  0.00  0.00    +0.052 A 
ATOM     18  C   UNL     1      20.685  12.787  -0.110  0.00  0.00    +0.019 A 
ATOM     19  C   UNL     1      20.679  13.757  -1.116  0.00  0.00    +0.007 A 
BRANCH  17  20
ATOM     20  C   UNL     1      21.882  11.139   1.264  0.00  0.00    +0.099 C 
ATOM     21  N   UNL     1      21.882  10.341   2.105  0.00  0.00    -0.191 NA
ENDBRANCH  17  20
ENDBRANCH  13  14
ENDBRANCH  11  13
ENDBRANCH   7   9
ENDBRANCH   6   7
ENDBRANCH   5   6
ENDBRANCH   1   5
BRANCH   2  22
ATOM     22  C   UNL     1      28.798  15.054  -0.038  0.00  0.00    +0.152 C 
BRANCH  22  23
ATOM     23  C   UNL     1      30.316  14.802   0.078  0.00  0.00    +0.193 C 
ATOM     24  O   UNL     1      30.973  15.986  -0.424  0.00  0.00    -0.219 OA
BRANCH  23  25
ATOM     25  C   UNL     1      30.901  14.607   1.494  0.00  0.00    +0.212 C 
ATOM     26  O   UNL     1      29.883  14.150   2.400  0.00  0.00    -0.218 OA
BRANCH  25  27
ATOM     27  C   UNL     1      32.106  13.592   1.538  0.00  0.00    +0.171 C 
ATOM     28  O   UNL     1      33.333  14.180   1.117  0.00  0.00    -0.343 OA
ATOM     29  C   UNL     1      34.494  13.459   0.828  0.00  0.00    +0.220 C 
ATOM     30  C   UNL     1      34.218  12.300  -0.146  0.00  0.00    +0.076 C 
ATOM     31  C   UNL     1      33.068  11.466   0.442  0.00  0.00    +0.177 C 
ATOM     32  O   UNL     1      32.799  10.355  -0.402  0.00  0.00    -0.221 OA
ATOM     33  C   UNL     1      31.800  12.356   0.630  0.00  0.00    +0.155 C 
BRANCH  33  34
ATOM     34  N   UNL     1      30.703  11.565   1.182  0.00  0.00    -0.202 NA
ATOM     35  C   UNL     1      29.574  11.109   0.581  0.00  0.00    +0.242 C 
ATOM     36  C   UNL     1      28.753  10.069   1.298  0.00  0.00    +0.096 C 
ATOM     37  O   UNL     1      29.253  11.548  -0.521  0.00  0.00    -0.273 OA
ENDBRANCH  33  34
BRANCH  29  38
ATOM     38  C   UNL     1      35.287  12.951   2.151  0.00  0.00    +0.391 C 
ATOM     39  O   UNL     1      36.376  12.313   1.681  0.00  0.00    -0.243 OA
ATOM     40  O   UNL     1      34.738  13.602   3.184  0.00  0.00    -0.243 OA
ENDBRANCH  29  38
ENDBRANCH  25  27
ENDBRANCH  23  25
ENDBRANCH  22  23
ENDBRANCH   2  22
TORSDOF 13
