REMARK VINA RESULT:    -7.118      1.829      2.897
REMARK INTER + INTRA:         -14.256
REMARK INTER:                 -12.091
REMARK INTRA:                  -2.165
REMARK UNBOUND:                -2.144
REMARK  Name = lig_assembled_63.pdb
REMARK  12 active torsions:
REMARK  status: ('A' for Active; 'I' for Inactive)
REMARK    1  A    between atoms: _2  and  _10
REMARK    2  A    between atoms: _6  and  _14
REMARK    3  A    between atoms: _7  and  _8
REMARK    4  A    between atoms: _7  and  _15
REMARK    5  A    between atoms: _15  and  _17
REMARK    6  A    between atoms: _16  and  _21
REMARK    7  A    between atoms: _17  and  _20
REMARK    8  A    between atoms: _25  and  _35
REMARK    9  A    between atoms: _27  and  _28
REMARK   10  A    between atoms: _29  and  _31
REMARK   11  A    between atoms: _31  and  _33
REMARK   12  A    between atoms: _33  and  _35
REMARK                            x       y       z     vdW  Elec       q    Type
REMARK                         _______ _______ _______ _____ _____    ______ ____
ROOT
ATOM      1  C   UNL     1      28.151  16.756  -0.732  0.00  0.00    +0.400 C 
ATOM      2  N   UNL     1      28.257  15.495  -0.193  0.00  0.00    -0.278 N 
ATOM      3  H   UNL     1      28.597  15.680   0.803  0.00  0.00    +0.152 HD
ATOM      4  O   UNL     1      28.269  17.720   0.021  0.00  0.00    -0.226 OA
ENDROOT
BRANCH   2   5
ATOM      5  C   UNL     1      28.103  14.053  -0.362  0.00  0.00    +0.152 C 
BRANCH   5   6
ATOM      6  C   UNL     1      27.962  13.228   0.933  0.00  0.00    +0.193 C 
ATOM      7  O   UNL     1      28.607  11.958   0.689  0.00  0.00    -0.219 OA
BRANCH   6   8
ATOM      8  C   UNL     1      28.649  13.771   2.205  0.00  0.00    +0.212 C 
ATOM      9  O   UNL     1      27.685  13.959   3.255  0.00  0.00    -0.218 OA
BRANCH   8  10
ATOM     10  C   UNL     1      29.800  12.837   2.740  0.00  0.00    +0.171 C 
ATOM     11  O   UNL     1      29.594  12.431   4.090  0.00  0.00    -0.343 OA
ATOM     12  C   UNL     1      30.562  11.811   4.883  0.00  0.00    +0.220 C 
ATOM     13  C   UNL     1      31.893  12.583   4.866  0.00  0.00    +0.076 C 
ATOM     14  C   UNL     1      32.293  12.784   3.395  0.00  0.00    +0.177 C 
ATOM     15  O   UNL     1      33.540  13.460   3.323  0.00  0.00    -0.221 OA
ATOM     16  C   UNL     1      31.178  13.569   2.637  0.00  0.00    +0.155 C 
BRANCH  16  17
ATOM     17  N   UNL     1      31.557  13.768   1.241  0.00  0.00    -0.202 NA
ATOM     18  C   UNL     1      31.626  14.913   0.515  0.00  0.00    +0.242 C 
ATOM     19  C   UNL     1      32.329  14.874  -0.817  0.00  0.00    +0.096 C 
ATOM     20  O   UNL     1      31.120  15.943   0.955  0.00  0.00    -0.273 OA
ENDBRANCH  16  17
BRANCH  12  21
ATOM     21  C   UNL     1      30.779  10.240   4.530  0.00  0.00    +0.391 C 
ATOM     22  O   UNL     1      31.960   9.918   5.093  0.00  0.00    -0.243 OA
ATOM     23  O   UNL     1      29.596   9.793   4.091  0.00  0.00    -0.243 OA
ENDBRANCH  12  21
ENDBRANCH   8  10
ENDBRANCH   6   8
ENDBRANCH   5   6
ENDBRANCH   2   5
BRANCH   1  24
ATOM     24  O   UNL     1      27.964  16.804  -2.010  0.00  0.00    -0.450 OA
BRANCH  24  25
ATOM     25  C   UNL     1      27.115  17.433  -2.942  0.00  0.00    +0.240 C 
BRANCH  25  26
ATOM     26  C   UNL     1      26.485  16.551  -4.037  0.00  0.00    +0.100 C 
BRANCH  26  28
ATOM     27  N   UNL     1      25.965  14.163  -3.668  0.00  0.00    -0.134 NA
ATOM     28  C   UNL     1      25.677  15.477  -3.432  0.00  0.00    +0.087 A 
ATOM     29  C   UNL     1      24.578  15.551  -2.609  0.00  0.00    +0.141 A 
ATOM     30  N   UNL     1      24.201  14.239  -2.397  0.00  0.00    -0.201 N 
ATOM     31  N   UNL     1      25.069  13.422  -3.031  0.00  0.00    -0.059 NA
BRANCH  30  32
ATOM     32  C   UNL     1      23.050  13.794  -1.682  0.00  0.00    +0.173 A 
ATOM     33  C   UNL     1      23.100  12.737  -0.769  0.00  0.00    +0.096 A 
ATOM     34  C   UNL     1      21.889  12.318  -0.194  0.00  0.00    +0.024 A 
ATOM     35  C   UNL     1      20.695  12.957  -0.511  0.00  0.00    +0.021 A 
ATOM     36  C   UNL     1      20.742  14.017  -1.393  0.00  0.00    +0.113 A 
ATOM     37  N   UNL     1      21.879  14.443  -1.982  0.00  0.00    -0.235 NA
BRANCH  33  38
ATOM     38  C   UNL     1      24.287  12.052  -0.351  0.00  0.00    +0.103 C 
ATOM     39  N   UNL     1      25.189  11.411   0.003  0.00  0.00    -0.191 NA
ENDBRANCH  33  38
ENDBRANCH  30  32
ENDBRANCH  26  28
ENDBRANCH  25  26
ENDBRANCH  24  25
ENDBRANCH   1  24
TORSDOF 12
