REMARK VINA RESULT:    -6.042      2.800     10.139
REMARK INTER + INTRA:         -13.492
REMARK INTER:                 -11.825
REMARK INTRA:                  -1.667
REMARK UNBOUND:                -3.035
REMARK  Name = lig_assembled_22.pdb
REMARK  15 active torsions:
REMARK  status: ('A' for Active; 'I' for Inactive)
REMARK    1  A    between atoms: _2  and  _8
REMARK    2  A    between atoms: _4  and  _8
REMARK    3  A    between atoms: _4  and  _11
REMARK    4  A    between atoms: _5  and  _6
REMARK    5  A    between atoms: _5  and  _13
REMARK    6  A    between atoms: _8  and  _9
REMARK    7  A    between atoms: _8  and  _10
REMARK    8  A    between atoms: _13  and  _15
REMARK    9  A    between atoms: _14  and  _19
REMARK   10  A    between atoms: _15  and  _18
REMARK   11  A    between atoms: _23  and  _33
REMARK   12  A    between atoms: _25  and  _26
REMARK   13  A    between atoms: _27  and  _29
REMARK   14  A    between atoms: _29  and  _31
REMARK   15  A    between atoms: _31  and  _33
REMARK                            x       y       z     vdW  Elec       q    Type
REMARK                         _______ _______ _______ _____ _____    ______ ____
ROOT
ATOM      1  C   UNL     1      27.935  17.852  -1.057  0.00  0.00    +0.400 C 
ATOM      2  N   UNL     1      27.155  17.618  -2.165  0.00  0.00    -0.278 N 
ATOM      3  H   UNL     1      26.178  17.908  -1.844  0.00  0.00    +0.152 HD
ATOM      4  O   UNL     1      27.434  18.456  -0.112  0.00  0.00    -0.226 OA
ENDROOT
BRANCH   1   5
ATOM      5  O   UNL     1      29.136  17.375  -1.108  0.00  0.00    -0.450 OA
BRANCH   5   6
ATOM      6  C   UNL     1      30.078  16.762  -0.259  0.00  0.00    +0.240 C 
BRANCH   6   7
ATOM      7  C   UNL     1      29.782  15.325   0.211  0.00  0.00    +0.100 C 
BRANCH   7   9
ATOM      8  N   UNL     1      31.033  14.732   2.257  0.00  0.00    -0.134 NA
ATOM      9  C   UNL     1      30.961  14.757   0.892  0.00  0.00    +0.086 A 
ATOM     10  C   UNL     1      32.108  14.198   0.372  0.00  0.00    +0.135 A 
ATOM     11  N   UNL     1      32.841  13.850   1.472  0.00  0.00    -0.235 N 
ATOM     12  N   UNL     1      32.185  14.180   2.600  0.00  0.00    -0.064 NA
BRANCH  11  13
ATOM     13  C   UNL     1      34.166  13.230   1.548  0.00  0.00    +0.155 C 
ATOM     14  C   UNL     1      35.030  13.548   0.308  0.00  0.00    +0.048 C 
ATOM     15  C   UNL     1      33.990  11.702   1.640  0.00  0.00    +0.048 C 
BRANCH  13  16
ATOM     16  C   UNL     1      34.920  13.737   2.780  0.00  0.00    +0.332 C 
ATOM     17  O   UNL     1      35.345  13.013   3.672  0.00  0.00    -0.248 OA
BRANCH  16  18
ATOM     18  O   UNL     1      35.104  15.078   2.836  0.00  0.00    -0.479 OA
ATOM     19  H   UNL     1      35.992  15.385   3.104  0.00  0.00    +0.295 HD
ENDBRANCH  16  18
ENDBRANCH  13  16
ENDBRANCH  11  13
ENDBRANCH   7   9
ENDBRANCH   6   7
ENDBRANCH   5   6
ENDBRANCH   1   5
BRANCH   2  20
ATOM     20  C   UNL     1      27.067  17.176  -3.554  0.00  0.00    +0.152 C 
BRANCH  20  21
ATOM     21  C   UNL     1      25.983  16.124  -3.865  0.00  0.00    +0.193 C 
ATOM     22  O   UNL     1      26.021  15.898  -5.292  0.00  0.00    -0.219 OA
BRANCH  21  23
ATOM     23  C   UNL     1      26.154  14.718  -3.248  0.00  0.00    +0.212 C 
ATOM     24  O   UNL     1      26.852  14.801  -1.995  0.00  0.00    -0.218 OA
BRANCH  23  25
ATOM     25  C   UNL     1      24.787  13.969  -3.014  0.00  0.00    +0.171 C 
ATOM     26  O   UNL     1      23.851  14.753  -2.280  0.00  0.00    -0.343 OA
ATOM     27  C   UNL     1      22.669  14.256  -1.727  0.00  0.00    +0.220 C 
ATOM     28  C   UNL     1      22.919  12.991  -0.888  0.00  0.00    +0.076 C 
ATOM     29  C   UNL     1      23.689  11.995  -1.771  0.00  0.00    +0.177 C 
ATOM     30  O   UNL     1      23.912  10.788  -1.055  0.00  0.00    -0.221 OA
ATOM     31  C   UNL     1      25.033  12.628  -2.248  0.00  0.00    +0.155 C 
BRANCH  31  32
ATOM     32  N   UNL     1      25.771  11.682  -3.082  0.00  0.00    -0.202 NA
ATOM     33  C   UNL     1      26.978  11.097  -2.871  0.00  0.00    +0.242 C 
ATOM     34  C   UNL     1      27.373   9.937  -3.747  0.00  0.00    +0.096 C 
ATOM     35  O   UNL     1      27.711  11.522  -1.981  0.00  0.00    -0.273 OA
ENDBRANCH  31  32
BRANCH  27  36
ATOM     36  C   UNL     1      21.490  14.023  -2.821  0.00  0.00    +0.391 C 
ATOM     37  O   UNL     1      21.984  14.516  -3.973  0.00  0.00    -0.243 OA
ATOM     38  O   UNL     1      20.620  13.180  -2.253  0.00  0.00    -0.243 OA
ENDBRANCH  27  36
ENDBRANCH  23  25
ENDBRANCH  21  23
ENDBRANCH  20  21
ENDBRANCH   2  20
TORSDOF 13
