REMARK VINA RESULT:    -7.282      2.886      3.395
REMARK INTER + INTRA:         -13.633
REMARK INTER:                 -12.116
REMARK INTRA:                  -1.517
REMARK UNBOUND:                -1.669
REMARK  Name = lig_assembled_70.pdb
REMARK  11 active torsions:
REMARK  status: ('A' for Active; 'I' for Inactive)
REMARK    1  A    between atoms: _2  and  _9
REMARK    2  A    between atoms: _6  and  _7
REMARK    3  A    between atoms: _6  and  _17
REMARK    4  A    between atoms: _17  and  _19
REMARK    5  A    between atoms: _18  and  _23
REMARK    6  A    between atoms: _19  and  _22
REMARK    7  A    between atoms: _27  and  _37
REMARK    8  A    between atoms: _29  and  _30
REMARK    9  A    between atoms: _31  and  _33
REMARK   10  A    between atoms: _33  and  _35
REMARK   11  A    between atoms: _35  and  _37
REMARK                            x       y       z     vdW  Elec       q    Type
REMARK                         _______ _______ _______ _____ _____    ______ ____
ROOT
ATOM      1  C   UNL     1      29.303  17.121  -0.320  0.00  0.00    +0.400 C 
ATOM      2  N   UNL     1      29.444  15.919   0.333  0.00  0.00    -0.278 N 
ATOM      3  H   UNL     1      30.129  16.146   1.122  0.00  0.00    +0.152 HD
ATOM      4  O   UNL     1      29.785  18.123   0.200  0.00  0.00    -0.226 OA
ENDROOT
BRANCH   1   5
ATOM      5  O   UNL     1      28.689  17.071  -1.457  0.00  0.00    -0.450 OA
BRANCH   5   6
ATOM      6  C   UNL     1      27.376  17.112  -1.965  0.00  0.00    +0.240 C 
BRANCH   6   7
ATOM      7  C   UNL     1      27.208  17.208  -3.494  0.00  0.00    +0.100 C 
BRANCH   7   9
ATOM      8  N   UNL     1      26.146  15.689  -5.140  0.00  0.00    -0.134 NA
ATOM      9  C   UNL     1      26.098  16.348  -3.946  0.00  0.00    +0.086 A 
ATOM     10  C   UNL     1      24.908  16.057  -3.321  0.00  0.00    +0.140 A 
ATOM     11  N   UNL     1      24.258  15.198  -4.175  0.00  0.00    -0.218 N 
ATOM     12  N   UNL     1      25.020  14.999  -5.275  0.00  0.00    -0.060 NA
BRANCH  11  13
ATOM     13  C   UNL     1      23.012  14.563  -3.996  0.00  0.00    +0.086 A 
ATOM     14  C   UNL     1      22.935  13.185  -3.877  0.00  0.00    +0.139 A 
ATOM     15  N   UNL     1      21.776  12.512  -3.657  0.00  0.00    -0.253 NA
ATOM     16  C   UNL     1      20.639  13.223  -3.540  0.00  0.00    +0.071 A 
ATOM     17  C   UNL     1      20.618  14.628  -3.663  0.00  0.00    +0.002 A 
ATOM     18  C   UNL     1      19.410  15.336  -3.534  0.00  0.00    +0.010 A 
ATOM     19  C   UNL     1      18.225  14.660  -3.262  0.00  0.00    +0.001 A 
ATOM     20  C   UNL     1      18.240  13.277  -3.131  0.00  0.00    +0.002 A 
ATOM     21  C   UNL     1      19.440  12.574  -3.278  0.00  0.00    +0.028 A 
ATOM     22  C   UNL     1      21.827  15.293  -3.903  0.00  0.00    +0.039 A 
ENDBRANCH  11  13
ENDBRANCH   7   9
ENDBRANCH   6   7
ENDBRANCH   5   6
ENDBRANCH   1   5
BRANCH   2  23
ATOM     23  C   UNL     1      29.076  14.510   0.440  0.00  0.00    +0.152 C 
BRANCH  23  24
ATOM     24  C   UNL     1      29.821  13.540  -0.500  0.00  0.00    +0.193 C 
ATOM     25  O   UNL     1      29.402  13.861  -1.845  0.00  0.00    -0.219 OA
BRANCH  24  26
ATOM     26  C   UNL     1      31.362  13.630  -0.545  0.00  0.00    +0.212 C 
ATOM     27  O   UNL     1      31.777  14.964  -0.882  0.00  0.00    -0.218 OA
BRANCH  26  28
ATOM     28  C   UNL     1      32.051  13.216   0.811  0.00  0.00    +0.171 C 
ATOM     29  O   UNL     1      31.745  14.109   1.876  0.00  0.00    -0.343 OA
ATOM     30  C   UNL     1      32.405  14.122   3.108  0.00  0.00    +0.220 C 
ATOM     31  C   UNL     1      33.933  14.167   2.936  0.00  0.00    +0.076 C 
ATOM     32  C   UNL     1      34.328  13.011   2.003  0.00  0.00    +0.177 C 
ATOM     33  O   UNL     1      35.739  12.982   1.842  0.00  0.00    -0.221 OA
ATOM     34  C   UNL     1      33.604  13.158   0.629  0.00  0.00    +0.155 C 
BRANCH  34  35
ATOM     35  N   UNL     1      33.982  12.065  -0.263  0.00  0.00    -0.202 NA
ATOM     36  C   UNL     1      34.632  12.102  -1.454  0.00  0.00    +0.242 C 
ATOM     37  C   UNL     1      35.156  10.810  -2.023  0.00  0.00    +0.096 C 
ATOM     38  O   UNL     1      34.778  13.177  -2.033  0.00  0.00    -0.273 OA
ENDBRANCH  34  35
BRANCH  30  39
ATOM     39  C   UNL     1      31.950  12.917   4.098  0.00  0.00    +0.391 C 
ATOM     40  O   UNL     1      32.981  12.761   4.951  0.00  0.00    -0.243 OA
ATOM     41  O   UNL     1      30.638  12.746   3.894  0.00  0.00    -0.243 OA
ENDBRANCH  30  39
ENDBRANCH  26  28
ENDBRANCH  24  26
ENDBRANCH  23  24
ENDBRANCH   2  23
TORSDOF 11
