REMARK VINA RESULT:    -7.249      3.358      8.423
REMARK INTER + INTRA:         -14.203
REMARK INTER:                 -12.215
REMARK INTRA:                  -1.988
REMARK UNBOUND:                -1.658
REMARK  Name = lig_assembled_60.pdb
REMARK  13 active torsions:
REMARK  status: ('A' for Active; 'I' for Inactive)
REMARK    1  A    between atoms: _2  and  _9
REMARK    2  A    between atoms: _3  and  _44
REMARK    3  A    between atoms: _6  and  _7
REMARK    4  A    between atoms: _6  and  _16
REMARK    5  A    between atoms: _12  and  _44
REMARK    6  A    between atoms: _16  and  _18
REMARK    7  A    between atoms: _17  and  _22
REMARK    8  A    between atoms: _18  and  _21
REMARK    9  A    between atoms: _26  and  _36
REMARK   10  A    between atoms: _28  and  _29
REMARK   11  A    between atoms: _30  and  _32
REMARK   12  A    between atoms: _32  and  _34
REMARK   13  A    between atoms: _34  and  _36
REMARK                            x       y       z     vdW  Elec       q    Type
REMARK                         _______ _______ _______ _____ _____    ______ ____
ROOT
ATOM      1  C   UNL     1      27.857  17.449  -0.800  0.00  0.00    +0.400 C 
ATOM      2  N   UNL     1      26.955  16.927  -1.697  0.00  0.00    -0.278 N 
ATOM      3  H   UNL     1      26.042  17.421  -1.446  0.00  0.00    +0.152 HD
ATOM      4  O   UNL     1      27.503  18.403  -0.112  0.00  0.00    -0.226 OA
ENDROOT
BRANCH   2   5
ATOM      5  C   UNL     1      26.695  16.032  -2.822  0.00  0.00    +0.152 C 
BRANCH   5   6
ATOM      6  C   UNL     1      25.796  14.813  -2.527  0.00  0.00    +0.193 C 
ATOM      7  O   UNL     1      25.103  14.502  -3.756  0.00  0.00    -0.219 OA
BRANCH   6   8
ATOM      8  C   UNL     1      26.491  13.492  -2.131  0.00  0.00    +0.212 C 
ATOM      9  O   UNL     1      27.864  13.501  -2.552  0.00  0.00    -0.218 OA
BRANCH   8  10
ATOM     10  C   UNL     1      26.440  13.199  -0.583  0.00  0.00    +0.171 C 
ATOM     11  O   UNL     1      27.660  12.657  -0.088  0.00  0.00    -0.343 OA
ATOM     12  C   UNL     1      27.812  12.085   1.178  0.00  0.00    +0.220 C 
ATOM     13  C   UNL     1      26.727  11.031   1.462  0.00  0.00    +0.076 C 
ATOM     14  C   UNL     1      25.362  11.692   1.210  0.00  0.00    +0.177 C 
ATOM     15  O   UNL     1      24.320  10.770   1.497  0.00  0.00    -0.221 OA
ATOM     16  C   UNL     1      25.277  12.205  -0.262  0.00  0.00    +0.155 C 
BRANCH  16  17
ATOM     17  N   UNL     1      23.978  12.828  -0.507  0.00  0.00    -0.202 NA
ATOM     18  C   UNL     1      22.974  12.443  -1.336  0.00  0.00    +0.242 C 
ATOM     19  C   UNL     1      21.627  13.099  -1.179  0.00  0.00    +0.096 C 
ATOM     20  O   UNL     1      23.184  11.579  -2.184  0.00  0.00    -0.273 OA
ENDBRANCH  16  17
BRANCH  12  21
ATOM     21  C   UNL     1      27.908  13.179   2.375  0.00  0.00    +0.391 C 
ATOM     22  O   UNL     1      28.217  14.339   1.762  0.00  0.00    -0.243 OA
ATOM     23  O   UNL     1      27.361  12.600   3.450  0.00  0.00    -0.243 OA
ENDBRANCH  12  21
ENDBRANCH   8  10
ENDBRANCH   6   8
ENDBRANCH   5   6
ENDBRANCH   2   5
BRANCH   1  24
ATOM     24  O   UNL     1      29.002  16.852  -0.745  0.00  0.00    -0.450 OA
BRANCH  24  25
ATOM     25  C   UNL     1      30.154  16.823   0.064  0.00  0.00    +0.240 C 
BRANCH  25  26
ATOM     26  C   UNL     1      31.279  15.848  -0.334  0.00  0.00    +0.100 C 
BRANCH  26  28
ATOM     27  N   UNL     1      31.235  13.463   0.328  0.00  0.00    -0.134 NA
ATOM     28  C   UNL     1      31.403  14.773   0.669  0.00  0.00    +0.086 A 
ATOM     29  C   UNL     1      31.695  14.856   2.010  0.00  0.00    +0.139 A 
ATOM     30  N   UNL     1      31.734  13.551   2.446  0.00  0.00    -0.220 N 
ATOM     31  N   UNL     1      31.428  12.726   1.415  0.00  0.00    -0.061 NA
BRANCH  30  32
ATOM     32  C   UNL     1      32.072  13.057   3.733  0.00  0.00    +0.067 A 
ATOM     33  C   UNL     1      31.097  12.467   4.552  0.00  0.00    +0.030 A 
ATOM     34  C   UNL     1      31.426  12.048   5.843  0.00  0.00    +0.030 A 
ATOM     35  C   UNL     1      32.732  12.205   6.311  0.00  0.00    +0.105 A 
ATOM     36  C   UNL     1      33.717  12.777   5.500  0.00  0.00    +0.030 A 
ATOM     37  C   UNL     1      33.387  13.196   4.208  0.00  0.00    +0.030 A 
BRANCH  35  38
ATOM     38  S   UNL     1      33.117  11.743   7.975  0.00  0.00    +0.056 S 
ATOM     39  O   UNL     1      31.907  11.346   8.652  0.00  0.00    -0.153 OA
ATOM     40  O   UNL     1      34.311  10.928   7.973  0.00  0.00    -0.153 OA
BRANCH  38  41
ATOM     41  N   UNL     1      33.563  13.216   8.643  0.00  0.00    -0.204 NA
ATOM     42  H   UNL     1      33.770  13.883   7.902  0.00  0.00    +0.144 HD
ATOM     43  H   UNL     1      34.333  13.076   9.300  0.00  0.00    +0.144 HD
ENDBRANCH  38  41
ENDBRANCH  35  38
ENDBRANCH  30  32
ENDBRANCH  26  28
ENDBRANCH  25  26
ENDBRANCH  24  25
ENDBRANCH   1  24
TORSDOF 13
