REMARK VINA RESULT:    -6.755      2.491      8.623
REMARK INTER + INTRA:         -12.874
REMARK INTER:                 -10.993
REMARK INTRA:                  -1.881
REMARK UNBOUND:                -1.775
REMARK  Name = lig_assembled_42.pdb
REMARK  11 active torsions:
REMARK  status: ('A' for Active; 'I' for Inactive)
REMARK    1  A    between atoms: _2  and  _8
REMARK    2  A    between atoms: _5  and  _6
REMARK    3  A    between atoms: _5  and  _16
REMARK    4  A    between atoms: _16  and  _18
REMARK    5  A    between atoms: _17  and  _22
REMARK    6  A    between atoms: _18  and  _21
REMARK    7  A    between atoms: _26  and  _36
REMARK    8  A    between atoms: _28  and  _29
REMARK    9  A    between atoms: _30  and  _32
REMARK   10  A    between atoms: _32  and  _34
REMARK   11  A    between atoms: _34  and  _36
REMARK                            x       y       z     vdW  Elec       q    Type
REMARK                         _______ _______ _______ _____ _____    ______ ____
ROOT
ATOM      1  C   UNL     1      26.190  14.952  -4.535  0.00  0.00    +0.400 C 
ATOM      2  N   UNL     1      26.199  13.585  -4.394  0.00  0.00    -0.278 N 
ATOM      3  H   UNL     1      25.544  13.252  -5.170  0.00  0.00    +0.152 HD
ATOM      4  O   UNL     1      25.649  15.429  -5.529  0.00  0.00    -0.226 OA
ENDROOT
BRANCH   1   5
ATOM      5  O   UNL     1      26.738  15.618  -3.571  0.00  0.00    -0.450 OA
BRANCH   5   6
ATOM      6  C   UNL     1      26.361  16.318  -2.408  0.00  0.00    +0.240 C 
BRANCH   6   7
ATOM      7  C   UNL     1      27.273  17.470  -1.946  0.00  0.00    +0.100 C 
BRANCH   7   9
ATOM      8  N   UNL     1      29.484  17.712  -0.844  0.00  0.00    -0.134 NA
ATOM      9  C   UNL     1      28.383  16.954  -1.124  0.00  0.00    +0.086 A 
ATOM     10  C   UNL     1      28.527  15.723  -0.532  0.00  0.00    +0.139 A 
ATOM     11  N   UNL     1      29.742  15.771   0.109  0.00  0.00    -0.220 N 
ATOM     12  N   UNL     1      30.305  16.988  -0.093  0.00  0.00    -0.061 NA
BRANCH  11  13
ATOM     13  C   UNL     1      30.373  14.756   0.873  0.00  0.00    +0.071 A 
ATOM     14  C   UNL     1      31.380  15.093   1.790  0.00  0.00    +0.077 A 
ATOM     15  C   UNL     1      31.963  14.070   2.509  0.00  0.00    +0.168 A 
ATOM     16  O   UNL     1      32.945  14.226   3.435  0.00  0.00    -0.453 OA
ATOM     17  C   UNL     1      33.144  12.859   3.847  0.00  0.00    +0.466 C 
ATOM     18  O   UNL     1      32.290  11.921   3.157  0.00  0.00    -0.453 OA
ATOM     19  C   UNL     1      31.588  12.759   2.349  0.00  0.00    +0.166 A 
ATOM     20  C   UNL     1      30.604  12.392   1.456  0.00  0.00    +0.051 A 
ATOM     21  C   UNL     1      29.988  13.405   0.708  0.00  0.00    +0.031 A 
ENDBRANCH  11  13
ENDBRANCH   7   9
ENDBRANCH   6   7
ENDBRANCH   5   6
ENDBRANCH   1   5
BRANCH   2  22
ATOM     22  C   UNL     1      26.702  12.410  -3.686  0.00  0.00    +0.152 C 
BRANCH  22  23
ATOM     23  C   UNL     1      25.734  11.760  -2.676  0.00  0.00    +0.193 C 
ATOM     24  O   UNL     1      25.951  10.333  -2.752  0.00  0.00    -0.219 OA
BRANCH  23  25
ATOM     25  C   UNL     1      25.926  12.099  -1.181  0.00  0.00    +0.212 C 
ATOM     26  O   UNL     1      26.474  13.419  -1.033  0.00  0.00    -0.218 OA
BRANCH  25  27
ATOM     27  C   UNL     1      24.594  12.010  -0.344  0.00  0.00    +0.171 C 
ATOM     28  O   UNL     1      24.408  10.731   0.255  0.00  0.00    -0.343 OA
ATOM     29  C   UNL     1      23.215  10.301   0.839  0.00  0.00    +0.220 C 
ATOM     30  C   UNL     1      22.011  10.516  -0.095  0.00  0.00    +0.076 C 
ATOM     31  C   UNL     1      22.023  11.990  -0.533  0.00  0.00    +0.177 C 
ATOM     32  O   UNL     1      20.905  12.252  -1.369  0.00  0.00    -0.221 OA
ATOM     33  C   UNL     1      23.364  12.325  -1.257  0.00  0.00    +0.155 C 
BRANCH  33  34
ATOM     34  N   UNL     1      23.376  13.722  -1.681  0.00  0.00    -0.202 NA
ATOM     35  C   UNL     1      23.091  14.264  -2.893  0.00  0.00    +0.242 C 
ATOM     36  C   UNL     1      22.893  15.755  -2.981  0.00  0.00    +0.096 C 
ATOM     37  O   UNL     1      23.000  13.535  -3.878  0.00  0.00    -0.273 OA
ENDBRANCH  33  34
BRANCH  29  38
ATOM     38  C   UNL     1      22.949  10.937   2.311  0.00  0.00    +0.391 C 
ATOM     39  O   UNL     1      21.681  10.596   2.613  0.00  0.00    -0.243 OA
ATOM     40  O   UNL     1      24.151  11.287   2.785  0.00  0.00    -0.243 OA
ENDBRANCH  29  38
ENDBRANCH  25  27
ENDBRANCH  23  25
ENDBRANCH  22  23
ENDBRANCH   2  22
TORSDOF 11
