REMARK VINA RESULT:    -7.246      2.759      3.933
REMARK INTER + INTRA:         -13.223
REMARK INTER:                 -11.745
REMARK INTRA:                  -1.478
REMARK UNBOUND:                -1.318
REMARK  Name = lig_assembled_40.pdb
REMARK  12 active torsions:
REMARK  status: ('A' for Active; 'I' for Inactive)
REMARK    1  A    between atoms: _2  and  _8
REMARK    2  A    between atoms: _5  and  _6
REMARK    3  A    between atoms: _5  and  _14
REMARK    4  A    between atoms: _11  and  _12
REMARK    5  A    between atoms: _14  and  _16
REMARK    6  A    between atoms: _15  and  _20
REMARK    7  A    between atoms: _16  and  _19
REMARK    8  A    between atoms: _24  and  _34
REMARK    9  A    between atoms: _26  and  _27
REMARK   10  A    between atoms: _28  and  _30
REMARK   11  A    between atoms: _30  and  _32
REMARK   12  A    between atoms: _32  and  _34
REMARK                            x       y       z     vdW  Elec       q    Type
REMARK                         _______ _______ _______ _____ _____    ______ ____
ROOT
ATOM      1  C   UNL     1      28.357  17.501  -0.482  0.00  0.00    +0.400 C 
ATOM      2  N   UNL     1      29.528  17.500   0.237  0.00  0.00    -0.278 N 
ATOM      3  H   UNL     1      29.425  18.349   0.879  0.00  0.00    +0.152 HD
ATOM      4  O   UNL     1      27.465  18.272  -0.136  0.00  0.00    -0.226 OA
ENDROOT
BRANCH   1   5
ATOM      5  O   UNL     1      28.320  16.696  -1.493  0.00  0.00    -0.450 OA
BRANCH   5   6
ATOM      6  C   UNL     1      27.478  15.708  -2.041  0.00  0.00    +0.240 C 
BRANCH   6   7
ATOM      7  C   UNL     1      26.398  16.168  -3.038  0.00  0.00    +0.100 C 
BRANCH   7   9
ATOM      8  N   UNL     1      25.059  14.420  -1.908  0.00  0.00    -0.134 NA
ATOM      9  C   UNL     1      25.124  15.475  -2.771  0.00  0.00    +0.086 A 
ATOM     10  C   UNL     1      23.867  15.727  -3.268  0.00  0.00    +0.139 A 
ATOM     11  N   UNL     1      23.048  14.810  -2.650  0.00  0.00    -0.220 N 
ATOM     12  N   UNL     1      23.798  14.015  -1.847  0.00  0.00    -0.061 NA
BRANCH  11  13
ATOM     13  C   UNL     1      21.638  14.678  -2.745  0.00  0.00    +0.067 A 
ATOM     14  C   UNL     1      20.903  15.466  -3.640  0.00  0.00    +0.028 A 
ATOM     15  C   UNL     1      19.508  15.375  -3.672  0.00  0.00    +0.005 A 
ATOM     16  C   UNL     1      18.831  14.500  -2.816  0.00  0.00    -0.050 A 
ATOM     17  C   UNL     1      19.570  13.688  -1.948  0.00  0.00    +0.005 A 
ATOM     18  C   UNL     1      17.332  14.434  -2.815  0.00  0.00    +0.044 C 
ATOM     19  C   UNL     1      20.966  13.774  -1.911  0.00  0.00    +0.028 A 
ENDBRANCH  11  13
ENDBRANCH   7   9
ENDBRANCH   6   7
ENDBRANCH   5   6
ENDBRANCH   1   5
BRANCH   2  20
ATOM     20  C   UNL     1      30.813  16.866   0.522  0.00  0.00    +0.152 C 
BRANCH  20  21
ATOM     21  C   UNL     1      30.946  15.385   0.113  0.00  0.00    +0.193 C 
ATOM     22  O   UNL     1      32.091  15.296  -0.762  0.00  0.00    -0.219 OA
BRANCH  21  23
ATOM     23  C   UNL     1      31.234  14.358   1.231  0.00  0.00    +0.212 C 
ATOM     24  O   UNL     1      31.563  15.031   2.457  0.00  0.00    -0.218 OA
BRANCH  23  25
ATOM     25  C   UNL     1      30.032  13.375   1.501  0.00  0.00    +0.171 C 
ATOM     26  O   UNL     1      29.866  13.081   2.884  0.00  0.00    -0.343 OA
ATOM     27  C   UNL     1      29.047  12.064   3.381  0.00  0.00    +0.220 C 
ATOM     28  C   UNL     1      29.324  10.719   2.686  0.00  0.00    +0.076 C 
ATOM     29  C   UNL     1      29.220  10.951   1.170  0.00  0.00    +0.177 C 
ATOM     30  O   UNL     1      29.429   9.727   0.480  0.00  0.00    -0.221 OA
ATOM     31  C   UNL     1      30.247  12.037   0.721  0.00  0.00    +0.155 C 
BRANCH  31  32
ATOM     32  N   UNL     1      30.157  12.255  -0.720  0.00  0.00    -0.202 NA
ATOM     33  C   UNL     1      31.101  12.098  -1.683  0.00  0.00    +0.242 C 
ATOM     34  C   UNL     1      30.662  12.107  -3.124  0.00  0.00    +0.096 C 
ATOM     35  O   UNL     1      32.278  11.951  -1.361  0.00  0.00    -0.273 OA
ENDBRANCH  31  32
BRANCH  27  36
ATOM     36  C   UNL     1      27.466  12.435   3.354  0.00  0.00    +0.391 C 
ATOM     37  O   UNL     1      26.831  11.247   3.325  0.00  0.00    -0.243 OA
ATOM     38  O   UNL     1      27.385  13.733   3.671  0.00  0.00    -0.243 OA
ENDBRANCH  27  36
ENDBRANCH  23  25
ENDBRANCH  21  23
ENDBRANCH  20  21
ENDBRANCH   2  20
TORSDOF 11
