REMARK VINA RESULT:    -6.215      3.010      5.371
REMARK INTER + INTRA:         -15.103
REMARK INTER:                 -12.649
REMARK INTRA:                  -2.454
REMARK UNBOUND:                -3.439
REMARK  Name = lig_assembled_84.pdb
REMARK  16 active torsions:
REMARK  status: ('A' for Active; 'I' for Inactive)
REMARK    1  A    between atoms: _2  and  _10
REMARK    2  A    between atoms: _3  and  _13
REMARK    3  A    between atoms: _4  and  _16
REMARK    4  A    between atoms: _7  and  _8
REMARK    5  A    between atoms: _7  and  _23
REMARK    6  A    between atoms: _10  and  _11
REMARK    7  A    between atoms: _11  and  _12
REMARK    8  A    between atoms: _11  and  _13
REMARK    9  A    between atoms: _23  and  _25
REMARK   10  A    between atoms: _24  and  _29
REMARK   11  A    between atoms: _25  and  _28
REMARK   12  A    between atoms: _33  and  _43
REMARK   13  A    between atoms: _35  and  _36
REMARK   14  A    between atoms: _37  and  _39
REMARK   15  A    between atoms: _39  and  _41
REMARK   16  A    between atoms: _41  and  _43
REMARK                            x       y       z     vdW  Elec       q    Type
REMARK                         _______ _______ _______ _____ _____    ______ ____
ROOT
ATOM      1  C   UNL     1      27.784  14.776  -0.687  0.00  0.00    +0.240 C 
ENDROOT
BRANCH   1   2
ATOM      2  C   UNL     1      27.717  13.239  -0.768  0.00  0.00    +0.100 C 
BRANCH   2   4
ATOM      3  N   UNL     1      27.511  13.396   1.697  0.00  0.00    -0.134 NA
ATOM      4  C   UNL     1      27.386  12.661   0.547  0.00  0.00    +0.086 A 
ATOM      5  C   UNL     1      26.966  11.389   0.871  0.00  0.00    +0.133 A 
ATOM      6  N   UNL     1      26.918  11.396   2.233  0.00  0.00    -0.251 N 
ATOM      7  N   UNL     1      27.224  12.608   2.726  0.00  0.00    -0.065 NA
BRANCH   6   8
ATOM      8  C   UNL     1      26.729  10.264   3.118  0.00  0.00    +0.149 C 
BRANCH   8   9
ATOM      9  C   UNL     1      26.035   9.057   2.464  0.00  0.00    +0.021 C 
ATOM     10  C   UNL     1      26.888   7.787   2.594  0.00  0.00    +0.010 C 
BRANCH   9  11
ATOM     11  C   UNL     1      24.649   8.793   3.100  0.00  0.00    +0.089 C 
BRANCH  11  12
ATOM     12  N   UNL     1      23.498   9.336   2.366  0.00  0.00    -0.299 NA
ATOM     13  C   UNL     1      23.795   9.375   0.909  0.00  0.00    +0.103 C 
ATOM     14  C   UNL     1      22.581   9.860   0.091  0.00  0.00    +0.120 C 
ATOM     15  N   UNL     1      22.178  11.194   0.549  0.00  0.00    -0.327 N 
ATOM     16  C   UNL     1      21.913  11.284   1.993  0.00  0.00    +0.120 C 
ATOM     17  C   UNL     1      23.115  10.706   2.795  0.00  0.00    +0.103 C 
BRANCH  15  18
ATOM     18  C   UNL     1      22.008  12.255  -0.310  0.00  0.00    +0.030 A 
ATOM     19  C   UNL     1      23.101  12.831  -0.984  0.00  0.00    +0.024 A 
ATOM     20  C   UNL     1      22.953  13.927  -1.841  0.00  0.00    +0.022 A 
ATOM     21  C   UNL     1      21.695  14.467  -2.051  0.00  0.00    +0.041 A 
ATOM     22 CL   UNL     1      21.505  15.818  -3.100  0.00  0.00    -0.084 Cl
ATOM     23  C   UNL     1      20.589  13.926  -1.406  0.00  0.00    +0.022 A 
ATOM     24  C   UNL     1      20.751  12.832  -0.544  0.00  0.00    +0.024 A 
ENDBRANCH  15  18
ENDBRANCH  11  12
ENDBRANCH   9  11
ENDBRANCH   8   9
ENDBRANCH   6   8
ENDBRANCH   2   4
ENDBRANCH   1   2
BRANCH   1  25
ATOM     25  O   UNL     1      29.059  15.374  -0.720  0.00  0.00    -0.450 OA
BRANCH  25  26
ATOM     26  C   UNL     1      29.611  16.519  -0.488  0.00  0.00    +0.400 C 
ATOM     27  N   UNL     1      30.682  16.500   0.374  0.00  0.00    -0.278 N 
ATOM     28  H   UNL     1      31.099  17.479   0.273  0.00  0.00    +0.152 HD
ATOM     29  O   UNL     1      29.286  17.595  -0.983  0.00  0.00    -0.226 OA
BRANCH  27  30
ATOM     30  C   UNL     1      31.478  15.764   1.354  0.00  0.00    +0.152 C 
BRANCH  30  31
ATOM     31  C   UNL     1      32.027  14.398   0.894  0.00  0.00    +0.193 C 
ATOM     32  O   UNL     1      30.945  13.450   1.026  0.00  0.00    -0.219 OA
BRANCH  31  33
ATOM     33  C   UNL     1      32.478  14.266  -0.577  0.00  0.00    +0.212 C 
ATOM     34  O   UNL     1      32.856  15.549  -1.103  0.00  0.00    -0.218 OA
BRANCH  33  35
ATOM     35  C   UNL     1      33.680  13.266  -0.775  0.00  0.00    +0.171 C 
ATOM     36  O   UNL     1      34.706  13.443   0.195  0.00  0.00    -0.343 OA
ATOM     37  C   UNL     1      35.976  12.868   0.114  0.00  0.00    +0.220 C 
ATOM     38  C   UNL     1      36.631  13.125  -1.255  0.00  0.00    +0.076 C 
ATOM     39  C   UNL     1      35.641  12.663  -2.336  0.00  0.00    +0.177 C 
ATOM     40  O   UNL     1      36.215  12.841  -3.623  0.00  0.00    -0.221 OA
ATOM     41  C   UNL     1      34.296  13.443  -2.202  0.00  0.00    +0.155 C 
BRANCH  41  42
ATOM     42  N   UNL     1      33.355  13.011  -3.232  0.00  0.00    -0.202 NA
ATOM     43  C   UNL     1      33.182  13.471  -4.497  0.00  0.00    +0.242 C 
ATOM     44  C   UNL     1      32.344  12.655  -5.447  0.00  0.00    +0.096 C 
ATOM     45  O   UNL     1      33.708  14.529  -4.836  0.00  0.00    -0.273 OA
ENDBRANCH  41  42
BRANCH  37  46
ATOM     46  C   UNL     1      35.998  11.290   0.500  0.00  0.00    +0.391 C 
ATOM     47  O   UNL     1      37.145  10.820  -0.027  0.00  0.00    -0.243 OA
ATOM     48  O   UNL     1      35.049  11.124   1.429  0.00  0.00    -0.243 OA
ENDBRANCH  37  46
ENDBRANCH  33  35
ENDBRANCH  31  33
ENDBRANCH  30  31
ENDBRANCH  27  30
ENDBRANCH  25  26
ENDBRANCH   1  25
TORSDOF 15
