REMARK VINA RESULT:    -6.298      3.106      5.120
REMARK INTER + INTRA:         -13.383
REMARK INTER:                 -10.751
REMARK INTRA:                  -2.631
REMARK UNBOUND:                -1.931
REMARK  Name = lig_assembled_55.pdb
REMARK  15 active torsions:
REMARK  status: ('A' for Active; 'I' for Inactive)
REMARK    1  A    between atoms: _2  and  _9
REMARK    2  A    between atoms: _3  and  _10
REMARK    3  A    between atoms: _3  and  _41
REMARK    4  A    between atoms: _5  and  _41
REMARK    5  A    between atoms: _6  and  _7
REMARK    6  A    between atoms: _6  and  _13
REMARK    7  A    between atoms: _9  and  _10
REMARK    8  A    between atoms: _13  and  _15
REMARK    9  A    between atoms: _14  and  _19
REMARK   10  A    between atoms: _15  and  _18
REMARK   11  A    between atoms: _23  and  _33
REMARK   12  A    between atoms: _25  and  _26
REMARK   13  A    between atoms: _27  and  _29
REMARK   14  A    between atoms: _29  and  _31
REMARK   15  A    between atoms: _31  and  _33
REMARK                            x       y       z     vdW  Elec       q    Type
REMARK                         _______ _______ _______ _____ _____    ______ ____
ROOT
ATOM      1  C   UNL     1      29.633  17.106  -0.346  0.00  0.00    +0.400 C 
ATOM      2  N   UNL     1      30.513  16.099  -0.028  0.00  0.00    -0.278 N 
ATOM      3  H   UNL     1      31.217  16.580   0.617  0.00  0.00    +0.152 HD
ATOM      4  O   UNL     1      29.722  18.168   0.264  0.00  0.00    -0.226 OA
ENDROOT
BRANCH   2   5
ATOM      5  C   UNL     1      30.902  14.697  -0.162  0.00  0.00    +0.152 C 
BRANCH   5   6
ATOM      6  C   UNL     1      30.476  13.762   0.989  0.00  0.00    +0.193 C 
ATOM      7  O   UNL     1      30.792  14.448   2.220  0.00  0.00    -0.219 OA
BRANCH   6   8
ATOM      8  C   UNL     1      28.976  13.418   1.113  0.00  0.00    +0.212 C 
ATOM      9  O   UNL     1      28.210  14.603   1.385  0.00  0.00    -0.218 OA
BRANCH   8  10
ATOM     10  C   UNL     1      28.386  12.722  -0.173  0.00  0.00    +0.171 C 
ATOM     11  O   UNL     1      28.372  13.584  -1.305  0.00  0.00    -0.343 OA
ATOM     12  C   UNL     1      27.690  13.314  -2.494  0.00  0.00    +0.220 C 
ATOM     13  C   UNL     1      26.225  12.923  -2.235  0.00  0.00    +0.076 C 
ATOM     14  C   UNL     1      26.226  11.774  -1.213  0.00  0.00    +0.177 C 
ATOM     15  O   UNL     1      24.894  11.346  -0.967  0.00  0.00    -0.221 OA
ATOM     16  C   UNL     1      26.929  12.227   0.104  0.00  0.00    +0.155 C 
BRANCH  16  17
ATOM     17  N   UNL     1      26.926  11.140   1.080  0.00  0.00    -0.202 NA
ATOM     18  C   UNL     1      26.352  11.078   2.309  0.00  0.00    +0.242 C 
ATOM     19  C   UNL     1      26.251   9.735   2.984  0.00  0.00    +0.096 C 
ATOM     20  O   UNL     1      25.932  12.106   2.835  0.00  0.00    -0.273 OA
ENDBRANCH  16  17
BRANCH  12  21
ATOM     21  C   UNL     1      28.441  12.224  -3.437  0.00  0.00    +0.391 C 
ATOM     22  O   UNL     1      27.571  11.970  -4.434  0.00  0.00    -0.243 OA
ATOM     23  O   UNL     1      29.722  12.220  -3.049  0.00  0.00    -0.243 OA
ENDBRANCH  12  21
ENDBRANCH   8  10
ENDBRANCH   6   8
ENDBRANCH   5   6
ENDBRANCH   2   5
BRANCH   1  24
ATOM     24  O   UNL     1      28.799  16.841  -1.298  0.00  0.00    -0.450 OA
BRANCH  24  25
ATOM     25  C   UNL     1      27.498  17.193  -1.708  0.00  0.00    +0.240 C 
BRANCH  25  26
ATOM     26  C   UNL     1      27.253  17.372  -3.218  0.00  0.00    +0.100 C 
BRANCH  26  28
ATOM     27  N   UNL     1      26.259  15.853  -4.897  0.00  0.00    -0.134 NA
ATOM     28  C   UNL     1      26.181  16.468  -3.676  0.00  0.00    +0.086 A 
ATOM     29  C   UNL     1      25.011  16.091  -3.055  0.00  0.00    +0.133 A 
ATOM     30  N   UNL     1      24.413  15.263  -3.957  0.00  0.00    -0.250 N 
ATOM     31  N   UNL     1      25.167  15.121  -5.062  0.00  0.00    -0.065 NA
BRANCH  30  32
ATOM     32  C   UNL     1      23.155  14.559  -3.829  0.00  0.00    +0.162 C 
BRANCH  32  33
ATOM     33  C   UNL     1      22.501  14.708  -2.451  0.00  0.00    +0.129 C 
BRANCH  33  34
ATOM     34  N   UNL     1      22.568  13.472  -1.618  0.00  0.00    -0.193 NA
ATOM     35  H   UNL     1      23.254  13.584  -0.862  0.00  0.00    +0.148 HD
BRANCH  34  36
ATOM     36  S   UNL     1      21.093  12.858  -1.080  0.00  0.00    +0.027 S 
ATOM     37  O   UNL     1      20.323  13.983  -0.599  0.00  0.00    -0.158 OA
ATOM     38  O   UNL     1      20.581  11.982  -2.111  0.00  0.00    -0.158 OA
ATOM     39  C   UNL     1      21.600  11.888   0.321  0.00  0.00    +0.214 C 
ENDBRANCH  34  36
ENDBRANCH  33  34
ENDBRANCH  32  33
ENDBRANCH  30  32
ENDBRANCH  26  28
ENDBRANCH  25  26
ENDBRANCH  24  25
ENDBRANCH   1  24
TORSDOF 14
