REMARK VINA RESULT:    -6.814      2.791      7.963
REMARK INTER + INTRA:         -12.981
REMARK INTER:                 -10.805
REMARK INTRA:                  -2.176
REMARK UNBOUND:                -1.188
REMARK  Name = lig_assembled_35.pdb
REMARK  14 active torsions:
REMARK  status: ('A' for Active; 'I' for Inactive)
REMARK    1  A    between atoms: _2  and  _8
REMARK    2  A    between atoms: _4  and  _8
REMARK    3  A    between atoms: _4  and  _10
REMARK    4  A    between atoms: _5  and  _6
REMARK    5  A    between atoms: _5  and  _12
REMARK    6  A    between atoms: _8  and  _9
REMARK    7  A    between atoms: _12  and  _14
REMARK    8  A    between atoms: _13  and  _18
REMARK    9  A    between atoms: _14  and  _17
REMARK   10  A    between atoms: _22  and  _32
REMARK   11  A    between atoms: _24  and  _25
REMARK   12  A    between atoms: _26  and  _28
REMARK   13  A    between atoms: _28  and  _30
REMARK   14  A    between atoms: _30  and  _32
REMARK                            x       y       z     vdW  Elec       q    Type
REMARK                         _______ _______ _______ _____ _____    ______ ____
ROOT
ATOM      1  C   UNL     1      27.036  14.339  -1.955  0.00  0.00    +0.152 C 
ENDROOT
BRANCH   1   3
ATOM      2  C   UNL     1      27.110  16.972  -2.665  0.00  0.00    +0.400 C 
ATOM      3  N   UNL     1      26.741  15.657  -2.511  0.00  0.00    -0.278 N 
ATOM      4  H   UNL     1      25.831  15.588  -3.067  0.00  0.00    +0.152 HD
ATOM      5  O   UNL     1      26.489  17.657  -3.474  0.00  0.00    -0.226 OA
BRANCH   2   6
ATOM      6  O   UNL     1      28.073  17.376  -1.904  0.00  0.00    -0.450 OA
BRANCH   6   7
ATOM      7  C   UNL     1      28.376  17.490  -0.533  0.00  0.00    +0.240 C 
BRANCH   7   8
ATOM      8  C   UNL     1      29.854  17.687  -0.145  0.00  0.00    +0.100 C 
BRANCH   8  10
ATOM      9  N   UNL     1      30.347  15.297  -0.555  0.00  0.00    -0.134 NA
ATOM     10  C   UNL     1      30.455  16.400   0.250  0.00  0.00    +0.086 A 
ATOM     11  C   UNL     1      31.168  16.062   1.379  0.00  0.00    +0.134 A 
ATOM     12  N   UNL     1      31.477  14.747   1.195  0.00  0.00    -0.238 N 
ATOM     13  N   UNL     1      30.962  14.286   0.041  0.00  0.00    -0.065 NA
BRANCH  12  14
ATOM     14  C   UNL     1      32.215  13.839   2.051  0.00  0.00    +0.214 C 
ATOM     15  C   UNL     1      31.427  12.555   2.295  0.00  0.00    +0.045 C 
BRANCH  14  16
ATOM     16  C   UNL     1      33.601  13.564   1.504  0.00  0.00    +0.329 C 
ATOM     17  O   UNL     1      34.384  12.752   1.979  0.00  0.00    -0.249 OA
BRANCH  16  18
ATOM     18  O   UNL     1      33.940  14.322   0.432  0.00  0.00    -0.479 OA
ATOM     19  H   UNL     1      34.694  14.931   0.563  0.00  0.00    +0.295 HD
ENDBRANCH  16  18
ENDBRANCH  14  16
ENDBRANCH  12  14
ENDBRANCH   8  10
ENDBRANCH   7   8
ENDBRANCH   6   7
ENDBRANCH   2   6
ENDBRANCH   1   3
BRANCH   1  20
ATOM     20  C   UNL     1      25.933  13.272  -2.111  0.00  0.00    +0.193 C 
ATOM     21  O   UNL     1      25.953  12.853  -3.494  0.00  0.00    -0.219 OA
BRANCH  20  22
ATOM     22  C   UNL     1      26.086  11.962  -1.309  0.00  0.00    +0.212 C 
ATOM     23  O   UNL     1      27.285  11.272  -1.698  0.00  0.00    -0.218 OA
BRANCH  22  24
ATOM     24  C   UNL     1      26.117  12.185   0.251  0.00  0.00    +0.171 C 
ATOM     25  O   UNL     1      27.354  11.792   0.836  0.00  0.00    -0.343 OA
ATOM     26  C   UNL     1      27.567  11.653   2.210  0.00  0.00    +0.220 C 
ATOM     27  C   UNL     1      26.485  10.781   2.870  0.00  0.00    +0.076 C 
ATOM     28  C   UNL     1      25.118  11.369   2.484  0.00  0.00    +0.177 C 
ATOM     29  O   UNL     1      24.080  10.622   3.102  0.00  0.00    -0.221 OA
ATOM     30  C   UNL     1      24.958  11.383   0.931  0.00  0.00    +0.155 C 
BRANCH  30  31
ATOM     31  N   UNL     1      23.658  11.935   0.560  0.00  0.00    -0.202 NA
ATOM     32  C   UNL     1      22.571  11.316   0.033  0.00  0.00    +0.242 C 
ATOM     33  C   UNL     1      21.260  12.058   0.021  0.00  0.00    +0.096 C 
ATOM     34  O   UNL     1      22.679  10.176  -0.415  0.00  0.00    -0.273 OA
ENDBRANCH  30  31
BRANCH  26  35
ATOM     35  C   UNL     1      27.746  13.070   2.984  0.00  0.00    +0.391 C 
ATOM     36  O   UNL     1      27.742  12.754   4.293  0.00  0.00    -0.243 OA
ATOM     37  O   UNL     1      28.125  13.954   2.053  0.00  0.00    -0.243 OA
ENDBRANCH  26  35
ENDBRANCH  22  24
ENDBRANCH  20  22
ENDBRANCH   1  20
TORSDOF 13
