REMARK VINA RESULT:    -7.010      1.566      3.632
REMARK INTER + INTRA:         -13.335
REMARK INTER:                 -12.057
REMARK INTRA:                  -1.278
REMARK UNBOUND:                -1.407
REMARK  Name = lig_assembled_82.pdb
REMARK  14 active torsions:
REMARK  status: ('A' for Active; 'I' for Inactive)
REMARK    1  A    between atoms: _2  and  _8
REMARK    2  A    between atoms: _4  and  _15
REMARK    3  A    between atoms: _5  and  _6
REMARK    4  A    between atoms: _5  and  _17
REMARK    5  A    between atoms: _8  and  _9
REMARK    6  A    between atoms: _15  and  _16
REMARK    7  A    between atoms: _17  and  _19
REMARK    8  A    between atoms: _18  and  _23
REMARK    9  A    between atoms: _19  and  _22
REMARK   10  A    between atoms: _27  and  _37
REMARK   11  A    between atoms: _29  and  _30
REMARK   12  A    between atoms: _31  and  _33
REMARK   13  A    between atoms: _33  and  _35
REMARK   14  A    between atoms: _35  and  _37
REMARK                            x       y       z     vdW  Elec       q    Type
REMARK                         _______ _______ _______ _____ _____    ______ ____
ROOT
ATOM      1  C   UNL     1      28.138  17.458  -0.722  0.00  0.00    +0.400 C 
ATOM      2  N   UNL     1      29.160  16.868  -0.016  0.00  0.00    -0.278 N 
ATOM      3  H   UNL     1      29.312  17.535   0.804  0.00  0.00    +0.152 HD
ATOM      4  O   UNL     1      27.556  18.412  -0.210  0.00  0.00    -0.226 OA
ENDROOT
BRANCH   2   5
ATOM      5  C   UNL     1      30.099  15.757   0.119  0.00  0.00    +0.152 C 
BRANCH   5   6
ATOM      6  C   UNL     1      29.602  14.541   0.927  0.00  0.00    +0.193 C 
ATOM      7  O   UNL     1      28.552  13.926   0.148  0.00  0.00    -0.219 OA
BRANCH   6   8
ATOM      8  C   UNL     1      30.607  13.398   1.191  0.00  0.00    +0.212 C 
ATOM      9  O   UNL     1      30.008  12.126   0.894  0.00  0.00    -0.218 OA
BRANCH   8  10
ATOM     10  C   UNL     1      31.939  13.535   0.360  0.00  0.00    +0.171 C 
ATOM     11  O   UNL     1      31.853  12.914  -0.919  0.00  0.00    -0.343 OA
ATOM     12  C   UNL     1      32.948  12.673  -1.753  0.00  0.00    +0.220 C 
ATOM     13  C   UNL     1      34.088  11.960  -1.006  0.00  0.00    +0.076 C 
ATOM     14  C   UNL     1      34.403  12.785   0.253  0.00  0.00    +0.177 C 
ATOM     15  O   UNL     1      35.481  12.189   0.962  0.00  0.00    -0.221 OA
ATOM     16  C   UNL     1      33.132  12.903   1.150  0.00  0.00    +0.155 C 
BRANCH  16  17
ATOM     17  N   UNL     1      33.429  13.680   2.351  0.00  0.00    -0.202 NA
ATOM     18  C   UNL     1      33.674  13.260   3.618  0.00  0.00    +0.242 C 
ATOM     19  C   UNL     1      34.242  14.248   4.602  0.00  0.00    +0.096 C 
ATOM     20  O   UNL     1      33.431  12.095   3.929  0.00  0.00    -0.273 OA
ENDBRANCH  16  17
BRANCH  12  21
ATOM     21  C   UNL     1      33.478  14.001  -2.525  0.00  0.00    +0.391 C 
ATOM     22  O   UNL     1      33.073  15.032  -1.759  0.00  0.00    -0.243 OA
ATOM     23  O   UNL     1      34.354  13.571  -3.441  0.00  0.00    -0.243 OA
ENDBRANCH  12  21
ENDBRANCH   8  10
ENDBRANCH   6   8
ENDBRANCH   5   6
ENDBRANCH   2   5
BRANCH   1  24
ATOM     24  O   UNL     1      27.905  16.961  -1.892  0.00  0.00    -0.450 OA
BRANCH  24  25
ATOM     25  C   UNL     1      27.368  17.356  -3.133  0.00  0.00    +0.240 C 
BRANCH  25  26
ATOM     26  C   UNL     1      25.970  16.825  -3.503  0.00  0.00    +0.100 C 
BRANCH  26  28
ATOM     27  N   UNL     1      26.521  14.590  -4.409  0.00  0.00    -0.134 NA
ATOM     28  C   UNL     1      25.931  15.361  -3.436  0.00  0.00    +0.086 A 
ATOM     29  C   UNL     1      25.354  14.521  -2.501  0.00  0.00    +0.134 A 
ATOM     30  N   UNL     1      25.515  13.271  -3.031  0.00  0.00    -0.247 N 
ATOM     31  N   UNL     1      26.293  13.315  -4.129  0.00  0.00    -0.065 NA
BRANCH  30  32
ATOM     32  C   UNL     1      24.892  12.014  -2.609  0.00  0.00    +0.176 C 
BRANCH  32  33
ATOM     33  C   UNL     1      23.385  12.070  -2.655  0.00  0.00    -0.049 C 
ATOM     34  C   UNL     1      22.636  11.687  -1.418  0.00  0.00    +0.023 C 
ATOM     35  C   UNL     1      21.294  12.476  -1.069  0.00  0.00    -0.025 C 
ATOM     36  C   UNL     1      20.890  13.936  -1.309  0.00  0.00    +0.012 C 
ATOM     37  C   UNL     1      20.712  11.564  -2.247  0.00  0.00    -0.000 C 
ATOM     38  C   UNL     1      21.121  12.018  -3.684  0.00  0.00    +0.031 C 
ATOM     39  C   UNL     1      21.100  12.225   0.448  0.00  0.00    +0.012 C 
ATOM     40  C   UNL     1      21.685  10.466  -1.743  0.00  0.00    +0.012 C 
ATOM     41  C   UNL     1      22.620  12.260  -3.748  0.00  0.00    -0.025 C 
ENDBRANCH  32  33
ENDBRANCH  30  32
ENDBRANCH  26  28
ENDBRANCH  25  26
ENDBRANCH  24  25
ENDBRANCH   1  24
TORSDOF 12
