REMARK VINA RESULT:    -6.750      1.549      3.200
REMARK INTER + INTRA:         -15.392
REMARK INTER:                 -13.352
REMARK INTRA:                  -2.040
REMARK UNBOUND:                -3.117
REMARK  Name = lig_assembled_9.pdb
REMARK  15 active torsions:
REMARK  status: ('A' for Active; 'I' for Inactive)
REMARK    1  A    between atoms: _2  and  _8
REMARK    2  A    between atoms: _5  and  _6
REMARK    3  A    between atoms: _5  and  _18
REMARK    4  A    between atoms: _10  and  _11
REMARK    5  A    between atoms: _11  and  _16
REMARK    6  A    between atoms: _12  and  _13
REMARK    7  A    between atoms: _12  and  _16
REMARK    8  A    between atoms: _18  and  _20
REMARK    9  A    between atoms: _19  and  _24
REMARK   10  A    between atoms: _20  and  _23
REMARK   11  A    between atoms: _28  and  _38
REMARK   12  A    between atoms: _30  and  _31
REMARK   13  A    between atoms: _32  and  _34
REMARK   14  A    between atoms: _34  and  _36
REMARK   15  A    between atoms: _36  and  _38
REMARK                            x       y       z     vdW  Elec       q    Type
REMARK                         _______ _______ _______ _____ _____    ______ ____
ROOT
ATOM      1  C   UNL     1      28.574  16.902  -0.511  0.00  0.00    +0.400 C 
ATOM      2  N   UNL     1      28.695  15.781   0.276  0.00  0.00    -0.278 N 
ATOM      3  H   UNL     1      29.443  16.057   0.987  0.00  0.00    +0.152 HD
ATOM      4  O   UNL     1      29.145  17.928  -0.149  0.00  0.00    -0.226 OA
ENDROOT
BRANCH   2   5
ATOM      5  C   UNL     1      28.260  14.419   0.577  0.00  0.00    +0.152 C 
BRANCH   5   6
ATOM      6  C   UNL     1      28.643  13.876   1.969  0.00  0.00    +0.193 C 
ATOM      7  O   UNL     1      27.466  13.228   2.500  0.00  0.00    -0.219 OA
BRANCH   6   8
ATOM      8  C   UNL     1      29.742  12.793   2.036  0.00  0.00    +0.212 C 
ATOM      9  O   UNL     1      29.345  11.628   1.294  0.00  0.00    -0.218 OA
BRANCH   8  10
ATOM     10  C   UNL     1      31.138  13.285   1.492  0.00  0.00    +0.171 C 
ATOM     11  O   UNL     1      31.258  13.140   0.081  0.00  0.00    -0.343 OA
ATOM     12  C   UNL     1      32.456  13.267  -0.625  0.00  0.00    +0.220 C 
ATOM     13  C   UNL     1      33.574  12.407  -0.009  0.00  0.00    +0.076 C 
ATOM     14  C   UNL     1      33.662  12.763   1.484  0.00  0.00    +0.177 C 
ATOM     15  O   UNL     1      34.710  12.023   2.094  0.00  0.00    -0.221 OA
ATOM     16  C   UNL     1      32.294  12.490   2.183  0.00  0.00    +0.155 C 
BRANCH  16  17
ATOM     17  N   UNL     1      32.375  12.820   3.603  0.00  0.00    -0.202 NA
ATOM     18  C   UNL     1      32.197  12.027   4.690  0.00  0.00    +0.242 C 
ATOM     19  C   UNL     1      32.629  12.549   6.036  0.00  0.00    +0.096 C 
ATOM     20  O   UNL     1      31.696  10.913   4.553  0.00  0.00    -0.273 OA
ENDBRANCH  16  17
BRANCH  12  21
ATOM     21  C   UNL     1      32.930  14.808  -0.826  0.00  0.00    +0.391 C 
ATOM     22  O   UNL     1      34.202  14.726  -1.263  0.00  0.00    -0.243 OA
ATOM     23  O   UNL     1      31.815  15.547  -0.776  0.00  0.00    -0.243 OA
ENDBRANCH  12  21
ENDBRANCH   8  10
ENDBRANCH   6   8
ENDBRANCH   5   6
ENDBRANCH   2   5
BRANCH   1  24
ATOM     24  O   UNL     1      27.883  16.754  -1.593  0.00  0.00    -0.450 OA
BRANCH  24  25
ATOM     25  C   UNL     1      27.134  17.533  -2.496  0.00  0.00    +0.240 C 
BRANCH  25  26
ATOM     26  C   UNL     1      26.316  16.788  -3.569  0.00  0.00    +0.100 C 
BRANCH  26  28
ATOM     27  N   UNL     1      26.300  14.427  -2.828  0.00  0.00    -0.134 NA
ATOM     28  C   UNL     1      25.647  15.616  -2.977  0.00  0.00    +0.086 A 
ATOM     29  C   UNL     1      24.366  15.488  -2.494  0.00  0.00    +0.139 A 
ATOM     30  N   UNL     1      24.292  14.198  -2.017  0.00  0.00    -0.220 N 
ATOM     31  N   UNL     1      25.468  13.569  -2.251  0.00  0.00    -0.061 NA
BRANCH  30  32
ATOM     32  C   UNL     1      23.217  13.561  -1.348  0.00  0.00    +0.068 A 
ATOM     33  C   UNL     1      23.457  12.492  -0.474  0.00  0.00    +0.042 A 
ATOM     34  C   UNL     1      22.387  11.842   0.162  0.00  0.00    +0.061 A 
ATOM     35  C   UNL     1      21.076  12.270  -0.078  0.00  0.00    +0.015 A 
ATOM     36  C   UNL     1      20.835  13.343  -0.938  0.00  0.00    +0.003 A 
ATOM     37  C   UNL     1      21.900  13.988  -1.571  0.00  0.00    +0.028 A 
BRANCH  34  38
ATOM     38  C   UNL     1      22.603  10.745   1.141  0.00  0.00    +0.339 C 
ATOM     39  O   UNL     1      21.731  10.310   1.875  0.00  0.00    -0.245 OA
BRANCH  38  40
ATOM     40  O   UNL     1      23.912  10.392   1.153  0.00  0.00    -0.461 OA
BRANCH  40  41
ATOM     41  C   UNL     1      24.261   9.344   2.067  0.00  0.00    +0.229 C 
ATOM     42  C   UNL     1      25.239   9.910   3.080  0.00  0.00    +0.048 C 
ENDBRANCH  40  41
ENDBRANCH  38  40
ENDBRANCH  34  38
ENDBRANCH  30  32
ENDBRANCH  26  28
ENDBRANCH  25  26
ENDBRANCH  24  25
ENDBRANCH   1  24
TORSDOF 14
