REMARK VINA RESULT:    -6.799      1.657      2.104
REMARK INTER + INTRA:         -13.397
REMARK INTER:                 -11.989
REMARK INTRA:                  -1.408
REMARK UNBOUND:                -1.431
REMARK  Name = lig_assembled_36.pdb
REMARK  13 active torsions:
REMARK  status: ('A' for Active; 'I' for Inactive)
REMARK    1  A    between atoms: _2  and  _9
REMARK    2  A    between atoms: _6  and  _7
REMARK    3  A    between atoms: _6  and  _16
REMARK    4  A    between atoms: _9  and  _10
REMARK    5  A    between atoms: _13  and  _14
REMARK    6  A    between atoms: _16  and  _18
REMARK    7  A    between atoms: _17  and  _22
REMARK    8  A    between atoms: _18  and  _21
REMARK    9  A    between atoms: _26  and  _36
REMARK   10  A    between atoms: _28  and  _29
REMARK   11  A    between atoms: _30  and  _32
REMARK   12  A    between atoms: _32  and  _34
REMARK   13  A    between atoms: _34  and  _36
REMARK                            x       y       z     vdW  Elec       q    Type
REMARK                         _______ _______ _______ _____ _____    ______ ____
ROOT
ATOM      1  C   UNL     1      29.098  17.091  -0.321  0.00  0.00    +0.400 C 
ATOM      2  N   UNL     1      29.261  15.885   0.319  0.00  0.00    -0.278 N 
ATOM      3  H   UNL     1      29.977  16.105   1.082  0.00  0.00    +0.152 HD
ATOM      4  O   UNL     1      29.603  18.089   0.186  0.00  0.00    -0.226 OA
ENDROOT
BRANCH   1   5
ATOM      5  O   UNL     1      28.440  17.049  -1.433  0.00  0.00    -0.450 OA
BRANCH   5   6
ATOM      6  C   UNL     1      27.303  17.633  -2.024  0.00  0.00    +0.240 C 
BRANCH   6   7
ATOM      7  C   UNL     1      27.098  17.419  -3.536  0.00  0.00    +0.100 C 
BRANCH   7   9
ATOM      8  N   UNL     1      25.966  15.744  -4.968  0.00  0.00    -0.134 NA
ATOM      9  C   UNL     1      26.051  16.407  -3.771  0.00  0.00    +0.086 A 
ATOM     10  C   UNL     1      25.065  15.945  -2.928  0.00  0.00    +0.134 A 
ATOM     11  N   UNL     1      24.478  14.939  -3.636  0.00  0.00    -0.247 N 
ATOM     12  N   UNL     1      24.983  14.857  -4.880  0.00  0.00    -0.065 NA
BRANCH  11  13
ATOM     13  C   UNL     1      23.455  14.014  -3.191  0.00  0.00    +0.180 C 
BRANCH  13  14
ATOM     14  C   UNL     1      23.882  13.286  -1.936  0.00  0.00    -0.026 A 
ATOM     15  C   UNL     1      25.235  13.202  -1.576  0.00  0.00    +0.007 A 
ATOM     16  C   UNL     1      25.620  12.531  -0.411  0.00  0.00    +0.019 A 
ATOM     17  C   UNL     1      24.659  11.930   0.406  0.00  0.00    +0.052 A 
ATOM     18  C   UNL     1      23.311  11.987   0.042  0.00  0.00    +0.019 A 
ATOM     19  C   UNL     1      22.926  12.657  -1.123  0.00  0.00    +0.007 A 
BRANCH  17  20
ATOM     20  C   UNL     1      25.053  11.260   1.612  0.00  0.00    +0.099 C 
ATOM     21  N   UNL     1      25.371  10.728   2.593  0.00  0.00    -0.191 NA
ENDBRANCH  17  20
ENDBRANCH  13  14
ENDBRANCH  11  13
ENDBRANCH   7   9
ENDBRANCH   6   7
ENDBRANCH   5   6
ENDBRANCH   1   5
BRANCH   2  22
ATOM     22  C   UNL     1      28.894  14.476   0.431  0.00  0.00    +0.152 C 
BRANCH  22  23
ATOM     23  C   UNL     1      29.609  13.508  -0.534  0.00  0.00    +0.193 C 
ATOM     24  O   UNL     1      29.163  13.846  -1.866  0.00  0.00    -0.219 OA
BRANCH  23  25
ATOM     25  C   UNL     1      31.150  13.585  -0.612  0.00  0.00    +0.212 C 
ATOM     26  O   UNL     1      31.570  14.918  -0.943  0.00  0.00    -0.218 OA
BRANCH  25  27
ATOM     27  C   UNL     1      31.865  13.148   0.723  0.00  0.00    +0.171 C 
ATOM     28  O   UNL     1      31.516  13.976   1.827  0.00  0.00    -0.343 OA
ATOM     29  C   UNL     1      32.178  13.970   3.057  0.00  0.00    +0.220 C 
ATOM     30  C   UNL     1      33.701  14.103   2.886  0.00  0.00    +0.076 C 
ATOM     31  C   UNL     1      34.153  13.012   1.902  0.00  0.00    +0.177 C 
ATOM     32  O   UNL     1      35.564  13.065   1.738  0.00  0.00    -0.221 OA
ATOM     33  C   UNL     1      33.417  13.181   0.536  0.00  0.00    +0.155 C 
BRANCH  33  34
ATOM     34  N   UNL     1      33.849  12.150  -0.404  0.00  0.00    -0.202 NA
ATOM     35  C   UNL     1      34.475  12.275  -1.601  0.00  0.00    +0.242 C 
ATOM     36  C   UNL     1      35.072  11.042  -2.229  0.00  0.00    +0.096 C 
ATOM     37  O   UNL     1      34.542  13.378  -2.140  0.00  0.00    -0.273 OA
ENDBRANCH  33  34
BRANCH  29  38
ATOM     38  C   UNL     1      31.792  12.700   3.994  0.00  0.00    +0.391 C 
ATOM     39  O   UNL     1      30.752  12.112   3.370  0.00  0.00    -0.243 OA
ATOM     40  O   UNL     1      32.814  12.542   4.843  0.00  0.00    -0.243 OA
ENDBRANCH  29  38
ENDBRANCH  25  27
ENDBRANCH  23  25
ENDBRANCH  22  23
ENDBRANCH   2  22
TORSDOF 13
