REMARK VINA RESULT:    -6.636      1.949      2.443
REMARK INTER + INTRA:         -13.862
REMARK INTER:                 -11.212
REMARK INTRA:                  -2.650
REMARK UNBOUND:                -1.794
REMARK  Name = lig_assembled_18.pdb
REMARK  14 active torsions:
REMARK  status: ('A' for Active; 'I' for Inactive)
REMARK    1  A    between atoms: _2  and  _9
REMARK    2  A    between atoms: _3  and  _11
REMARK    3  A    between atoms: _6  and  _7
REMARK    4  A    between atoms: _6  and  _16
REMARK    5  A    between atoms: _9  and  _10
REMARK    6  A    between atoms: _11  and  _12
REMARK    7  A    between atoms: _16  and  _18
REMARK    8  A    between atoms: _17  and  _22
REMARK    9  A    between atoms: _18  and  _21
REMARK   10  A    between atoms: _26  and  _36
REMARK   11  A    between atoms: _28  and  _29
REMARK   12  A    between atoms: _30  and  _32
REMARK   13  A    between atoms: _32  and  _34
REMARK   14  A    between atoms: _34  and  _36
REMARK                            x       y       z     vdW  Elec       q    Type
REMARK                         _______ _______ _______ _____ _____    ______ ____
ROOT
ATOM      1  C   UNL     1      27.620  17.594  -1.729  0.00  0.00    +0.400 C 
ATOM      2  N   UNL     1      28.027  16.516  -0.980  0.00  0.00    -0.278 N 
ATOM      3  H   UNL     1      28.256  16.947  -0.029  0.00  0.00    +0.152 HD
ATOM      4  O   UNL     1      27.443  18.665  -1.154  0.00  0.00    -0.226 OA
ENDROOT
BRANCH   2   5
ATOM      5  C   UNL     1      28.266  15.077  -0.897  0.00  0.00    +0.152 C 
BRANCH   5   6
ATOM      6  C   UNL     1      29.202  14.607   0.234  0.00  0.00    +0.193 C 
ATOM      7  O   UNL     1      29.226  13.164   0.182  0.00  0.00    -0.219 OA
BRANCH   6   8
ATOM      8  C   UNL     1      30.689  15.020   0.150  0.00  0.00    +0.212 C 
ATOM      9  O   UNL     1      30.850  16.396   0.531  0.00  0.00    -0.218 OA
BRANCH   8  10
ATOM     10  C   UNL     1      31.634  14.134   1.048  0.00  0.00    +0.171 C 
ATOM     11  O   UNL     1      31.839  14.690   2.342  0.00  0.00    -0.343 OA
ATOM     12  C   UNL     1      32.810  14.250   3.245  0.00  0.00    +0.220 C 
ATOM     13  C   UNL     1      34.200  14.166   2.590  0.00  0.00    +0.076 C 
ATOM     14  C   UNL     1      34.062  13.310   1.320  0.00  0.00    +0.177 C 
ATOM     15  O   UNL     1      35.330  13.167   0.696  0.00  0.00    -0.221 OA
ATOM     16  C   UNL     1      33.022  13.953   0.350  0.00  0.00    +0.155 C 
BRANCH  16  17
ATOM     17  N   UNL     1      32.893  13.147  -0.862  0.00  0.00    -0.202 NA
ATOM     18  C   UNL     1      33.125  13.483  -2.156  0.00  0.00    +0.242 C 
ATOM     19  C   UNL     1      33.199  12.380  -3.179  0.00  0.00    +0.096 C 
ATOM     20  O   UNL     1      33.268  14.666  -2.460  0.00  0.00    -0.273 OA
ENDBRANCH  16  17
BRANCH  12  21
ATOM     21  C   UNL     1      32.417  12.863   3.993  0.00  0.00    +0.391 C 
ATOM     22  O   UNL     1      33.554  12.456   4.591  0.00  0.00    -0.243 OA
ATOM     23  O   UNL     1      31.079  12.807   3.990  0.00  0.00    -0.243 OA
ENDBRANCH  12  21
ENDBRANCH   8  10
ENDBRANCH   6   8
ENDBRANCH   5   6
ENDBRANCH   2   5
BRANCH   1  24
ATOM     24  O   UNL     1      27.491  17.378  -2.997  0.00  0.00    -0.450 OA
BRANCH  24  25
ATOM     25  C   UNL     1      26.699  16.614  -3.876  0.00  0.00    +0.240 C 
BRANCH  25  26
ATOM     26  C   UNL     1      25.184  16.560  -3.602  0.00  0.00    +0.100 C 
BRANCH  26  28
ATOM     27  N   UNL     1      23.773  15.203  -2.080  0.00  0.00    -0.134 NA
ATOM     28  C   UNL     1      24.825  15.284  -2.954  0.00  0.00    +0.086 A 
ATOM     29  C   UNL     1      25.407  14.042  -3.072  0.00  0.00    +0.134 A 
ATOM     30  N   UNL     1      24.647  13.243  -2.271  0.00  0.00    -0.243 N 
ATOM     31  N   UNL     1      23.679  13.948  -1.658  0.00  0.00    -0.065 NA
BRANCH  30  32
ATOM     32  C   UNL     1      24.841  11.850  -1.941  0.00  0.00    +0.240 C 
BRANCH  32  33
ATOM     33  C   UNL     1      25.782  11.664  -0.775  0.00  0.00    +0.235 C 
ATOM     34  O   UNL     1      26.873  11.107  -0.894  0.00  0.00    -0.274 OA
ATOM     35  N   UNL     1      25.356  12.216   0.418  0.00  0.00    -0.309 N 
ATOM     36  H   UNL     1      24.397  12.516   0.525  0.00  0.00    +0.149 HD
BRANCH  35  37
ATOM     37  C   UNL     1      26.159  12.131   1.620  0.00  0.00    +0.146 C 
BRANCH  37  38
ATOM     38  C   UNL     1      25.754  10.931   2.412  0.00  0.00    +0.007 A 
ATOM     39  S   UNL     1      24.116  10.689   2.855  0.00  0.00    -0.100 S 
ATOM     40  C   UNL     1      24.494   9.260   3.718  0.00  0.00    +0.045 A 
ATOM     41  C   UNL     1      25.837   8.960   3.660  0.00  0.00    +0.008 A 
ATOM     42  C   UNL     1      26.563   9.921   2.899  0.00  0.00    +0.013 A 
ENDBRANCH  37  38
ENDBRANCH  35  37
ENDBRANCH  32  33
ENDBRANCH  30  32
ENDBRANCH  26  28
ENDBRANCH  25  26
ENDBRANCH  24  25
ENDBRANCH   1  24
TORSDOF 14
