REMARK VINA RESULT:    -6.351      3.104      8.459
REMARK INTER + INTRA:         -12.698
REMARK INTER:                 -10.926
REMARK INTRA:                  -1.772
REMARK UNBOUND:                -2.263
REMARK  Name = lig_assembled_52.pdb
REMARK  11 active torsions:
REMARK  status: ('A' for Active; 'I' for Inactive)
REMARK    1  A    between atoms: _2  and  _9
REMARK    2  A    between atoms: _6  and  _7
REMARK    3  A    between atoms: _6  and  _13
REMARK    4  A    between atoms: _13  and  _15
REMARK    5  A    between atoms: _14  and  _19
REMARK    6  A    between atoms: _15  and  _18
REMARK    7  A    between atoms: _23  and  _33
REMARK    8  A    between atoms: _25  and  _26
REMARK    9  A    between atoms: _27  and  _29
REMARK   10  A    between atoms: _29  and  _31
REMARK   11  A    between atoms: _31  and  _33
REMARK                            x       y       z     vdW  Elec       q    Type
REMARK                         _______ _______ _______ _____ _____    ______ ____
ROOT
ATOM      1  C   UNL     1      27.896  14.699  -1.615  0.00  0.00    +0.152 C 
ENDROOT
BRANCH   1   3
ATOM      2  C   UNL     1      28.509  17.115  -0.505  0.00  0.00    +0.400 C 
ATOM      3  N   UNL     1      27.842  15.996  -0.946  0.00  0.00    -0.278 N 
ATOM      4  H   UNL     1      26.827  16.191  -0.675  0.00  0.00    +0.152 HD
ATOM      5  O   UNL     1      27.842  18.071  -0.117  0.00  0.00    -0.226 OA
BRANCH   2   6
ATOM      6  O   UNL     1      29.799  17.038  -0.515  0.00  0.00    -0.450 OA
BRANCH   6   7
ATOM      7  C   UNL     1      30.843  16.496   0.261  0.00  0.00    +0.240 C 
BRANCH   7   8
ATOM      8  C   UNL     1      31.563  15.250  -0.289  0.00  0.00    +0.100 C 
BRANCH   8  10
ATOM      9  N   UNL     1      32.799  13.302   0.604  0.00  0.00    -0.134 NA
ATOM     10  C   UNL     1      31.970  14.365   0.818  0.00  0.00    +0.086 A 
ATOM     11  C   UNL     1      31.644  14.416   2.154  0.00  0.00    +0.140 A 
ATOM     12  N   UNL     1      32.322  13.364   2.727  0.00  0.00    -0.218 N 
ATOM     13  N   UNL     1      33.004  12.697   1.765  0.00  0.00    -0.060 NA
BRANCH  12  14
ATOM     14  C   UNL     1      32.368  12.978   4.083  0.00  0.00    +0.085 A 
ATOM     15  C   UNL     1      31.289  12.349   4.711  0.00  0.00    +0.031 A 
ATOM     16  C   UNL     1      31.389  12.013   6.059  0.00  0.00    +0.022 A 
ATOM     17  C   UNL     1      32.561  12.315   6.731  0.00  0.00    +0.111 A 
ATOM     18  N   UNL     1      33.622  12.915   6.152  0.00  0.00    -0.261 NA
ATOM     19  C   UNL     1      33.506  13.235   4.839  0.00  0.00    +0.138 A 
ENDBRANCH  12  14
ENDBRANCH   8  10
ENDBRANCH   7   8
ENDBRANCH   6   7
ENDBRANCH   2   6
ENDBRANCH   1   3
BRANCH   1  20
ATOM     20  C   UNL     1      26.547  14.125  -2.095  0.00  0.00    +0.193 C 
ATOM     21  O   UNL     1      26.670  13.913  -3.519  0.00  0.00    -0.219 OA
BRANCH  20  22
ATOM     22  C   UNL     1      26.114  12.752  -1.536  0.00  0.00    +0.212 C 
ATOM     23  O   UNL     1      26.930  11.706  -2.088  0.00  0.00    -0.218 OA
BRANCH  22  24
ATOM     24  C   UNL     1      26.183  12.668   0.036  0.00  0.00    +0.171 C 
ATOM     25  O   UNL     1      27.469  12.283   0.509  0.00  0.00    -0.343 OA
ATOM     26  C   UNL     1      27.743  11.898   1.823  0.00  0.00    +0.220 C 
ATOM     27  C   UNL     1      26.764  10.820   2.318  0.00  0.00    +0.076 C 
ATOM     28  C   UNL     1      25.339  11.345   2.081  0.00  0.00    +0.177 C 
ATOM     29  O   UNL     1      24.392  10.400   2.559  0.00  0.00    -0.221 OA
ATOM     30  C   UNL     1      25.122  11.648   0.566  0.00  0.00    +0.155 C 
BRANCH  30  31
ATOM     31  N   UNL     1      23.767  12.141   0.336  0.00  0.00    -0.202 NA
ATOM     32  C   UNL     1      22.726  11.551  -0.306  0.00  0.00    +0.242 C 
ATOM     33  C   UNL     1      21.354  12.151  -0.144  0.00  0.00    +0.096 C 
ATOM     34  O   UNL     1      22.925  10.553  -0.996  0.00  0.00    -0.273 OA
ENDBRANCH  30  31
BRANCH  26  35
ATOM     35  C   UNL     1      27.829  13.147   2.858  0.00  0.00    +0.391 C 
ATOM     36  O   UNL     1      27.759  12.590   4.083  0.00  0.00    -0.243 OA
ATOM     37  O   UNL     1      28.232  14.200   2.136  0.00  0.00    -0.243 OA
ENDBRANCH  26  35
ENDBRANCH  22  24
ENDBRANCH  20  22
ENDBRANCH   1  20
TORSDOF 11
