REMARK VINA RESULT:    -6.881      3.100      7.731
REMARK INTER + INTRA:         -13.081
REMARK INTER:                 -10.820
REMARK INTRA:                  -2.261
REMARK UNBOUND:                -1.775
REMARK  Name = lig_assembled_42.pdb
REMARK  11 active torsions:
REMARK  status: ('A' for Active; 'I' for Inactive)
REMARK    1  A    between atoms: _2  and  _8
REMARK    2  A    between atoms: _5  and  _6
REMARK    3  A    between atoms: _5  and  _16
REMARK    4  A    between atoms: _16  and  _18
REMARK    5  A    between atoms: _17  and  _22
REMARK    6  A    between atoms: _18  and  _21
REMARK    7  A    between atoms: _26  and  _36
REMARK    8  A    between atoms: _28  and  _29
REMARK    9  A    between atoms: _30  and  _32
REMARK   10  A    between atoms: _32  and  _34
REMARK   11  A    between atoms: _34  and  _36
REMARK                            x       y       z     vdW  Elec       q    Type
REMARK                         _______ _______ _______ _____ _____    ______ ____
ROOT
ATOM      1  C   UNL     1      28.816  16.819  -0.448  0.00  0.00    +0.400 C 
ATOM      2  N   UNL     1      27.750  16.676  -1.305  0.00  0.00    -0.278 N 
ATOM      3  H   UNL     1      27.344  17.663  -1.362  0.00  0.00    +0.152 HD
ATOM      4  O   UNL     1      29.150  17.956  -0.124  0.00  0.00    -0.226 OA
ENDROOT
BRANCH   1   5
ATOM      5  O   UNL     1      29.353  15.719  -0.034  0.00  0.00    -0.450 OA
BRANCH   5   6
ATOM      6  C   UNL     1      30.536  15.276   0.589  0.00  0.00    +0.240 C 
BRANCH   6   7
ATOM      7  C   UNL     1      30.552  13.839   1.145  0.00  0.00    +0.100 C 
BRANCH   7   9
ATOM      8  N   UNL     1      28.740  13.772   2.840  0.00  0.00    -0.134 NA
ATOM      9  C   UNL     1      29.206  13.445   1.599  0.00  0.00    +0.086 A 
ATOM     10  C   UNL     1      28.238  12.734   0.932  0.00  0.00    +0.139 A 
ATOM     11  N   UNL     1      27.184  12.649   1.810  0.00  0.00    -0.220 N 
ATOM     12  N   UNL     1      27.511  13.286   2.962  0.00  0.00    -0.061 NA
BRANCH  11  13
ATOM     13  C   UNL     1      25.930  12.014   1.620  0.00  0.00    +0.071 A 
ATOM     14  C   UNL     1      25.285  12.092   0.376  0.00  0.00    +0.077 A 
ATOM     15  C   UNL     1      24.069  11.458   0.242  0.00  0.00    +0.168 A 
ATOM     16  O   UNL     1      23.320  11.434  -0.892  0.00  0.00    -0.453 OA
ATOM     17  C   UNL     1      22.197  10.642  -0.456  0.00  0.00    +0.466 C 
ATOM     18  O   UNL     1      22.294  10.220   0.922  0.00  0.00    -0.453 OA
ATOM     19  C   UNL     1      23.487  10.766   1.276  0.00  0.00    +0.166 A 
ATOM     20  C   UNL     1      24.090  10.670   2.512  0.00  0.00    +0.051 A 
ATOM     21  C   UNL     1      25.329  11.302   2.685  0.00  0.00    +0.031 A 
ENDBRANCH  11  13
ENDBRANCH   7   9
ENDBRANCH   6   7
ENDBRANCH   5   6
ENDBRANCH   1   5
BRANCH   2  22
ATOM     22  C   UNL     1      26.952  15.804  -2.163  0.00  0.00    +0.152 C 
BRANCH  22  23
ATOM     23  C   UNL     1      26.149  16.501  -3.281  0.00  0.00    +0.193 C 
ATOM     24  O   UNL     1      27.069  17.375  -3.970  0.00  0.00    -0.219 OA
BRANCH  23  25
ATOM     25  C   UNL     1      25.555  15.611  -4.395  0.00  0.00    +0.212 C 
ATOM     26  O   UNL     1      26.391  15.644  -5.563  0.00  0.00    -0.218 OA
BRANCH  25  27
ATOM     27  C   UNL     1      25.359  14.109  -3.957  0.00  0.00    +0.171 C 
ATOM     28  O   UNL     1      26.331  13.241  -4.531  0.00  0.00    -0.343 OA
ATOM     29  C   UNL     1      26.251  11.846  -4.511  0.00  0.00    +0.220 C 
ATOM     30  C   UNL     1      24.883  11.346  -5.006  0.00  0.00    +0.076 C 
ATOM     31  C   UNL     1      23.801  12.068  -4.186  0.00  0.00    +0.177 C 
ATOM     32  O   UNL     1      22.514  11.611  -4.577  0.00  0.00    -0.221 OA
ATOM     33  C   UNL     1      23.933  13.613  -4.364  0.00  0.00    +0.155 C 
BRANCH  33  34
ATOM     34  N   UNL     1      22.903  14.302  -3.592  0.00  0.00    -0.202 NA
ATOM     35  C   UNL     1      21.739  14.864  -4.005  0.00  0.00    +0.242 C 
ATOM     36  C   UNL     1      20.721  15.249  -2.963  0.00  0.00    +0.096 C 
ATOM     37  O   UNL     1      21.543  15.043  -5.205  0.00  0.00    -0.273 OA
ENDBRANCH  33  34
BRANCH  29  38
ATOM     38  C   UNL     1      26.640  11.196  -3.074  0.00  0.00    +0.391 C 
ATOM     39  O   UNL     1      26.219   9.919  -3.145  0.00  0.00    -0.243 OA
ATOM     40  O   UNL     1      27.480  12.061  -2.492  0.00  0.00    -0.243 OA
ENDBRANCH  29  38
ENDBRANCH  25  27
ENDBRANCH  23  25
ENDBRANCH  22  23
ENDBRANCH   2  22
TORSDOF 11
