REMARK VINA RESULT:    -7.233      1.970      3.795
REMARK INTER + INTRA:         -14.197
REMARK INTER:                 -12.026
REMARK INTRA:                  -2.171
REMARK UNBOUND:                -1.466
REMARK  Name = lig_assembled_78.pdb
REMARK  13 active torsions:
REMARK  status: ('A' for Active; 'I' for Inactive)
REMARK    1  A    between atoms: _2  and  _8
REMARK    2  A    between atoms: _5  and  _6
REMARK    3  A    between atoms: _5  and  _16
REMARK    4  A    between atoms: _8  and  _44
REMARK    5  A    between atoms: _9  and  _44
REMARK    6  A    between atoms: _16  and  _18
REMARK    7  A    between atoms: _17  and  _22
REMARK    8  A    between atoms: _18  and  _21
REMARK    9  A    between atoms: _26  and  _36
REMARK   10  A    between atoms: _28  and  _29
REMARK   11  A    between atoms: _30  and  _32
REMARK   12  A    between atoms: _32  and  _34
REMARK   13  A    between atoms: _34  and  _36
REMARK                            x       y       z     vdW  Elec       q    Type
REMARK                         _______ _______ _______ _____ _____    ______ ____
ROOT
ATOM      1  C   UNL     1      28.092  14.621  -1.328  0.00  0.00    +0.400 C 
ATOM      2  N   UNL     1      28.181  14.304   0.007  0.00  0.00    -0.278 N 
ATOM      3  H   UNL     1      27.848  13.289   0.043  0.00  0.00    +0.152 HD
ATOM      4  O   UNL     1      27.862  13.714  -2.124  0.00  0.00    -0.226 OA
ENDROOT
BRANCH   2   5
ATOM      5  C   UNL     1      28.532  14.718   1.363  0.00  0.00    +0.152 C 
BRANCH   5   6
ATOM      6  C   UNL     1      28.715  13.584   2.394  0.00  0.00    +0.193 C 
ATOM      7  O   UNL     1      27.577  12.705   2.250  0.00  0.00    -0.219 OA
BRANCH   6   8
ATOM      8  C   UNL     1      29.940  12.659   2.229  0.00  0.00    +0.212 C 
ATOM      9  O   UNL     1      29.595  11.504   1.447  0.00  0.00    -0.218 OA
BRANCH   8  10
ATOM     10  C   UNL     1      31.175  13.372   1.556  0.00  0.00    +0.171 C 
ATOM     11  O   UNL     1      31.168  13.257   0.137  0.00  0.00    -0.343 OA
ATOM     12  C   UNL     1      32.251  13.578  -0.685  0.00  0.00    +0.220 C 
ATOM     13  C   UNL     1      33.550  12.905  -0.206  0.00  0.00    +0.076 C 
ATOM     14  C   UNL     1      33.736  13.262   1.278  0.00  0.00    +0.177 C 
ATOM     15  O   UNL     1      34.946  12.696   1.761  0.00  0.00    -0.221 OA
ATOM     16  C   UNL     1      32.509  12.769   2.107  0.00  0.00    +0.155 C 
BRANCH  16  17
ATOM     17  N   UNL     1      32.685  13.099   3.518  0.00  0.00    -0.202 NA
ATOM     18  C   UNL     1      33.059  12.307   4.555  0.00  0.00    +0.242 C 
ATOM     19  C   UNL     1      33.449  12.964   5.854  0.00  0.00    +0.096 C 
ATOM     20  O   UNL     1      33.072  11.086   4.412  0.00  0.00    -0.273 OA
ENDBRANCH  16  17
BRANCH  12  21
ATOM     21  C   UNL     1      32.450  15.176  -0.898  0.00  0.00    +0.391 C 
ATOM     22  O   UNL     1      33.567  15.291  -1.643  0.00  0.00    -0.243 OA
ATOM     23  O   UNL     1      31.297  15.745  -0.525  0.00  0.00    -0.243 OA
ENDBRANCH  12  21
ENDBRANCH   8  10
ENDBRANCH   6   8
ENDBRANCH   5   6
ENDBRANCH   2   5
BRANCH   1  24
ATOM     24  O   UNL     1      28.233  15.873  -1.617  0.00  0.00    -0.450 OA
BRANCH  24  25
ATOM     25  C   UNL     1      27.441  17.026  -1.785  0.00  0.00    +0.240 C 
BRANCH  25  26
ATOM     26  C   UNL     1      27.069  17.429  -3.224  0.00  0.00    +0.100 C 
BRANCH  26  28
ATOM     27  N   UNL     1      26.334  15.856  -4.993  0.00  0.00    -0.134 NA
ATOM     28  C   UNL     1      26.101  16.472  -3.792  0.00  0.00    +0.086 A 
ATOM     29  C   UNL     1      24.894  16.037  -3.291  0.00  0.00    +0.135 A 
ATOM     30  N   UNL     1      24.473  15.117  -4.203  0.00  0.00    -0.230 N 
ATOM     31  N   UNL     1      25.317  15.044  -5.246  0.00  0.00    -0.064 NA
BRANCH  30  32
ATOM     32  C   UNL     1      23.262  14.334  -4.200  0.00  0.00    +0.316 C 
BRANCH  32  33
ATOM     33  S   UNL     1      23.457  12.723  -3.486  0.00  0.00    +0.017 S 
ATOM     34  O   UNL     1      22.920  11.717  -4.381  0.00  0.00    -0.168 OA
ATOM     35  O   UNL     1      24.816  12.620  -2.979  0.00  0.00    -0.168 OA
BRANCH  33  36
ATOM     36  C   UNL     1      22.376  12.740  -2.072  0.00  0.00    +0.090 A 
ATOM     37  C   UNL     1      22.603  11.839  -1.026  0.00  0.00    +0.027 A 
ATOM     38  C   UNL     1      21.774  11.866   0.094  0.00  0.00    +0.002 A 
ATOM     39  C   UNL     1      20.739  12.799   0.175  0.00  0.00    +0.000 A 
ATOM     40  C   UNL     1      20.529  13.709  -0.862  0.00  0.00    +0.002 A 
ATOM     41  C   UNL     1      21.348  13.682  -1.991  0.00  0.00    +0.027 A 
ENDBRANCH  33  36
ENDBRANCH  32  33
ENDBRANCH  30  32
ENDBRANCH  26  28
ENDBRANCH  25  26
ENDBRANCH  24  25
ENDBRANCH   1  24
TORSDOF 13
