REMARK VINA RESULT:    -7.342      1.472      2.016
REMARK INTER + INTRA:         -13.732
REMARK INTER:                 -12.195
REMARK INTRA:                  -1.537
REMARK UNBOUND:                -1.669
REMARK  Name = lig_assembled_70.pdb
REMARK  11 active torsions:
REMARK  status: ('A' for Active; 'I' for Inactive)
REMARK    1  A    between atoms: _2  and  _9
REMARK    2  A    between atoms: _6  and  _7
REMARK    3  A    between atoms: _6  and  _17
REMARK    4  A    between atoms: _17  and  _19
REMARK    5  A    between atoms: _18  and  _23
REMARK    6  A    between atoms: _19  and  _22
REMARK    7  A    between atoms: _27  and  _37
REMARK    8  A    between atoms: _29  and  _30
REMARK    9  A    between atoms: _31  and  _33
REMARK   10  A    between atoms: _33  and  _35
REMARK   11  A    between atoms: _35  and  _37
REMARK                            x       y       z     vdW  Elec       q    Type
REMARK                         _______ _______ _______ _____ _____    ______ ____
ROOT
ATOM      1  C   UNL     1      26.800  16.465  -3.353  0.00  0.00    +0.400 C 
ATOM      2  N   UNL     1      27.260  16.031  -2.132  0.00  0.00    -0.278 N 
ATOM      3  H   UNL     1      27.217  16.910  -1.525  0.00  0.00    +0.152 HD
ATOM      4  O   UNL     1      26.311  17.591  -3.421  0.00  0.00    -0.226 OA
ENDROOT
BRANCH   1   5
ATOM      5  O   UNL     1      26.958  15.641  -4.336  0.00  0.00    -0.450 OA
BRANCH   5   6
ATOM      6  C   UNL     1      26.178  14.923  -5.263  0.00  0.00    +0.240 C 
BRANCH   6   7
ATOM      7  C   UNL     1      24.655  14.885  -5.033  0.00  0.00    +0.100 C 
BRANCH   7   9
ATOM      8  N   UNL     1      23.539  15.250  -2.850  0.00  0.00    -0.134 NA
ATOM      9  C   UNL     1      24.352  14.494  -3.644  0.00  0.00    +0.086 A 
ATOM     10  C   UNL     1      24.780  13.398  -2.932  0.00  0.00    +0.140 A 
ATOM     11  N   UNL     1      24.185  13.521  -1.697  0.00  0.00    -0.218 N 
ATOM     12  N   UNL     1      23.448  14.655  -1.667  0.00  0.00    -0.060 NA
BRANCH  11  13
ATOM     13  C   UNL     1      24.259  12.640  -0.600  0.00  0.00    +0.086 A 
ATOM     14  C   UNL     1      25.482  12.342  -0.018  0.00  0.00    +0.139 A 
ATOM     15  N   UNL     1      25.622  11.539   1.068  0.00  0.00    -0.253 NA
ATOM     16  C   UNL     1      24.512  11.009   1.616  0.00  0.00    +0.071 A 
ATOM     17  C   UNL     1      23.228  11.243   1.082  0.00  0.00    +0.002 A 
ATOM     18  C   UNL     1      22.092  10.671   1.683  0.00  0.00    +0.010 A 
ATOM     19  C   UNL     1      22.221   9.885   2.824  0.00  0.00    +0.001 A 
ATOM     20  C   UNL     1      23.483   9.658   3.360  0.00  0.00    +0.002 A 
ATOM     21  C   UNL     1      24.612  10.213   2.749  0.00  0.00    +0.028 A 
ATOM     22  C   UNL     1      23.116  12.064  -0.046  0.00  0.00    +0.039 A 
ENDBRANCH  11  13
ENDBRANCH   7   9
ENDBRANCH   6   7
ENDBRANCH   5   6
ENDBRANCH   1   5
BRANCH   2  23
ATOM     23  C   UNL     1      27.756  14.931  -1.309  0.00  0.00    +0.152 C 
BRANCH  23  24
ATOM     24  C   UNL     1      28.643  15.326  -0.110  0.00  0.00    +0.193 C 
ATOM     25  O   UNL     1      28.415  14.337   0.918  0.00  0.00    -0.219 OA
BRANCH  24  26
ATOM     26  C   UNL     1      30.174  15.317  -0.320  0.00  0.00    +0.212 C 
ATOM     27  O   UNL     1      30.718  16.628  -0.095  0.00  0.00    -0.218 OA
BRANCH  26  28
ATOM     28  C   UNL     1      30.926  14.292   0.611  0.00  0.00    +0.171 C 
ATOM     29  O   UNL     1      31.207  14.827   1.901  0.00  0.00    -0.343 OA
ATOM     30  C   UNL     1      32.066  14.235   2.830  0.00  0.00    +0.220 C 
ATOM     31  C   UNL     1      33.427  13.884   2.205  0.00  0.00    +0.076 C 
ATOM     32  C   UNL     1      33.156  13.043   0.946  0.00  0.00    +0.177 C 
ATOM     33  O   UNL     1      34.387  12.657   0.351  0.00  0.00    -0.221 OA
ATOM     34  C   UNL     1      32.268  13.846  -0.055  0.00  0.00    +0.155 C 
BRANCH  34  35
ATOM     35  N   UNL     1      32.014  13.053  -1.255  0.00  0.00    -0.202 NA
ATOM     36  C   UNL     1      32.497  13.205  -2.514  0.00  0.00    +0.242 C 
ATOM     37  C   UNL     1      32.308  12.077  -3.495  0.00  0.00    +0.096 C 
ATOM     38  O   UNL     1      33.071  14.248  -2.823  0.00  0.00    -0.273 OA
ENDBRANCH  34  35
BRANCH  30  39
ATOM     39  C   UNL     1      31.412  12.959   3.593  0.00  0.00    +0.391 C 
ATOM     40  O   UNL     1      32.438  12.385   4.252  0.00  0.00    -0.243 OA
ATOM     41  O   UNL     1      30.086  13.129   3.530  0.00  0.00    -0.243 OA
ENDBRANCH  30  39
ENDBRANCH  26  28
ENDBRANCH  24  26
ENDBRANCH  23  24
ENDBRANCH   2  23
TORSDOF 11
