REMARK VINA RESULT:    -6.877      1.773      3.814
REMARK INTER + INTRA:         -13.542
REMARK INTER:                 -12.212
REMARK INTRA:                  -1.330
REMARK UNBOUND:                -1.841
REMARK  Name = lig_assembled_39.pdb
REMARK  12 active torsions:
REMARK  status: ('A' for Active; 'I' for Inactive)
REMARK    1  A    between atoms: _2  and  _8
REMARK    2  A    between atoms: _5  and  _6
REMARK    3  A    between atoms: _5  and  _14
REMARK    4  A    between atoms: _8  and  _9
REMARK    5  A    between atoms: _14  and  _16
REMARK    6  A    between atoms: _15  and  _20
REMARK    7  A    between atoms: _16  and  _19
REMARK    8  A    between atoms: _24  and  _34
REMARK    9  A    between atoms: _26  and  _27
REMARK   10  A    between atoms: _28  and  _30
REMARK   11  A    between atoms: _30  and  _32
REMARK   12  A    between atoms: _32  and  _34
REMARK                            x       y       z     vdW  Elec       q    Type
REMARK                         _______ _______ _______ _____ _____    ______ ____
ROOT
ATOM      1  C   UNL     1      27.856  17.475  -0.676  0.00  0.00    +0.400 C 
ATOM      2  N   UNL     1      28.443  16.446   0.021  0.00  0.00    -0.278 N 
ATOM      3  H   UNL     1      28.582  16.856   0.998  0.00  0.00    +0.152 HD
ATOM      4  O   UNL     1      27.482  18.462  -0.047  0.00  0.00    -0.226 OA
ENDROOT
BRANCH   2   5
ATOM      5  C   UNL     1      28.938  15.071   0.028  0.00  0.00    +0.152 C 
BRANCH   5   6
ATOM      6  C   UNL     1      30.319  14.842  -0.619  0.00  0.00    +0.193 C 
ATOM      7  O   UNL     1      31.023  16.102  -0.552  0.00  0.00    -0.219 OA
BRANCH   6   8
ATOM      8  C   UNL     1      31.269  13.833   0.062  0.00  0.00    +0.212 C 
ATOM      9  O   UNL     1      30.606  12.574   0.260  0.00  0.00    -0.218 OA
BRANCH   8  10
ATOM     10  C   UNL     1      32.598  13.581  -0.749  0.00  0.00    +0.171 C 
ATOM     11  O   UNL     1      32.376  12.847  -1.948  0.00  0.00    -0.343 OA
ATOM     12  C   UNL     1      33.390  12.280  -2.724  0.00  0.00    +0.220 C 
ATOM     13  C   UNL     1      34.352  11.432  -1.874  0.00  0.00    +0.076 C 
ATOM     14  C   UNL     1      34.841  12.312  -0.712  0.00  0.00    +0.177 C 
ATOM     15  O   UNL     1      35.767  11.587   0.085  0.00  0.00    -0.221 OA
ATOM     16  C   UNL     1      33.628  12.806   0.136  0.00  0.00    +0.155 C 
BRANCH  16  17
ATOM     17  N   UNL     1      34.089  13.637   1.245  0.00  0.00    -0.202 NA
ATOM     18  C   UNL     1      33.889  13.491   2.580  0.00  0.00    +0.242 C 
ATOM     19  C   UNL     1      34.721  14.321   3.523  0.00  0.00    +0.096 C 
ATOM     20  O   UNL     1      33.046  12.694   2.985  0.00  0.00    -0.273 OA
ENDBRANCH  16  17
BRANCH  12  21
ATOM     21  C   UNL     1      34.192  13.363  -3.632  0.00  0.00    +0.391 C 
ATOM     22  O   UNL     1      35.343  12.749  -3.968  0.00  0.00    -0.243 OA
ATOM     23  O   UNL     1      33.302  14.311  -3.949  0.00  0.00    -0.243 OA
ENDBRANCH  12  21
ENDBRANCH   8  10
ENDBRANCH   6   8
ENDBRANCH   5   6
ENDBRANCH   2   5
BRANCH   1  24
ATOM     24  O   UNL     1      27.780  17.313  -1.956  0.00  0.00    -0.450 OA
BRANCH  24  25
ATOM     25  C   UNL     1      26.861  16.862  -2.924  0.00  0.00    +0.240 C 
BRANCH  25  26
ATOM     26  C   UNL     1      26.621  15.343  -3.022  0.00  0.00    +0.100 C 
BRANCH  26  28
ATOM     27  N   UNL     1      25.087  14.810  -4.890  0.00  0.00    -0.134 NA
ATOM     28  C   UNL     1      25.275  15.069  -3.557  0.00  0.00    +0.086 A 
ATOM     29  C   UNL     1      24.063  15.001  -2.908  0.00  0.00    +0.134 A 
ATOM     30  N   UNL     1      23.192  14.616  -3.885  0.00  0.00    -0.247 N 
ATOM     31  N   UNL     1      23.799  14.562  -5.085  0.00  0.00    -0.065 NA
BRANCH  30  32
ATOM     32  C   UNL     1      21.799  14.218  -3.737  0.00  0.00    +0.181 C 
BRANCH  32  33
ATOM     33  C   UNL     1      21.525  13.466  -2.447  0.00  0.00    -0.012 A 
ATOM     34  C   UNL     1      20.875  14.094  -1.364  0.00  0.00    +0.006 A 
ATOM     35  C   UNL     1      20.620  13.415  -0.170  0.00  0.00    +0.000 A 
ATOM     36  C   UNL     1      21.033  12.097  -0.019  0.00  0.00    +0.001 A 
ATOM     37  C   UNL     1      21.715  11.466  -1.055  0.00  0.00    +0.015 A 
ATOM     38  C   UNL     1      21.970  12.145  -2.255  0.00  0.00    +0.023 A 
ATOM     39 BR   UNL     1      22.961  11.200  -3.575  0.00  0.00    -0.050 Br
ENDBRANCH  32  33
ENDBRANCH  30  32
ENDBRANCH  26  28
ENDBRANCH  25  26
ENDBRANCH  24  25
ENDBRANCH   1  24
TORSDOF 12
