REMARK VINA RESULT:    -6.941      2.753      8.464
REMARK INTER + INTRA:         -13.179
REMARK INTER:                 -11.071
REMARK INTRA:                  -2.109
REMARK UNBOUND:                -1.775
REMARK  Name = lig_assembled_42.pdb
REMARK  11 active torsions:
REMARK  status: ('A' for Active; 'I' for Inactive)
REMARK    1  A    between atoms: _2  and  _8
REMARK    2  A    between atoms: _5  and  _6
REMARK    3  A    between atoms: _5  and  _16
REMARK    4  A    between atoms: _16  and  _18
REMARK    5  A    between atoms: _17  and  _22
REMARK    6  A    between atoms: _18  and  _21
REMARK    7  A    between atoms: _26  and  _36
REMARK    8  A    between atoms: _28  and  _29
REMARK    9  A    between atoms: _30  and  _32
REMARK   10  A    between atoms: _32  and  _34
REMARK   11  A    between atoms: _34  and  _36
REMARK                            x       y       z     vdW  Elec       q    Type
REMARK                         _______ _______ _______ _____ _____    ______ ____
ROOT
ATOM      1  C   UNL     1      24.059  15.001  -3.600  0.00  0.00    +0.400 C 
ATOM      2  N   UNL     1      24.041  13.687  -3.194  0.00  0.00    -0.278 N 
ATOM      3  H   UNL     1      23.294  13.675  -2.430  0.00  0.00    +0.152 HD
ATOM      4  O   UNL     1      23.178  15.748  -3.183  0.00  0.00    -0.226 OA
ENDROOT
BRANCH   1   5
ATOM      5  O   UNL     1      25.040  15.334  -4.374  0.00  0.00    -0.450 OA
BRANCH   5   6
ATOM      6  C   UNL     1      26.296  15.966  -4.294  0.00  0.00    +0.240 C 
BRANCH   6   7
ATOM      7  C   UNL     1      26.374  17.298  -3.524  0.00  0.00    +0.100 C 
BRANCH   7   9
ATOM      8  N   UNL     1      27.523  18.219  -1.527  0.00  0.00    -0.134 NA
ATOM      9  C   UNL     1      27.215  17.152  -2.322  0.00  0.00    +0.086 A 
ATOM     10  C   UNL     1      27.805  16.025  -1.806  0.00  0.00    +0.139 A 
ATOM     11  N   UNL     1      28.472  16.450  -0.681  0.00  0.00    -0.220 N 
ATOM     12  N   UNL     1      28.287  17.785  -0.531  0.00  0.00    -0.061 NA
BRANCH  11  13
ATOM     13  C   UNL     1      29.250  15.681   0.222  0.00  0.00    +0.071 A 
ATOM     14  C   UNL     1      28.697  14.547   0.836  0.00  0.00    +0.077 A 
ATOM     15  C   UNL     1      29.494  13.834   1.706  0.00  0.00    +0.168 A 
ATOM     16  O   UNL     1      29.114  12.715   2.377  0.00  0.00    -0.453 OA
ATOM     17  C   UNL     1      30.322  12.414   3.103  0.00  0.00    +0.466 C 
ATOM     18  O   UNL     1      31.388  13.357   2.860  0.00  0.00    -0.453 OA
ATOM     19  C   UNL     1      30.789  14.202   1.979  0.00  0.00    +0.166 A 
ATOM     20  C   UNL     1      31.364  15.310   1.396  0.00  0.00    +0.051 A 
ATOM     21  C   UNL     1      30.584  16.060   0.505  0.00  0.00    +0.031 A 
ENDBRANCH  11  13
ENDBRANCH   7   9
ENDBRANCH   6   7
ENDBRANCH   5   6
ENDBRANCH   1   5
BRANCH   2  22
ATOM     22  C   UNL     1      24.562  12.331  -3.345  0.00  0.00    +0.152 C 
BRANCH  22  23
ATOM     23  C   UNL     1      23.513  11.218  -3.543  0.00  0.00    +0.193 C 
ATOM     24  O   UNL     1      24.041  10.324  -4.548  0.00  0.00    -0.219 OA
BRANCH  23  25
ATOM     25  C   UNL     1      23.205  10.303  -2.338  0.00  0.00    +0.212 C 
ATOM     26  O   UNL     1      23.932   9.069  -2.445  0.00  0.00    -0.218 OA
BRANCH  25  27
ATOM     27  C   UNL     1      23.541  10.967  -0.948  0.00  0.00    +0.171 C 
ATOM     28  O   UNL     1      24.629  10.331  -0.286  0.00  0.00    -0.343 OA
ATOM     29  C   UNL     1      24.978  10.552   1.049  0.00  0.00    +0.220 C 
ATOM     30  C   UNL     1      23.765  10.412   1.986  0.00  0.00    +0.076 C 
ATOM     31  C   UNL     1      22.655  11.330   1.446  0.00  0.00    +0.177 C 
ATOM     32  O   UNL     1      21.522  11.269   2.300  0.00  0.00    -0.221 OA
ATOM     33  C   UNL     1      22.286  10.924  -0.015  0.00  0.00    +0.155 C 
BRANCH  33  34
ATOM     34  N   UNL     1      21.227  11.789  -0.529  0.00  0.00    -0.202 NA
ATOM     35  C   UNL     1      21.294  13.067  -0.982  0.00  0.00    +0.242 C 
ATOM     36  C   UNL     1      20.110  13.623  -1.730  0.00  0.00    +0.096 C 
ATOM     37  O   UNL     1      22.306  13.733  -0.775  0.00  0.00    -0.273 OA
ENDBRANCH  33  34
BRANCH  29  38
ATOM     38  C   UNL     1      25.760  11.955   1.289  0.00  0.00    +0.391 C 
ATOM     39  O   UNL     1      25.952  12.022   2.621  0.00  0.00    -0.243 OA
ATOM     40  O   UNL     1      26.177  12.358   0.082  0.00  0.00    -0.243 OA
ENDBRANCH  29  38
ENDBRANCH  25  27
ENDBRANCH  23  25
ENDBRANCH  22  23
ENDBRANCH   2  22
TORSDOF 11
