REMARK VINA RESULT:    -6.923      2.745      4.814
REMARK INTER + INTRA:         -13.663
REMARK INTER:                 -12.050
REMARK INTRA:                  -1.613
REMARK UNBOUND:                -1.681
REMARK  Name = lig_assembled_59.pdb
REMARK  13 active torsions:
REMARK  status: ('A' for Active; 'I' for Inactive)
REMARK    1  A    between atoms: _2  and  _9
REMARK    2  A    between atoms: _6  and  _7
REMARK    3  A    between atoms: _6  and  _15
REMARK    4  A    between atoms: _12  and  _13
REMARK    5  A    between atoms: _13  and  _14
REMARK    6  A    between atoms: _15  and  _17
REMARK    7  A    between atoms: _16  and  _21
REMARK    8  A    between atoms: _17  and  _20
REMARK    9  A    between atoms: _25  and  _35
REMARK   10  A    between atoms: _27  and  _28
REMARK   11  A    between atoms: _29  and  _31
REMARK   12  A    between atoms: _31  and  _33
REMARK   13  A    between atoms: _33  and  _35
REMARK                            x       y       z     vdW  Elec       q    Type
REMARK                         _______ _______ _______ _____ _____    ______ ____
ROOT
ATOM      1  C   UNL     1      28.364  17.459  -0.476  0.00  0.00    +0.400 C 
ATOM      2  N   UNL     1      29.570  17.460   0.185  0.00  0.00    -0.278 N 
ATOM      3  H   UNL     1      29.505  18.320   0.816  0.00  0.00    +0.152 HD
ATOM      4  O   UNL     1      27.497  18.243  -0.100  0.00  0.00    -0.226 OA
ENDROOT
BRANCH   1   5
ATOM      5  O   UNL     1      28.271  16.637  -1.469  0.00  0.00    -0.450 OA
BRANCH   5   6
ATOM      6  C   UNL     1      27.603  15.444  -1.810  0.00  0.00    +0.240 C 
BRANCH   6   7
ATOM      7  C   UNL     1      26.657  15.481  -3.025  0.00  0.00    +0.100 C 
BRANCH   7   9
ATOM      8  N   UNL     1      25.193  13.938  -1.766  0.00  0.00    -0.134 NA
ATOM      9  C   UNL     1      25.324  14.972  -2.651  0.00  0.00    +0.087 A 
ATOM     10  C   UNL     1      24.075  15.375  -3.061  0.00  0.00    +0.141 A 
ATOM     11  N   UNL     1      23.200  14.548  -2.393  0.00  0.00    -0.202 N 
ATOM     12  N   UNL     1      23.899  13.687  -1.610  0.00  0.00    -0.059 NA
BRANCH  11  13
ATOM     13  C   UNL     1      21.782  14.541  -2.480  0.00  0.00    +0.156 A 
ATOM     14  C   UNL     1      21.049  13.833  -1.530  0.00  0.00    +0.048 A 
ATOM     15  C   UNL     1      19.660  13.794  -1.647  0.00  0.00    +0.011 A 
ATOM     16  C   UNL     1      19.029  14.465  -2.697  0.00  0.00    -0.004 A 
ATOM     17  C   UNL     1      19.843  15.147  -3.597  0.00  0.00    +0.119 A 
ATOM     18  N   UNL     1      21.193  15.209  -3.510  0.00  0.00    -0.236 NA
BRANCH  16  19
ATOM     19  C   UNL     1      17.545  14.361  -2.894  0.00  0.00    +0.192 C 
BRANCH  19  20
ATOM     20  O   UNL     1      17.217  14.157  -4.260  0.00  0.00    -0.390 OA
ATOM     21  H   UNL     1      18.051  13.974  -4.727  0.00  0.00    +0.210 HD
ENDBRANCH  19  20
ENDBRANCH  16  19
ENDBRANCH  11  13
ENDBRANCH   7   9
ENDBRANCH   6   7
ENDBRANCH   5   6
ENDBRANCH   1   5
BRANCH   2  22
ATOM     22  C   UNL     1      30.862  16.820   0.416  0.00  0.00    +0.152 C 
BRANCH  22  23
ATOM     23  C   UNL     1      30.924  15.300   0.158  0.00  0.00    +0.193 C 
ATOM     24  O   UNL     1      31.983  15.085  -0.801  0.00  0.00    -0.219 OA
BRANCH  23  25
ATOM     25  C   UNL     1      31.291  14.387   1.349  0.00  0.00    +0.212 C 
ATOM     26  O   UNL     1      31.607  15.176   2.508  0.00  0.00    -0.218 OA
BRANCH  25  27
ATOM     27  C   UNL     1      30.151  13.368   1.729  0.00  0.00    +0.171 C 
ATOM     28  O   UNL     1      28.852  13.947   1.654  0.00  0.00    -0.343 OA
ATOM     29  C   UNL     1      27.694  13.354   2.165  0.00  0.00    +0.220 C 
ATOM     30  C   UNL     1      27.880  12.904   3.624  0.00  0.00    +0.076 C 
ATOM     31  C   UNL     1      29.138  12.021   3.680  0.00  0.00    +0.177 C 
ATOM     32  O   UNL     1      29.333  11.544   5.004  0.00  0.00    -0.221 OA
ATOM     33  C   UNL     1      30.379  12.822   3.177  0.00  0.00    +0.155 C 
BRANCH  33  34
ATOM     34  N   UNL     1      31.577  11.989   3.235  0.00  0.00    -0.202 NA
ATOM     35  C   UNL     1      32.632  12.044   4.087  0.00  0.00    +0.242 C 
ATOM     36  C   UNL     1      33.592  10.884   4.113  0.00  0.00    +0.096 C 
ATOM     37  O   UNL     1      32.778  13.028   4.810  0.00  0.00    -0.273 OA
ENDBRANCH  33  34
BRANCH  29  38
ATOM     38  C   UNL     1      27.121  12.150   1.237  0.00  0.00    +0.391 C 
ATOM     39  O   UNL     1      26.117  11.608   1.952  0.00  0.00    -0.243 OA
ATOM     40  O   UNL     1      27.644  12.340   0.019  0.00  0.00    -0.243 OA
ENDBRANCH  29  38
ENDBRANCH  25  27
ENDBRANCH  23  25
ENDBRANCH  22  23
ENDBRANCH   2  22
TORSDOF 13
