REMARK VINA RESULT:    -6.253      1.887      2.817
REMARK INTER + INTRA:         -13.199
REMARK INTER:                 -11.555
REMARK INTRA:                  -1.644
REMARK UNBOUND:                -2.194
REMARK  Name = lig_assembled_14.pdb
REMARK  13 active torsions:
REMARK  status: ('A' for Active; 'I' for Inactive)
REMARK    1  A    between atoms: _2  and  _9
REMARK    2  A    between atoms: _3  and  _10
REMARK    3  A    between atoms: _6  and  _7
REMARK    4  A    between atoms: _6  and  _14
REMARK    5  A    between atoms: _9  and  _10
REMARK    6  A    between atoms: _14  and  _16
REMARK    7  A    between atoms: _15  and  _20
REMARK    8  A    between atoms: _16  and  _19
REMARK    9  A    between atoms: _24  and  _34
REMARK   10  A    between atoms: _26  and  _27
REMARK   11  A    between atoms: _28  and  _30
REMARK   12  A    between atoms: _30  and  _32
REMARK   13  A    between atoms: _32  and  _34
REMARK                            x       y       z     vdW  Elec       q    Type
REMARK                         _______ _______ _______ _____ _____    ______ ____
ROOT
ATOM      1  C   UNL     1      28.003  14.810  -1.331  0.00  0.00    +0.400 C 
ATOM      2  N   UNL     1      28.724  14.467  -0.212  0.00  0.00    -0.278 N 
ATOM      3  H   UNL     1      28.331  13.508   0.051  0.00  0.00    +0.152 HD
ATOM      4  O   UNL     1      27.283  13.956  -1.841  0.00  0.00    -0.226 OA
ENDROOT
BRANCH   2   5
ATOM      5  C   UNL     1      29.772  14.809   0.747  0.00  0.00    +0.152 C 
BRANCH   5   6
ATOM      6  C   UNL     1      31.096  14.029   0.615  0.00  0.00    +0.193 C 
ATOM      7  O   UNL     1      30.759  12.626   0.687  0.00  0.00    -0.219 OA
BRANCH   6   8
ATOM      8  C   UNL     1      31.879  14.170  -0.709  0.00  0.00    +0.212 C 
ATOM      9  O   UNL     1      32.252  15.540  -0.928  0.00  0.00    -0.218 OA
BRANCH   8  10
ATOM     10  C   UNL     1      33.179  13.280  -0.762  0.00  0.00    +0.171 C 
ATOM     11  O   UNL     1      34.133  13.644   0.230  0.00  0.00    -0.343 OA
ATOM     12  C   UNL     1      35.455  13.192   0.256  0.00  0.00    +0.220 C 
ATOM     13  C   UNL     1      36.152  13.390  -1.102  0.00  0.00    +0.076 C 
ATOM     14  C   UNL     1      35.266  12.738  -2.176  0.00  0.00    +0.177 C 
ATOM     15  O   UNL     1      35.885  12.858  -3.449  0.00  0.00    -0.221 OA
ATOM     16  C   UNL     1      33.848  13.390  -2.172  0.00  0.00    +0.155 C 
BRANCH  16  17
ATOM     17  N   UNL     1      33.005  12.778  -3.196  0.00  0.00    -0.202 NA
ATOM     18  C   UNL     1      32.798  13.149  -4.485  0.00  0.00    +0.242 C 
ATOM     19  C   UNL     1      32.112  12.176  -5.408  0.00  0.00    +0.096 C 
ATOM     20  O   UNL     1      33.170  14.257  -4.865  0.00  0.00    -0.273 OA
ENDBRANCH  16  17
BRANCH  12  21
ATOM     21  C   UNL     1      35.607  11.665   0.788  0.00  0.00    +0.391 C 
ATOM     22  O   UNL     1      36.868  11.311   0.472  0.00  0.00    -0.243 OA
ATOM     23  O   UNL     1      34.557  11.445   1.588  0.00  0.00    -0.243 OA
ENDBRANCH  12  21
ENDBRANCH   8  10
ENDBRANCH   6   8
ENDBRANCH   5   6
ENDBRANCH   2   5
BRANCH   1  24
ATOM     24  O   UNL     1      28.132  16.034  -1.726  0.00  0.00    -0.450 OA
BRANCH  24  25
ATOM     25  C   UNL     1      27.355  17.201  -1.861  0.00  0.00    +0.240 C 
BRANCH  25  26
ATOM     26  C   UNL     1      26.883  17.582  -3.277  0.00  0.00    +0.100 C 
BRANCH  26  28
ATOM     27  N   UNL     1      26.504  15.808  -4.958  0.00  0.00    -0.134 NA
ATOM     28  C   UNL     1      26.070  16.497  -3.858  0.00  0.00    +0.086 A 
ATOM     29  C   UNL     1      24.842  16.008  -3.473  0.00  0.00    +0.133 A 
ATOM     30  N   UNL     1      24.578  15.035  -4.388  0.00  0.00    -0.250 N 
ATOM     31  N   UNL     1      25.582  14.909  -5.274  0.00  0.00    -0.065 NA
BRANCH  30  32
ATOM     32  C   UNL     1      23.385  14.228  -4.519  0.00  0.00    +0.160 C 
BRANCH  32  33
ATOM     33  C   UNL     1      23.398  13.029  -3.565  0.00  0.00    +0.107 C 
BRANCH  33  34
ATOM     34  N   UNL     1      22.184  12.937  -2.736  0.00  0.00    -0.301 NA
ATOM     35  C   UNL     1      22.220  13.817  -1.563  0.00  0.00    +0.084 C 
ATOM     36  C   UNL     1      20.766  13.858  -1.139  0.00  0.00    +0.017 C 
ATOM     37  C   UNL     1      20.006  13.876  -2.452  0.00  0.00    +0.017 C 
ATOM     38  C   UNL     1      20.980  13.320  -3.488  0.00  0.00    +0.084 C 
ENDBRANCH  33  34
ENDBRANCH  32  33
ENDBRANCH  30  32
ENDBRANCH  26  28
ENDBRANCH  25  26
ENDBRANCH  24  25
ENDBRANCH   1  24
TORSDOF 13
