REMARK VINA RESULT:    -6.256      2.504      4.799
REMARK INTER + INTRA:         -12.523
REMARK INTER:                  -9.920
REMARK INTRA:                  -2.604
REMARK UNBOUND:                -1.696
REMARK  Name = lig_assembled_72.pdb
REMARK  15 active torsions:
REMARK  status: ('A' for Active; 'I' for Inactive)
REMARK    1  A    between atoms: _2  and  _8
REMARK    2  A    between atoms: _4  and  _8
REMARK    3  A    between atoms: _4  and  _11
REMARK    4  A    between atoms: _5  and  _6
REMARK    5  A    between atoms: _5  and  _12
REMARK    6  A    between atoms: _8  and  _9
REMARK    7  A    between atoms: _8  and  _10
REMARK    8  A    between atoms: _12  and  _14
REMARK    9  A    between atoms: _13  and  _18
REMARK   10  A    between atoms: _14  and  _17
REMARK   11  A    between atoms: _22  and  _32
REMARK   12  A    between atoms: _24  and  _25
REMARK   13  A    between atoms: _26  and  _28
REMARK   14  A    between atoms: _28  and  _30
REMARK   15  A    between atoms: _30  and  _32
REMARK                            x       y       z     vdW  Elec       q    Type
REMARK                         _______ _______ _______ _____ _____    ______ ____
ROOT
ATOM      1  C   UNL     1      28.980  15.229   0.100  0.00  0.00    +0.152 C 
ENDROOT
BRANCH   1   3
ATOM      2  C   UNL     1      27.860  17.518  -0.874  0.00  0.00    +0.400 C 
ATOM      3  N   UNL     1      28.467  16.586  -0.065  0.00  0.00    -0.278 N 
ATOM      4  H   UNL     1      28.606  17.110   0.855  0.00  0.00    +0.152 HD
ATOM      5  O   UNL     1      27.478  18.567  -0.362  0.00  0.00    -0.226 OA
BRANCH   2   6
ATOM      6  O   UNL     1      27.779  17.206  -2.125  0.00  0.00    -0.450 OA
BRANCH   6   7
ATOM      7  C   UNL     1      26.909  17.389  -3.218  0.00  0.00    +0.240 C 
BRANCH   7   8
ATOM      8  C   UNL     1      25.811  16.331  -3.439  0.00  0.00    +0.100 C 
BRANCH   8  10
ATOM      9  N   UNL     1      26.371  14.203  -2.310  0.00  0.00    -0.134 NA
ATOM     10  C   UNL     1      26.397  14.978  -3.436  0.00  0.00    +0.086 A 
ATOM     11  C   UNL     1      27.022  14.280  -4.447  0.00  0.00    +0.134 A 
ATOM     12  N   UNL     1      27.355  13.084  -3.875  0.00  0.00    -0.244 N 
ATOM     13  N   UNL     1      26.959  13.049  -2.586  0.00  0.00    -0.065 NA
BRANCH  12  14
ATOM     14  C   UNL     1      28.040  11.940  -4.493  0.00  0.00    +0.083 C 
ATOM     15  C   UNL     1      28.849  12.429  -5.709  0.00  0.00    +0.038 C 
ATOM     16  C   UNL     1      26.999  10.901  -4.955  0.00  0.00    +0.038 C 
BRANCH  14  17
ATOM     17  C   UNL     1      29.031  11.263  -3.506  0.00  0.00    +0.185 C 
BRANCH  17  18
ATOM     18  O   UNL     1      29.764  12.208  -2.728  0.00  0.00    -0.393 OA
ATOM     19  H   UNL     1      30.431  11.687  -2.232  0.00  0.00    +0.209 HD
ENDBRANCH  17  18
ENDBRANCH  14  17
ENDBRANCH  12  14
ENDBRANCH   8  10
ENDBRANCH   7   8
ENDBRANCH   6   7
ENDBRANCH   2   6
ENDBRANCH   1   3
BRANCH   1  20
ATOM     20  C   UNL     1      30.336  14.928  -0.572  0.00  0.00    +0.193 C 
ATOM     21  O   UNL     1      31.107  16.149  -0.516  0.00  0.00    -0.219 OA
BRANCH  20  22
ATOM     22  C   UNL     1      31.244  13.869   0.092  0.00  0.00    +0.212 C 
ATOM     23  O   UNL     1      30.553  12.614   0.202  0.00  0.00    -0.218 OA
BRANCH  22  24
ATOM     24  C   UNL     1      32.597  13.633  -0.683  0.00  0.00    +0.171 C 
ATOM     25  O   UNL     1      32.414  12.911  -1.896  0.00  0.00    -0.343 OA
ATOM     26  C   UNL     1      33.453  12.358  -2.648  0.00  0.00    +0.220 C 
ATOM     27  C   UNL     1      34.395  11.505  -1.780  0.00  0.00    +0.076 C 
ATOM     28  C   UNL     1      34.845  12.375  -0.594  0.00  0.00    +0.177 C 
ATOM     29  O   UNL     1      35.751  11.646   0.221  0.00  0.00    -0.221 OA
ATOM     30  C   UNL     1      33.605  12.853   0.223  0.00  0.00    +0.155 C 
BRANCH  30  31
ATOM     31  N   UNL     1      34.029  13.674   1.355  0.00  0.00    -0.202 NA
ATOM     32  C   UNL     1      33.869  13.466   2.686  0.00  0.00    +0.242 C 
ATOM     33  C   UNL     1      34.660  14.319   3.644  0.00  0.00    +0.096 C 
ATOM     34  O   UNL     1      33.094  12.595   3.076  0.00  0.00    -0.273 OA
ENDBRANCH  30  31
BRANCH  26  35
ATOM     35  C   UNL     1      34.276  13.454  -3.521  0.00  0.00    +0.391 C 
ATOM     36  O   UNL     1      35.467  12.877  -3.771  0.00  0.00    -0.243 OA
ATOM     37  O   UNL     1      33.376  14.366  -3.910  0.00  0.00    -0.243 OA
ENDBRANCH  26  35
ENDBRANCH  22  24
ENDBRANCH  20  22
ENDBRANCH   1  20
TORSDOF 13
