REMARK VINA RESULT:    -6.440      2.362      3.963
REMARK INTER + INTRA:         -12.127
REMARK INTER:                 -10.464
REMARK INTRA:                  -1.663
REMARK UNBOUND:                -1.545
REMARK  Name = lig_assembled_48.pdb
REMARK  11 active torsions:
REMARK  status: ('A' for Active; 'I' for Inactive)
REMARK    1  A    between atoms: _2  and  _8
REMARK    2  A    between atoms: _5  and  _6
REMARK    3  A    between atoms: _5  and  _13
REMARK    4  A    between atoms: _13  and  _15
REMARK    5  A    between atoms: _14  and  _19
REMARK    6  A    between atoms: _15  and  _18
REMARK    7  A    between atoms: _23  and  _33
REMARK    8  A    between atoms: _25  and  _26
REMARK    9  A    between atoms: _27  and  _29
REMARK   10  A    between atoms: _29  and  _31
REMARK   11  A    between atoms: _31  and  _33
REMARK                            x       y       z     vdW  Elec       q    Type
REMARK                         _______ _______ _______ _____ _____    ______ ____
ROOT
ATOM      1  C   UNL     1      27.294  14.026  -0.840  0.00  0.00    +0.152 C 
ENDROOT
BRANCH   1   3
ATOM      2  C   UNL     1      27.823  16.576  -1.656  0.00  0.00    +0.400 C 
ATOM      3  N   UNL     1      27.930  15.308  -1.135  0.00  0.00    -0.278 N 
ATOM      4  H   UNL     1      28.939  15.268  -0.785  0.00  0.00    +0.152 HD
ATOM      5  O   UNL     1      28.744  17.364  -1.454  0.00  0.00    -0.226 OA
BRANCH   2   6
ATOM      6  O   UNL     1      26.756  16.809  -2.347  0.00  0.00    -0.450 OA
BRANCH   6   7
ATOM      7  C   UNL     1      26.388  17.126  -3.669  0.00  0.00    +0.240 C 
BRANCH   7   8
ATOM      8  C   UNL     1      25.913  15.970  -4.571  0.00  0.00    +0.100 C 
BRANCH   8  10
ATOM      9  N   UNL     1      25.173  13.742  -3.800  0.00  0.00    -0.134 NA
ATOM     10  C   UNL     1      24.989  15.096  -3.828  0.00  0.00    +0.086 A 
ATOM     11  C   UNL     1      23.884  15.414  -3.067  0.00  0.00    +0.134 A 
ATOM     12  N   UNL     1      23.495  14.225  -2.527  0.00  0.00    -0.248 N 
ATOM     13  N   UNL     1      24.231  13.213  -3.033  0.00  0.00    -0.065 NA
BRANCH  12  14
ATOM     14  C   UNL     1      22.502  13.925  -1.502  0.00  0.00    +0.109 C 
ATOM     15  C   UNL     1      21.108  14.431  -1.918  0.00  0.00    +0.027 C 
ATOM     16  C   UNL     1      20.513  13.576  -3.034  0.00  0.00    +0.002 C 
ATOM     17  C   UNL     1      20.377  12.124  -2.593  0.00  0.00    +0.000 C 
ATOM     18  C   UNL     1      21.694  11.542  -2.084  0.00  0.00    +0.002 C 
ATOM     19  C   UNL     1      22.406  12.448  -1.072  0.00  0.00    +0.027 C 
ENDBRANCH  12  14
ENDBRANCH   8  10
ENDBRANCH   7   8
ENDBRANCH   6   7
ENDBRANCH   2   6
ENDBRANCH   1   3
BRANCH   1  20
ATOM     20  C   UNL     1      27.890  12.793  -1.549  0.00  0.00    +0.193 C 
ATOM     21  O   UNL     1      28.368  13.243  -2.835  0.00  0.00    -0.219 OA
BRANCH  20  22
ATOM     22  C   UNL     1      29.116  12.116  -0.897  0.00  0.00    +0.212 C 
ATOM     23  O   UNL     1      30.181  11.983  -1.852  0.00  0.00    -0.218 OA
BRANCH  22  24
ATOM     24  C   UNL     1      29.662  12.893   0.361  0.00  0.00    +0.171 C 
ATOM     25  O   UNL     1      30.967  13.422   0.155  0.00  0.00    -0.343 OA
ATOM     26  C   UNL     1      31.779  13.937   1.169  0.00  0.00    +0.220 C 
ATOM     27  C   UNL     1      31.893  12.965   2.356  0.00  0.00    +0.076 C 
ATOM     28  C   UNL     1      30.465  12.598   2.793  0.00  0.00    +0.177 C 
ATOM     29  O   UNL     1      30.514  11.730   3.916  0.00  0.00    -0.221 OA
ATOM     30  C   UNL     1      29.691  11.946   1.606  0.00  0.00    +0.155 C 
BRANCH  30  31
ATOM     31  N   UNL     1      28.336  11.589   2.019  0.00  0.00    -0.202 NA
ATOM     32  C   UNL     1      27.336  12.378   2.489  0.00  0.00    +0.242 C 
ATOM     33  C   UNL     1      25.945  11.804   2.561  0.00  0.00    +0.096 C 
ATOM     34  O   UNL     1      27.585  13.530   2.840  0.00  0.00    -0.273 OA
ENDBRANCH  30  31
BRANCH  26  35
ATOM     35  C   UNL     1      31.342  15.424   1.655  0.00  0.00    +0.391 C 
ATOM     36  O   UNL     1      32.035  15.635   2.791  0.00  0.00    -0.243 OA
ATOM     37  O   UNL     1      30.713  15.984   0.614  0.00  0.00    -0.243 OA
ENDBRANCH  26  35
ENDBRANCH  22  24
ENDBRANCH  20  22
ENDBRANCH   1  20
TORSDOF 11
