REMARK VINA RESULT:    -6.831      1.756      3.725
REMARK INTER + INTRA:         -13.168
REMARK INTER:                 -10.425
REMARK INTRA:                  -2.743
REMARK UNBOUND:                -1.544
REMARK  Name = lig_assembled_69.pdb
REMARK  13 active torsions:
REMARK  status: ('A' for Active; 'I' for Inactive)
REMARK    1  A    between atoms: _2  and  _8
REMARK    2  A    between atoms: _5  and  _6
REMARK    3  A    between atoms: _5  and  _16
REMARK    4  A    between atoms: _10  and  _15
REMARK    5  A    between atoms: _13  and  _14
REMARK    6  A    between atoms: _16  and  _18
REMARK    7  A    between atoms: _17  and  _22
REMARK    8  A    between atoms: _18  and  _21
REMARK    9  A    between atoms: _26  and  _36
REMARK   10  A    between atoms: _28  and  _29
REMARK   11  A    between atoms: _30  and  _32
REMARK   12  A    between atoms: _32  and  _34
REMARK   13  A    between atoms: _34  and  _36
REMARK                            x       y       z     vdW  Elec       q    Type
REMARK                         _______ _______ _______ _____ _____    ______ ____
ROOT
ATOM      1  C   UNL     1      24.079  14.997  -3.417  0.00  0.00    +0.400 C 
ATOM      2  N   UNL     1      23.937  13.629  -3.391  0.00  0.00    -0.278 N 
ATOM      3  H   UNL     1      23.438  13.450  -2.463  0.00  0.00    +0.152 HD
ATOM      4  O   UNL     1      23.496  15.656  -2.560  0.00  0.00    -0.226 OA
ENDROOT
BRANCH   1   5
ATOM      5  O   UNL     1      24.853  15.461  -4.342  0.00  0.00    -0.450 OA
BRANCH   5   6
ATOM      6  C   UNL     1      26.118  16.068  -4.471  0.00  0.00    +0.240 C 
BRANCH   6   7
ATOM      7  C   UNL     1      26.488  17.165  -3.455  0.00  0.00    +0.100 C 
BRANCH   7   9
ATOM      8  N   UNL     1      28.151  17.422  -1.646  0.00  0.00    -0.134 NA
ATOM      9  C   UNL     1      27.338  16.608  -2.386  0.00  0.00    +0.086 A 
ATOM     10  C   UNL     1      27.490  15.308  -1.958  0.00  0.00    +0.134 A 
ATOM     11  N   UNL     1      28.420  15.396  -0.964  0.00  0.00    -0.248 N 
ATOM     12  N   UNL     1      28.814  16.668  -0.782  0.00  0.00    -0.065 NA
BRANCH  11  13
ATOM     13  C   UNL     1      29.013  14.310  -0.187  0.00  0.00    +0.114 C 
ATOM     14  C   UNL     1      29.683  14.832   1.089  0.00  0.00    +0.062 C 
ATOM     15  C   UNL     1      31.120  15.339   0.940  0.00  0.00    +0.139 C 
ATOM     16  C   UNL     1      32.174  14.301   0.683  0.00  0.00    +0.002 C 
ATOM     17  C   UNL     1      32.028  13.063   0.185  0.00  0.00    +0.002 C 
ATOM     18  C   UNL     1      30.789  12.442  -0.385  0.00  0.00    +0.139 C 
ATOM     19  C   UNL     1      29.865  13.419  -1.103  0.00  0.00    +0.062 C 
BRANCH  18  20
ATOM     20  O   UNL     1      30.088  11.763   0.645  0.00  0.00    -0.388 OA
ATOM     21  H   UNL     1      29.336  12.323   0.904  0.00  0.00    +0.210 HD
ENDBRANCH  18  20
BRANCH  15  22
ATOM     22  O   UNL     1      31.479  15.949   2.186  0.00  0.00    -0.388 OA
ATOM     23  H   UNL     1      30.731  16.505   2.463  0.00  0.00    +0.210 HD
ENDBRANCH  15  22
ENDBRANCH  11  13
ENDBRANCH   7   9
ENDBRANCH   6   7
ENDBRANCH   5   6
ENDBRANCH   1   5
BRANCH   2  24
ATOM     24  C   UNL     1      24.144  12.344  -4.053  0.00  0.00    +0.152 C 
BRANCH  24  25
ATOM     25  C   UNL     1      24.988  11.310  -3.280  0.00  0.00    +0.193 C 
ATOM     26  O   UNL     1      25.963  12.055  -2.518  0.00  0.00    -0.219 OA
BRANCH  25  27
ATOM     27  C   UNL     1      24.265  10.436  -2.232  0.00  0.00    +0.212 C 
ATOM     28  O   UNL     1      24.655   9.060  -2.370  0.00  0.00    -0.218 OA
BRANCH  27  29
ATOM     29  C   UNL     1      24.536  10.890  -0.747  0.00  0.00    +0.171 C 
ATOM     30  O   UNL     1      25.266   9.920  -0.002  0.00  0.00    -0.343 OA
ATOM     31  C   UNL     1      25.431   9.952   1.385  0.00  0.00    +0.220 C 
ATOM     32  C   UNL     1      24.089  10.132   2.115  0.00  0.00    +0.076 C 
ATOM     33  C   UNL     1      23.399  11.370   1.517  0.00  0.00    +0.177 C 
ATOM     34  O   UNL     1      22.169  11.606   2.186  0.00  0.00    -0.221 OA
ATOM     35  C   UNL     1      23.183  11.176  -0.016  0.00  0.00    +0.155 C 
BRANCH  35  36
ATOM     36  N   UNL     1      22.522  12.346  -0.587  0.00  0.00    -0.202 NA
ATOM     37  C   UNL     1      21.348  12.437  -1.262  0.00  0.00    +0.242 C 
ATOM     38  C   UNL     1      20.753  13.803  -1.483  0.00  0.00    +0.096 C 
ATOM     39  O   UNL     1      20.802  11.414  -1.671  0.00  0.00    -0.273 OA
ENDBRANCH  35  36
BRANCH  31  40
ATOM     40  C   UNL     1      26.532  11.040   1.881  0.00  0.00    +0.391 C 
ATOM     41  O   UNL     1      26.412  11.068   3.222  0.00  0.00    -0.243 OA
ATOM     42  O   UNL     1      27.329  11.265   0.829  0.00  0.00    -0.243 OA
ENDBRANCH  31  40
ENDBRANCH  27  29
ENDBRANCH  25  27
ENDBRANCH  24  25
ENDBRANCH   2  24
TORSDOF 13
