REMARK VINA RESULT:    -6.560      1.722      2.437
REMARK INTER + INTRA:         -12.323
REMARK INTER:                 -10.551
REMARK INTRA:                  -1.773
REMARK UNBOUND:                -1.545
REMARK  Name = lig_assembled_48.pdb
REMARK  11 active torsions:
REMARK  status: ('A' for Active; 'I' for Inactive)
REMARK    1  A    between atoms: _2  and  _8
REMARK    2  A    between atoms: _5  and  _6
REMARK    3  A    between atoms: _5  and  _13
REMARK    4  A    between atoms: _13  and  _15
REMARK    5  A    between atoms: _14  and  _19
REMARK    6  A    between atoms: _15  and  _18
REMARK    7  A    between atoms: _23  and  _33
REMARK    8  A    between atoms: _25  and  _26
REMARK    9  A    between atoms: _27  and  _29
REMARK   10  A    between atoms: _29  and  _31
REMARK   11  A    between atoms: _31  and  _33
REMARK                            x       y       z     vdW  Elec       q    Type
REMARK                         _______ _______ _______ _____ _____    ______ ____
ROOT
ATOM      1  C   UNL     1      28.385  14.032  -0.531  0.00  0.00    +0.152 C 
ENDROOT
BRANCH   1   3
ATOM      2  C   UNL     1      27.952  16.715  -0.774  0.00  0.00    +0.400 C 
ATOM      3  N   UNL     1      28.494  15.487  -0.475  0.00  0.00    -0.278 N 
ATOM      4  H   UNL     1      29.397  15.735   0.041  0.00  0.00    +0.152 HD
ATOM      5  O   UNL     1      28.465  17.712  -0.272  0.00  0.00    -0.226 OA
BRANCH   2   6
ATOM      6  O   UNL     1      26.955  16.701  -1.597  0.00  0.00    -0.450 OA
BRANCH   6   7
ATOM      7  C   UNL     1      26.693  16.424  -2.953  0.00  0.00    +0.240 C 
BRANCH   7   8
ATOM      8  C   UNL     1      26.397  14.961  -3.335  0.00  0.00    +0.100 C 
BRANCH   8  10
ATOM      9  N   UNL     1      24.079  15.607  -2.775  0.00  0.00    -0.134 NA
ATOM     10  C   UNL     1      25.001  14.624  -3.006  0.00  0.00    +0.086 A 
ATOM     11  C   UNL     1      24.386  13.396  -2.900  0.00  0.00    +0.134 A 
ATOM     12  N   UNL     1      23.072  13.696  -2.695  0.00  0.00    -0.248 N 
ATOM     13  N   UNL     1      22.910  15.028  -2.546  0.00  0.00    -0.065 NA
BRANCH  12  14
ATOM     14  C   UNL     1      21.892  12.839  -2.676  0.00  0.00    +0.109 C 
ATOM     15  C   UNL     1      22.183  11.512  -1.949  0.00  0.00    +0.027 C 
ATOM     16  C   UNL     1      22.310  11.718  -0.441  0.00  0.00    +0.002 C 
ATOM     17  C   UNL     1      21.027  12.303   0.137  0.00  0.00    +0.000 C 
ATOM     18  C   UNL     1      20.602  13.588  -0.569  0.00  0.00    +0.002 C 
ATOM     19  C   UNL     1      20.612  13.473  -2.098  0.00  0.00    +0.027 C 
ENDBRANCH  12  14
ENDBRANCH   8  10
ENDBRANCH   7   8
ENDBRANCH   6   7
ENDBRANCH   2   6
ENDBRANCH   1   3
BRANCH   1  20
ATOM     20  C   UNL     1      27.989  13.329   0.783  0.00  0.00    +0.193 C 
ATOM     21  O   UNL     1      28.410  11.952   0.661  0.00  0.00    -0.219 OA
BRANCH  20  22
ATOM     22  C   UNL     1      28.655  13.822   2.087  0.00  0.00    +0.212 C 
ATOM     23  O   UNL     1      27.676  13.962   3.129  0.00  0.00    -0.218 OA
BRANCH  22  24
ATOM     24  C   UNL     1      29.803  12.870   2.599  0.00  0.00    +0.171 C 
ATOM     25  O   UNL     1      29.571  12.395   3.921  0.00  0.00    -0.343 OA
ATOM     26  C   UNL     1      30.528  11.743   4.704  0.00  0.00    +0.220 C 
ATOM     27  C   UNL     1      31.851  12.526   4.755  0.00  0.00    +0.076 C 
ATOM     28  C   UNL     1      32.281  12.804   3.306  0.00  0.00    +0.177 C 
ATOM     29  O   UNL     1      33.524  13.493   3.296  0.00  0.00    -0.221 OA
ATOM     30  C   UNL     1      31.176  13.618   2.564  0.00  0.00    +0.155 C 
BRANCH  30  31
ATOM     31  N   UNL     1      31.584  13.891   1.188  0.00  0.00    -0.202 NA
ATOM     32  C   UNL     1      31.661  15.072   0.524  0.00  0.00    +0.242 C 
ATOM     33  C   UNL     1      32.392  15.105  -0.793  0.00  0.00    +0.096 C 
ATOM     34  O   UNL     1      31.140  16.075   1.006  0.00  0.00    -0.273 OA
ENDBRANCH  30  31
BRANCH  26  35
ATOM     35  C   UNL     1      30.766  10.194   4.277  0.00  0.00    +0.391 C 
ATOM     36  O   UNL     1      31.873   9.816   4.946  0.00  0.00    -0.243 OA
ATOM     37  O   UNL     1      29.636   9.797   3.680  0.00  0.00    -0.243 OA
ENDBRANCH  26  35
ENDBRANCH  22  24
ENDBRANCH  20  22
ENDBRANCH   1  20
TORSDOF 11
