REMARK VINA RESULT:    -6.368      1.669      2.109
REMARK INTER + INTRA:         -14.460
REMARK INTER:                 -12.451
REMARK INTRA:                  -2.009
REMARK UNBOUND:                -2.880
REMARK  Name = lig_assembled_21.pdb
REMARK  15 active torsions:
REMARK  status: ('A' for Active; 'I' for Inactive)
REMARK    1  A    between atoms: _2  and  _8
REMARK    2  A    between atoms: _5  and  _6
REMARK    3  A    between atoms: _5  and  _18
REMARK    4  A    between atoms: _8  and  _9
REMARK    5  A    between atoms: _10  and  _17
REMARK    6  A    between atoms: _11  and  _12
REMARK    7  A    between atoms: _11  and  _17
REMARK    8  A    between atoms: _18  and  _20
REMARK    9  A    between atoms: _19  and  _24
REMARK   10  A    between atoms: _20  and  _23
REMARK   11  A    between atoms: _28  and  _38
REMARK   12  A    between atoms: _30  and  _31
REMARK   13  A    between atoms: _32  and  _34
REMARK   14  A    between atoms: _34  and  _36
REMARK   15  A    between atoms: _36  and  _38
REMARK                            x       y       z     vdW  Elec       q    Type
REMARK                         _______ _______ _______ _____ _____    ______ ____
ROOT
ATOM      1  C   UNL     1      27.862  17.294  -0.992  0.00  0.00    +0.400 C 
ATOM      2  N   UNL     1      28.341  16.305  -0.165  0.00  0.00    -0.278 N 
ATOM      3  H   UNL     1      28.748  16.849   0.660  0.00  0.00    +0.152 HD
ATOM      4  O   UNL     1      27.833  18.444  -0.564  0.00  0.00    -0.226 OA
ENDROOT
BRANCH   2   5
ATOM      5  C   UNL     1      28.527  14.880   0.093  0.00  0.00    +0.152 C 
BRANCH   5   6
ATOM      6  C   UNL     1      29.825  14.485   0.827  0.00  0.00    +0.193 C 
ATOM      7  O   UNL     1      29.619  13.153   1.346  0.00  0.00    -0.219 OA
BRANCH   6   8
ATOM      8  C   UNL     1      31.117  14.376  -0.013  0.00  0.00    +0.212 C 
ATOM      9  O   UNL     1      31.583  15.683  -0.388  0.00  0.00    -0.218 OA
BRANCH   8  10
ATOM     10  C   UNL     1      32.283  13.620   0.731  0.00  0.00    +0.171 C 
ATOM     11  O   UNL     1      32.573  14.181   2.007  0.00  0.00    -0.343 OA
ATOM     12  C   UNL     1      33.704  13.868   2.766  0.00  0.00    +0.220 C 
ATOM     13  C   UNL     1      34.997  13.989   1.940  0.00  0.00    +0.076 C 
ATOM     14  C   UNL     1      34.815  13.141   0.670  0.00  0.00    +0.177 C 
ATOM     15  O   UNL     1      36.000  13.186  -0.112  0.00  0.00    -0.221 OA
ATOM     16  C   UNL     1      33.581  13.645  -0.141  0.00  0.00    +0.155 C 
BRANCH  16  17
ATOM     17  N   UNL     1      33.409  12.846  -1.352  0.00  0.00    -0.202 NA
ATOM     18  C   UNL     1      33.421  13.230  -2.653  0.00  0.00    +0.242 C 
ATOM     19  C   UNL     1      33.515  12.164  -3.713  0.00  0.00    +0.096 C 
ATOM     20  O   UNL     1      33.357  14.425  -2.935  0.00  0.00    -0.273 OA
ENDBRANCH  16  17
BRANCH  12  21
ATOM     21  C   UNL     1      33.605  12.429   3.513  0.00  0.00    +0.391 C 
ATOM     22  O   UNL     1      34.839  12.207   4.005  0.00  0.00    -0.243 OA
ATOM     23  O   UNL     1      32.298  12.157   3.619  0.00  0.00    -0.243 OA
ENDBRANCH  12  21
ENDBRANCH   8  10
ENDBRANCH   6   8
ENDBRANCH   5   6
ENDBRANCH   2   5
BRANCH   1  24
ATOM     24  O   UNL     1      27.511  16.911  -2.176  0.00  0.00    -0.450 OA
BRANCH  24  25
ATOM     25  C   UNL     1      26.338  16.649  -2.910  0.00  0.00    +0.240 C 
BRANCH  25  26
ATOM     26  C   UNL     1      26.406  15.559  -3.996  0.00  0.00    +0.100 C 
BRANCH  26  28
ATOM     27  N   UNL     1      24.814  14.633  -5.643  0.00  0.00    -0.134 NA
ATOM     28  C   UNL     1      25.047  15.157  -4.402  0.00  0.00    +0.086 A 
ATOM     29  C   UNL     1      23.865  15.184  -3.696  0.00  0.00    +0.134 A 
ATOM     30  N   UNL     1      22.966  14.577  -4.531  0.00  0.00    -0.247 N 
ATOM     31  N   UNL     1      23.538  14.284  -5.712  0.00  0.00    -0.065 NA
BRANCH  30  32
ATOM     32  C   UNL     1      21.598  14.199  -4.189  0.00  0.00    +0.184 C 
BRANCH  32  33
ATOM     33  C   UNL     1      21.419  13.529  -2.848  0.00  0.00    +0.016 A 
ATOM     34  C   UNL     1      21.921  12.241  -2.587  0.00  0.00    +0.137 A 
ATOM     35  C   UNL     1      21.749  11.640  -1.341  0.00  0.00    +0.047 A 
ATOM     36  C   UNL     1      21.082  12.330  -0.328  0.00  0.00    +0.004 A 
ATOM     37  C   UNL     1      20.566  13.601  -0.569  0.00  0.00    +0.001 A 
ATOM     38  C   UNL     1      20.735  14.198  -1.820  0.00  0.00    +0.009 A 
BRANCH  34  39
ATOM     39  O   UNL     1      22.528  11.561  -3.671  0.00  0.00    -0.426 OA
BRANCH  39  40
ATOM     40  C   UNL     1      23.906  11.350  -3.749  0.00  0.00    +0.309 C 
ATOM     41  O   UNL     1      24.768  11.812  -3.014  0.00  0.00    -0.251 OA
ATOM     42  C   UNL     1      24.188  10.379  -4.857  0.00  0.00    +0.136 C 
ENDBRANCH  39  40
ENDBRANCH  34  39
ENDBRANCH  32  33
ENDBRANCH  30  32
ENDBRANCH  26  28
ENDBRANCH  25  26
ENDBRANCH  24  25
ENDBRANCH   1  24
TORSDOF 14
