REMARK VINA RESULT:    -7.500      2.030      3.671
REMARK INTER + INTRA:         -13.388
REMARK INTER:                 -11.407
REMARK INTRA:                  -1.981
REMARK UNBOUND:                -0.626
REMARK  Name = lig_assembled_5.pdb
REMARK  13 active torsions:
REMARK  status: ('A' for Active; 'I' for Inactive)
REMARK    1  A    between atoms: _2  and  _8
REMARK    2  A    between atoms: _5  and  _6
REMARK    3  A    between atoms: _5  and  _15
REMARK    4  A    between atoms: _11  and  _14
REMARK    5  A    between atoms: _12  and  _14
REMARK    6  A    between atoms: _15  and  _17
REMARK    7  A    between atoms: _16  and  _21
REMARK    8  A    between atoms: _17  and  _20
REMARK    9  A    between atoms: _25  and  _35
REMARK   10  A    between atoms: _27  and  _28
REMARK   11  A    between atoms: _29  and  _31
REMARK   12  A    between atoms: _31  and  _33
REMARK   13  A    between atoms: _33  and  _35
REMARK                            x       y       z     vdW  Elec       q    Type
REMARK                         _______ _______ _______ _____ _____    ______ ____
ROOT
ATOM      1  C   UNL     1      28.239  17.087  -0.849  0.00  0.00    +0.400 C 
ATOM      2  N   UNL     1      28.994  16.010  -0.448  0.00  0.00    -0.278 N 
ATOM      3  H   UNL     1      29.311  16.283   0.535  0.00  0.00    +0.152 HD
ATOM      4  O   UNL     1      27.963  17.944  -0.014  0.00  0.00    -0.226 OA
ENDROOT
BRANCH   2   5
ATOM      5  C   UNL     1      29.532  14.686  -0.750  0.00  0.00    +0.152 C 
BRANCH   5   6
ATOM      6  C   UNL     1      30.982  14.421  -0.294  0.00  0.00    +0.193 C 
ATOM      7  O   UNL     1      31.743  15.604  -0.625  0.00  0.00    -0.219 OA
BRANCH   6   8
ATOM      8  C   UNL     1      31.230  14.213   1.216  0.00  0.00    +0.212 C 
ATOM      9  O   UNL     1      31.015  15.439   1.934  0.00  0.00    -0.218 OA
BRANCH   8  10
ATOM     10  C   UNL     1      30.320  13.092   1.849  0.00  0.00    +0.171 C 
ATOM     11  O   UNL     1      28.938  13.435   1.833  0.00  0.00    -0.343 OA
ATOM     12  C   UNL     1      27.947  12.747   2.538  0.00  0.00    +0.220 C 
ATOM     13  C   UNL     1      28.325  12.560   4.017  0.00  0.00    +0.076 C 
ATOM     14  C   UNL     1      29.719  11.911   4.060  0.00  0.00    +0.177 C 
ATOM     15  O   UNL     1      30.100  11.679   5.409  0.00  0.00    -0.221 OA
ATOM     16  C   UNL     1      30.756  12.816   3.325  0.00  0.00    +0.155 C 
BRANCH  16  17
ATOM     17  N   UNL     1      32.082  12.207   3.370  0.00  0.00    -0.202 NA
ATOM     18  C   UNL     1      33.260  12.722   3.805  0.00  0.00    +0.242 C 
ATOM     19  C   UNL     1      34.418  11.782   4.015  0.00  0.00    +0.096 C 
ATOM     20  O   UNL     1      33.354  13.930   4.015  0.00  0.00    -0.273 OA
ENDBRANCH  16  17
BRANCH  12  21
ATOM     21  C   UNL     1      27.521  11.339   1.848  0.00  0.00    +0.391 C 
ATOM     22  O   UNL     1      26.686  10.758   2.731  0.00  0.00    -0.243 OA
ATOM     23  O   UNL     1      27.905  11.424   0.568  0.00  0.00    -0.243 OA
ENDBRANCH  12  21
ENDBRANCH   8  10
ENDBRANCH   6   8
ENDBRANCH   5   6
ENDBRANCH   2   5
BRANCH   1  24
ATOM     24  O   UNL     1      27.914  17.108  -2.100  0.00  0.00    -0.450 OA
BRANCH  24  25
ATOM     25  C   UNL     1      26.939  17.680  -2.941  0.00  0.00    +0.240 C 
BRANCH  25  26
ATOM     26  C   UNL     1      26.232  16.750  -3.945  0.00  0.00    +0.100 C 
BRANCH  26  28
ATOM     27  N   UNL     1      26.542  14.353  -3.414  0.00  0.00    -0.134 NA
ATOM     28  C   UNL     1      25.816  15.501  -3.281  0.00  0.00    +0.086 A 
ATOM     29  C   UNL     1      24.732  15.256  -2.469  0.00  0.00    +0.139 A 
ATOM     30  N   UNL     1      24.854  13.934  -2.101  0.00  0.00    -0.220 N 
ATOM     31  N   UNL     1      25.948  13.404  -2.702  0.00  0.00    -0.061 NA
BRANCH  30  32
ATOM     32  C   UNL     1      24.037  13.178  -1.221  0.00  0.00    +0.067 A 
ATOM     33  C   UNL     1      24.606  12.346  -0.250  0.00  0.00    +0.031 A 
ATOM     34  C   UNL     1      23.785  11.563   0.565  0.00  0.00    +0.048 A 
ATOM     35  C   UNL     1      22.396  11.613   0.441  0.00  0.00    +0.120 A 
ATOM     36  C   UNL     1      21.824  12.455  -0.512  0.00  0.00    +0.048 A 
ATOM     37  C   UNL     1      22.641  13.235  -1.343  0.00  0.00    +0.031 A 
BRANCH  35  38
ATOM     38  O   UNL     1      21.715  10.753   1.257  0.00  0.00    -0.495 OA
ATOM     39  C   UNL     1      22.114   9.389   1.209  0.00  0.00    +0.277 C 
ENDBRANCH  35  38
ENDBRANCH  30  32
ENDBRANCH  26  28
ENDBRANCH  25  26
ENDBRANCH  24  25
ENDBRANCH   1  24
TORSDOF 12
