REMARK VINA RESULT:    -6.269      3.458      9.631
REMARK INTER + INTRA:         -13.761
REMARK INTER:                 -12.196
REMARK INTRA:                  -1.565
REMARK UNBOUND:                -2.911
REMARK  Name = lig_assembled_23.pdb
REMARK  13 active torsions:
REMARK  status: ('A' for Active; 'I' for Inactive)
REMARK    1  A    between atoms: _2  and  _9
REMARK    2  A    between atoms: _3  and  _44
REMARK    3  A    between atoms: _6  and  _7
REMARK    4  A    between atoms: _6  and  _16
REMARK    5  A    between atoms: _11  and  _44
REMARK    6  A    between atoms: _16  and  _18
REMARK    7  A    between atoms: _17  and  _22
REMARK    8  A    between atoms: _18  and  _21
REMARK    9  A    between atoms: _26  and  _36
REMARK   10  A    between atoms: _28  and  _29
REMARK   11  A    between atoms: _30  and  _32
REMARK   12  A    between atoms: _32  and  _34
REMARK   13  A    between atoms: _34  and  _36
REMARK                            x       y       z     vdW  Elec       q    Type
REMARK                         _______ _______ _______ _____ _____    ______ ____
ROOT
ATOM      1  C   UNL     1      27.638  17.290  -1.335  0.00  0.00    +0.400 C 
ATOM      2  N   UNL     1      26.537  16.845  -2.029  0.00  0.00    -0.278 N 
ATOM      3  H   UNL     1      25.810  17.608  -1.854  0.00  0.00    +0.152 HD
ATOM      4  O   UNL     1      27.613  18.430  -0.879  0.00  0.00    -0.226 OA
ENDROOT
BRANCH   2   5
ATOM      5  C   UNL     1      25.936  15.829  -2.889  0.00  0.00    +0.152 C 
BRANCH   5   6
ATOM      6  C   UNL     1      24.766  15.029  -2.279  0.00  0.00    +0.193 C 
ATOM      7  O   UNL     1      23.604  15.309  -3.091  0.00  0.00    -0.219 OA
BRANCH   6   8
ATOM      8  C   UNL     1      24.875  13.488  -2.282  0.00  0.00    +0.212 C 
ATOM      9  O   UNL     1      26.176  13.078  -2.733  0.00  0.00    -0.218 OA
BRANCH   8  10
ATOM     10  C   UNL     1      24.604  12.841  -0.871  0.00  0.00    +0.171 C 
ATOM     11  O   UNL     1      25.626  11.929  -0.481  0.00  0.00    -0.343 OA
ATOM     12  C   UNL     1      25.524  11.043   0.593  0.00  0.00    +0.220 C 
ATOM     13  C   UNL     1      24.221  10.226   0.537  0.00  0.00    +0.076 C 
ATOM     14  C   UNL     1      23.056  11.222   0.406  0.00  0.00    +0.177 C 
ATOM     15  O   UNL     1      21.822  10.520   0.389  0.00  0.00    -0.221 OA
ATOM     16  C   UNL     1      23.233  12.089  -0.879  0.00  0.00    +0.155 C 
BRANCH  16  17
ATOM     17  N   UNL     1      22.125  13.032  -1.011  0.00  0.00    -0.202 NA
ATOM     18  C   UNL     1      21.117  13.066  -1.920  0.00  0.00    +0.242 C 
ATOM     19  C   UNL     1      19.942  13.970  -1.653  0.00  0.00    +0.096 C 
ATOM     20  O   UNL     1      21.185  12.365  -2.929  0.00  0.00    -0.273 OA
ENDBRANCH  16  17
BRANCH  12  21
ATOM     21  C   UNL     1      25.720  11.754   2.041  0.00  0.00    +0.391 C 
ATOM     22  O   UNL     1      25.051  10.969   2.907  0.00  0.00    -0.243 OA
ATOM     23  O   UNL     1      26.698  12.654   1.881  0.00  0.00    -0.243 OA
ENDBRANCH  12  21
ENDBRANCH   8  10
ENDBRANCH   6   8
ENDBRANCH   5   6
ENDBRANCH   2   5
BRANCH   1  24
ATOM     24  O   UNL     1      28.599  16.436  -1.202  0.00  0.00    -0.450 OA
BRANCH  24  25
ATOM     25  C   UNL     1      29.053  15.475  -0.277  0.00  0.00    +0.240 C 
BRANCH  25  26
ATOM     26  C   UNL     1      30.491  15.624   0.254  0.00  0.00    +0.100 C 
BRANCH  26  28
ATOM     27  N   UNL     1      29.685  13.977   1.912  0.00  0.00    -0.134 NA
ATOM     28  C   UNL     1      30.700  14.743   1.418  0.00  0.00    +0.086 A 
ATOM     29  C   UNL     1      31.833  14.528   2.169  0.00  0.00    +0.139 A 
ATOM     30  N   UNL     1      31.460  13.602   3.117  0.00  0.00    -0.220 N 
ATOM     31  N   UNL     1      30.153  13.290   2.945  0.00  0.00    -0.061 NA
BRANCH  30  32
ATOM     32  C   UNL     1      32.239  13.021   4.150  0.00  0.00    +0.069 A 
ATOM     33  C   UNL     1      31.607  12.565   5.316  0.00  0.00    +0.056 A 
ATOM     34  C   UNL     1      32.377  12.023   6.352  0.00  0.00    +0.107 A 
ATOM     35  C   UNL     1      33.762  11.907   6.232  0.00  0.00    +0.028 A 
ATOM     36  C   UNL     1      34.387  12.348   5.066  0.00  0.00    +0.004 A 
ATOM     37  C   UNL     1      33.632  12.907   4.030  0.00  0.00    +0.028 A 
BRANCH  34  38
ATOM     38  S   UNL     1      31.570  11.507   7.837  0.00  0.00    +0.056 S 
ATOM     39  O   UNL     1      30.666  10.425   7.524  0.00  0.00    -0.153 OA
ATOM     40  O   UNL     1      32.540  11.428   8.904  0.00  0.00    -0.153 OA
BRANCH  38  41
ATOM     41  N   UNL     1      30.617  12.839   8.199  0.00  0.00    -0.204 NA
ATOM     42  H   UNL     1      31.170  13.694   8.132  0.00  0.00    +0.144 HD
ATOM     43  H   UNL     1      30.161  12.709   9.104  0.00  0.00    +0.144 HD
ENDBRANCH  38  41
ENDBRANCH  34  38
ENDBRANCH  30  32
ENDBRANCH  26  28
ENDBRANCH  25  26
ENDBRANCH  24  25
ENDBRANCH   1  24
TORSDOF 13
