REMARK VINA RESULT:    -6.109      3.848      8.584
REMARK INTER + INTRA:         -12.233
REMARK INTER:                 -10.269
REMARK INTRA:                  -1.965
REMARK UNBOUND:                -1.839
REMARK  Name = lig_assembled_61.pdb
REMARK  12 active torsions:
REMARK  status: ('A' for Active; 'I' for Inactive)
REMARK    1  A    between atoms: _2  and  _8
REMARK    2  A    between atoms: _5  and  _6
REMARK    3  A    between atoms: _5  and  _12
REMARK    4  A    between atoms: _8  and  _9
REMARK    5  A    between atoms: _12  and  _14
REMARK    6  A    between atoms: _13  and  _18
REMARK    7  A    between atoms: _14  and  _17
REMARK    8  A    between atoms: _22  and  _32
REMARK    9  A    between atoms: _24  and  _25
REMARK   10  A    between atoms: _26  and  _28
REMARK   11  A    between atoms: _28  and  _30
REMARK   12  A    between atoms: _30  and  _32
REMARK                            x       y       z     vdW  Elec       q    Type
REMARK                         _______ _______ _______ _____ _____    ______ ____
ROOT
ATOM      1  C   UNL     1      27.117  17.076  -3.508  0.00  0.00    +0.152 C 
ENDROOT
BRANCH   1   3
ATOM      2  C   UNL     1      27.946  17.788  -1.009  0.00  0.00    +0.400 C 
ATOM      3  N   UNL     1      27.191  17.571  -2.137  0.00  0.00    -0.278 N 
ATOM      4  H   UNL     1      26.230  17.957  -1.869  0.00  0.00    +0.152 HD
ATOM      5  O   UNL     1      27.464  18.475  -0.111  0.00  0.00    -0.226 OA
BRANCH   2   6
ATOM      6  O   UNL     1      29.102  17.210  -0.990  0.00  0.00    -0.450 OA
BRANCH   6   7
ATOM      7  C   UNL     1      29.694  16.020  -0.524  0.00  0.00    +0.240 C 
BRANCH   7   8
ATOM      8  C   UNL     1      30.867  16.149   0.467  0.00  0.00    +0.100 C 
BRANCH   8  10
ATOM      9  N   UNL     1      31.844  14.904   2.369  0.00  0.00    -0.134 NA
ATOM     10  C   UNL     1      30.860  15.027   1.423  0.00  0.00    +0.086 A 
ATOM     11  C   UNL     1      29.970  13.983   1.559  0.00  0.00    +0.134 A 
ATOM     12  N   UNL     1      30.501  13.231   2.565  0.00  0.00    -0.247 N 
ATOM     13  N   UNL     1      31.604  13.808   3.077  0.00  0.00    -0.065 NA
BRANCH  12  14
ATOM     14  C   UNL     1      30.000  11.984   3.114  0.00  0.00    +0.180 C 
BRANCH  14  15
ATOM     15  C   UNL     1      28.584  11.715   2.686  0.00  0.00    -0.019 A 
ATOM     16  C   UNL     1      28.214  10.933   1.538  0.00  0.00    +0.013 A 
ATOM     17  C   UNL     1      26.851  10.876   1.348  0.00  0.00    +0.045 A 
ATOM     18  S   UNL     1      26.000  11.744   2.548  0.00  0.00    -0.105 S 
ATOM     19  C   UNL     1      27.454  12.210   3.316  0.00  0.00    +0.050 A 
ENDBRANCH  14  15
ENDBRANCH  12  14
ENDBRANCH   8  10
ENDBRANCH   7   8
ENDBRANCH   6   7
ENDBRANCH   2   6
ENDBRANCH   1   3
BRANCH   1  20
ATOM     20  C   UNL     1      25.995  16.058  -3.804  0.00  0.00    +0.193 C 
ATOM     21  O   UNL     1      25.957  15.887  -5.238  0.00  0.00    -0.219 OA
BRANCH  20  22
ATOM     22  C   UNL     1      26.164  14.627  -3.250  0.00  0.00    +0.212 C 
ATOM     23  O   UNL     1      26.920  14.648  -2.028  0.00  0.00    -0.218 OA
BRANCH  22  24
ATOM     24  C   UNL     1      24.794  13.895  -2.982  0.00  0.00    +0.171 C 
ATOM     25  O   UNL     1      23.916  14.659  -2.162  0.00  0.00    -0.343 OA
ATOM     26  C   UNL     1      22.752  14.158  -1.573  0.00  0.00    +0.220 C 
ATOM     27  C   UNL     1      23.016  12.846  -0.814  0.00  0.00    +0.076 C 
ATOM     28  C   UNL     1      23.716  11.882  -1.786  0.00  0.00    +0.177 C 
ATOM     29  O   UNL     1      23.948  10.636  -1.145  0.00  0.00    -0.221 OA
ATOM     30  C   UNL     1      25.048  12.511  -2.300  0.00  0.00    +0.155 C 
BRANCH  30  31
ATOM     31  N   UNL     1      25.720  11.595  -3.218  0.00  0.00    -0.202 NA
ATOM     32  C   UNL     1      26.929  10.988  -3.108  0.00  0.00    +0.242 C 
ATOM     33  C   UNL     1      27.254   9.863  -4.057  0.00  0.00    +0.096 C 
ATOM     34  O   UNL     1      27.722  11.364  -2.247  0.00  0.00    -0.273 OA
ENDBRANCH  30  31
BRANCH  26  35
ATOM     35  C   UNL     1      21.514  14.007  -2.614  0.00  0.00    +0.391 C 
ATOM     36  O   UNL     1      20.869  12.890  -2.227  0.00  0.00    -0.243 OA
ATOM     37  O   UNL     1      21.425  15.180  -3.255  0.00  0.00    -0.243 OA
ENDBRANCH  26  35
ENDBRANCH  22  24
ENDBRANCH  20  22
ENDBRANCH   1  20
TORSDOF 12
