REMARK VINA RESULT:    -7.341      1.908      2.894
REMARK INTER + INTRA:         -15.223
REMARK INTER:                 -13.349
REMARK INTRA:                  -1.874
REMARK UNBOUND:                -2.732
REMARK  Name = lig_assembled_85.pdb
REMARK  14 active torsions:
REMARK  status: ('A' for Active; 'I' for Inactive)
REMARK    1  A    between atoms: _2  and  _9
REMARK    2  A    between atoms: _3  and  _5
REMARK    3  A    between atoms: _3  and  _16
REMARK    4  A    between atoms: _6  and  _7
REMARK    5  A    between atoms: _6  and  _18
REMARK    6  A    between atoms: _14  and  _15
REMARK    7  A    between atoms: _18  and  _20
REMARK    8  A    between atoms: _19  and  _24
REMARK    9  A    between atoms: _20  and  _23
REMARK   10  A    between atoms: _28  and  _38
REMARK   11  A    between atoms: _30  and  _31
REMARK   12  A    between atoms: _32  and  _34
REMARK   13  A    between atoms: _34  and  _36
REMARK   14  A    between atoms: _36  and  _38
REMARK                            x       y       z     vdW  Elec       q    Type
REMARK                         _______ _______ _______ _____ _____    ______ ____
ROOT
ATOM      1  C   UNL     1      27.859  17.305  -1.235  0.00  0.00    +0.400 C 
ATOM      2  N   UNL     1      28.206  16.239  -0.439  0.00  0.00    -0.278 N 
ATOM      3  H   UNL     1      28.512  16.702   0.475  0.00  0.00    +0.152 HD
ATOM      4  O   UNL     1      27.796  18.418  -0.718  0.00  0.00    -0.226 OA
ENDROOT
BRANCH   2   5
ATOM      5  C   UNL     1      28.329  14.793  -0.281  0.00  0.00    +0.152 C 
BRANCH   5   6
ATOM      6  C   UNL     1      29.512  14.300   0.578  0.00  0.00    +0.193 C 
ATOM      7  O   UNL     1      29.290  12.894   0.824  0.00  0.00    -0.219 OA
BRANCH   6   8
ATOM      8  C   UNL     1      30.924  14.365  -0.044  0.00  0.00    +0.212 C 
ATOM      9  O   UNL     1      31.316  15.730  -0.259  0.00  0.00    -0.218 OA
BRANCH   8  10
ATOM     10  C   UNL     1      32.025  13.656   0.832  0.00  0.00    +0.171 C 
ATOM     11  O   UNL     1      32.183  14.263   2.110  0.00  0.00    -0.343 OA
ATOM     12  C   UNL     1      33.240  13.998   2.984  0.00  0.00    +0.220 C 
ATOM     13  C   UNL     1      34.604  14.118   2.282  0.00  0.00    +0.076 C 
ATOM     14  C   UNL     1      34.560  13.226   1.030  0.00  0.00    +0.177 C 
ATOM     15  O   UNL     1      35.813  13.270   0.363  0.00  0.00    -0.221 OA
ATOM     16  C   UNL     1      33.401  13.679   0.088  0.00  0.00    +0.155 C 
BRANCH  16  17
ATOM     17  N   UNL     1      33.360  12.839  -1.106  0.00  0.00    -0.202 NA
ATOM     18  C   UNL     1      33.399  13.191  -2.417  0.00  0.00    +0.242 C 
ATOM     19  C   UNL     1      33.639  12.112  -3.440  0.00  0.00    +0.096 C 
ATOM     20  O   UNL     1      33.240  14.368  -2.735  0.00  0.00    -0.273 OA
ENDBRANCH  16  17
BRANCH  12  21
ATOM     21  C   UNL     1      33.094  12.581   3.766  0.00  0.00    +0.391 C 
ATOM     22  O   UNL     1      34.356  12.215   4.061  0.00  0.00    -0.243 OA
ATOM     23  O   UNL     1      31.798  12.466   4.083  0.00  0.00    -0.243 OA
ENDBRANCH  12  21
ENDBRANCH   8  10
ENDBRANCH   6   8
ENDBRANCH   5   6
ENDBRANCH   2   5
BRANCH   1  24
ATOM     24  O   UNL     1      27.658  17.031  -2.482  0.00  0.00    -0.450 OA
BRANCH  24  25
ATOM     25  C   UNL     1      26.701  17.269  -3.488  0.00  0.00    +0.240 C 
BRANCH  25  26
ATOM     26  C   UNL     1      26.515  16.182  -4.564  0.00  0.00    +0.100 C 
BRANCH  26  28
ATOM     27  N   UNL     1      25.227  14.090  -4.809  0.00  0.00    -0.134 NA
ATOM     28  C   UNL     1      25.378  15.312  -4.219  0.00  0.00    +0.086 A 
ATOM     29  C   UNL     1      24.376  15.498  -3.292  0.00  0.00    +0.139 A 
ATOM     30  N   UNL     1      23.632  14.344  -3.350  0.00  0.00    -0.219 N 
ATOM     31  N   UNL     1      24.180  13.498  -4.255  0.00  0.00    -0.061 NA
BRANCH  30  32
ATOM     32  C   UNL     1      22.525  13.949  -2.570  0.00  0.00    +0.080 A 
ATOM     33  C   UNL     1      21.247  14.522  -2.665  0.00  0.00    +0.062 A 
ATOM     34  C   UNL     1      20.308  14.204  -1.656  0.00  0.00    +0.016 A 
ATOM     35  C   UNL     1      20.615  13.331  -0.607  0.00  0.00    +0.021 A 
ATOM     36  C   UNL     1      21.859  12.718  -0.572  0.00  0.00    +0.043 A 
ATOM     37 CL   UNL     1      22.266  11.670   0.728  0.00  0.00    -0.083 Cl
ATOM     38  C   UNL     1      22.801  13.000  -1.558  0.00  0.00    +0.048 A 
BRANCH  33  39
ATOM     39  C   UNL     1      20.741  15.509  -3.663  0.00  0.00    +0.248 C 
ATOM     40  O   UNL     1      21.049  16.683  -3.438  0.00  0.00    -0.270 OA
ATOM     41  N   UNL     1      19.921  15.174  -4.746  0.00  0.00    -0.304 N 
ATOM     42  C   UNL     1      19.573  13.844  -5.225  0.00  0.00    +0.132 C 
ATOM     43  C   UNL     1      19.514  16.273  -5.616  0.00  0.00    +0.132 C 
ENDBRANCH  33  39
ENDBRANCH  30  32
ENDBRANCH  26  28
ENDBRANCH  25  26
ENDBRANCH  24  25
ENDBRANCH   1  24
TORSDOF 12
