REMARK VINA RESULT:    -6.971      2.340      8.022
REMARK INTER + INTRA:         -13.405
REMARK INTER:                 -11.435
REMARK INTRA:                  -1.970
REMARK UNBOUND:                -1.544
REMARK  Name = lig_assembled_69.pdb
REMARK  13 active torsions:
REMARK  status: ('A' for Active; 'I' for Inactive)
REMARK    1  A    between atoms: _2  and  _8
REMARK    2  A    between atoms: _5  and  _6
REMARK    3  A    between atoms: _5  and  _16
REMARK    4  A    between atoms: _10  and  _15
REMARK    5  A    between atoms: _13  and  _14
REMARK    6  A    between atoms: _16  and  _18
REMARK    7  A    between atoms: _17  and  _22
REMARK    8  A    between atoms: _18  and  _21
REMARK    9  A    between atoms: _26  and  _36
REMARK   10  A    between atoms: _28  and  _29
REMARK   11  A    between atoms: _30  and  _32
REMARK   12  A    between atoms: _32  and  _34
REMARK   13  A    between atoms: _34  and  _36
REMARK                            x       y       z     vdW  Elec       q    Type
REMARK                         _______ _______ _______ _____ _____    ______ ____
ROOT
ATOM      1  C   UNL     1      28.077  17.079  -1.075  0.00  0.00    +0.400 C 
ATOM      2  N   UNL     1      28.258  15.786  -0.643  0.00  0.00    -0.278 N 
ATOM      3  H   UNL     1      28.618  15.907   0.356  0.00  0.00    +0.152 HD
ATOM      4  O   UNL     1      28.171  17.983  -0.249  0.00  0.00    -0.226 OA
ENDROOT
BRANCH   1   5
ATOM      5  O   UNL     1      27.851  17.220  -2.339  0.00  0.00    -0.450 OA
BRANCH   5   6
ATOM      6  C   UNL     1      26.776  17.489  -3.209  0.00  0.00    +0.240 C 
BRANCH   6   7
ATOM      7  C   UNL     1      26.439  16.427  -4.272  0.00  0.00    +0.100 C 
BRANCH   7   9
ATOM      8  N   UNL     1      24.549  14.891  -4.696  0.00  0.00    -0.134 NA
ATOM      9  C   UNL     1      25.341  15.561  -3.803  0.00  0.00    +0.086 A 
ATOM     10  C   UNL     1      24.916  15.280  -2.524  0.00  0.00    +0.134 A 
ATOM     11  N   UNL     1      23.855  14.444  -2.707  0.00  0.00    -0.248 N 
ATOM     12  N   UNL     1      23.638  14.215  -4.014  0.00  0.00    -0.065 NA
BRANCH  11  13
ATOM     13  C   UNL     1      22.973  13.872  -1.690  0.00  0.00    +0.114 C 
ATOM     14  C   UNL     1      23.743  12.955  -0.731  0.00  0.00    +0.062 C 
ATOM     15  C   UNL     1      23.941  11.509  -1.191  0.00  0.00    +0.139 C 
ATOM     16  C   UNL     1      22.717  10.638  -1.213  0.00  0.00    +0.002 C 
ATOM     17  C   UNL     1      21.427  11.006  -1.266  0.00  0.00    +0.002 C 
ATOM     18  C   UNL     1      20.872  12.383  -1.466  0.00  0.00    +0.139 C 
ATOM     19  C   UNL     1      21.722  13.283  -2.357  0.00  0.00    +0.062 C 
BRANCH  18  20
ATOM     20  O   UNL     1      20.660  12.993  -0.203  0.00  0.00    -0.388 OA
ATOM     21  H   UNL     1      21.009  12.387   0.475  0.00  0.00    +0.210 HD
ENDBRANCH  18  20
BRANCH  15  22
ATOM     22  O   UNL     1      24.833  10.891  -0.255  0.00  0.00    -0.388 OA
ATOM     23  H   UNL     1      25.426  11.585   0.081  0.00  0.00    +0.210 HD
ENDBRANCH  15  22
ENDBRANCH  11  13
ENDBRANCH   7   9
ENDBRANCH   6   7
ENDBRANCH   5   6
ENDBRANCH   1   5
BRANCH   2  24
ATOM     24  C   UNL     1      28.168  14.356  -0.926  0.00  0.00    +0.152 C 
BRANCH  24  25
ATOM     25  C   UNL     1      28.319  13.413   0.286  0.00  0.00    +0.193 C 
ATOM     26  O   UNL     1      26.998  12.912   0.589  0.00  0.00    -0.219 OA
BRANCH  25  27
ATOM     27  C   UNL     1      29.179  12.143   0.101  0.00  0.00    +0.212 C 
ATOM     28  O   UNL     1      29.848  12.171  -1.170  0.00  0.00    -0.218 OA
BRANCH  27  29
ATOM     29  C   UNL     1      30.258  11.949   1.234  0.00  0.00    +0.171 C 
ATOM     30  O   UNL     1      29.683  11.555   2.475  0.00  0.00    -0.343 OA
ATOM     31  C   UNL     1      30.366  11.550   3.694  0.00  0.00    +0.220 C 
ATOM     32  C   UNL     1      31.075  12.890   3.956  0.00  0.00    +0.076 C 
ATOM     33  C   UNL     1      31.945  13.201   2.727  0.00  0.00    +0.177 C 
ATOM     34  O   UNL     1      32.656  14.413   2.935  0.00  0.00    -0.221 OA
ATOM     35  C   UNL     1      31.059  13.276   1.446  0.00  0.00    +0.155 C 
BRANCH  35  36
ATOM     36  N   UNL     1      31.881  13.578   0.277  0.00  0.00    -0.202 NA
ATOM     37  C   UNL     1      32.050  14.751  -0.385  0.00  0.00    +0.242 C 
ATOM     38  C   UNL     1      33.181  14.856  -1.376  0.00  0.00    +0.096 C 
ATOM     39  O   UNL     1      31.288  15.690  -0.162  0.00  0.00    -0.273 OA
ENDBRANCH  35  36
BRANCH  31  40
ATOM     40  C   UNL     1      31.383  10.294   3.860  0.00  0.00    +0.391 C 
ATOM     41  O   UNL     1      31.095   9.474   2.830  0.00  0.00    -0.243 OA
ATOM     42  O   UNL     1      32.304  10.679   4.752  0.00  0.00    -0.243 OA
ENDBRANCH  31  40
ENDBRANCH  27  29
ENDBRANCH  25  27
ENDBRANCH  24  25
ENDBRANCH   2  24
TORSDOF 13
