REMARK VINA RESULT:    -6.766     23.812     26.747
REMARK INTER + INTRA:         -14.418
REMARK INTER:                 -12.303
REMARK INTRA:                  -2.115
REMARK UNBOUND:                -2.115
REMARK  Name = lig_assembled_26.pdb
REMARK  15 active torsions:
REMARK  status: ('A' for Active; 'I' for Inactive)
REMARK    1  A    between atoms: _2  and  _8
REMARK    2  A    between atoms: _5  and  _6
REMARK    3  A    between atoms: _5  and  _18
REMARK    4  A    between atoms: _8  and  _9
REMARK    5  A    between atoms: _8  and  _10
REMARK    6  A    between atoms: _10  and  _11
REMARK    7  A    between atoms: _11  and  _12
REMARK    8  A    between atoms: _18  and  _20
REMARK    9  A    between atoms: _19  and  _24
REMARK   10  A    between atoms: _20  and  _23
REMARK   11  A    between atoms: _28  and  _38
REMARK   12  A    between atoms: _30  and  _31
REMARK   13  A    between atoms: _32  and  _34
REMARK   14  A    between atoms: _34  and  _36
REMARK   15  A    between atoms: _36  and  _38
REMARK                            x       y       z     vdW  Elec       q    Type
REMARK                         _______ _______ _______ _____ _____    ______ ____
ROOT
ATOM      1  C   UNL     1      34.292  42.178   7.681  0.00  0.00    +0.400 C 
ATOM      2  N   UNL     1      33.866  42.444   6.401  0.00  0.00    -0.278 N 
ATOM      3  H   UNL     1      34.298  43.399   6.190  0.00  0.00    +0.152 HD
ATOM      4  O   UNL     1      35.139  42.918   8.175  0.00  0.00    -0.226 OA
ENDROOT
BRANCH   2   5
ATOM      5  C   UNL     1      33.118  42.012   5.224  0.00  0.00    +0.152 C 
BRANCH   5   6
ATOM      6  C   UNL     1      33.866  41.083   4.246  0.00  0.00    +0.193 C 
ATOM      7  O   UNL     1      32.900  40.651   3.262  0.00  0.00    -0.219 OA
BRANCH   6   8
ATOM      8  C   UNL     1      35.015  41.695   3.416  0.00  0.00    +0.212 C 
ATOM      9  O   UNL     1      35.737  42.663   4.195  0.00  0.00    -0.218 OA
BRANCH   8  10
ATOM     10  C   UNL     1      36.036  40.621   2.876  0.00  0.00    +0.171 C 
ATOM     11  O   UNL     1      35.661  40.099   1.605  0.00  0.00    -0.343 OA
ATOM     12  C   UNL     1      36.241  38.976   1.012  0.00  0.00    +0.220 C 
ATOM     13  C   UNL     1      36.275  37.776   1.975  0.00  0.00    +0.076 C 
ATOM     14  C   UNL     1      36.951  38.244   3.274  0.00  0.00    +0.177 C 
ATOM     15  O   UNL     1      37.044  37.160   4.187  0.00  0.00    -0.221 OA
ATOM     16  C   UNL     1      36.160  39.439   3.892  0.00  0.00    +0.155 C 
BRANCH  16  17
ATOM     17  N   UNL     1      36.795  39.883   5.130  0.00  0.00    -0.202 NA
ATOM     18  C   UNL     1      36.515  39.552   6.416  0.00  0.00    +0.242 C 
ATOM     19  C   UNL     1      37.512  39.922   7.484  0.00  0.00    +0.096 C 
ATOM     20  O   UNL     1      35.467  38.965   6.678  0.00  0.00    -0.273 OA
ENDBRANCH  16  17
BRANCH  12  21
ATOM     21  C   UNL     1      37.704  39.266   0.369  0.00  0.00    +0.391 C 
ATOM     22  O   UNL     1      37.915  40.582   0.566  0.00  0.00    -0.243 OA
ATOM     23  O   UNL     1      38.263  38.067   0.165  0.00  0.00    -0.243 OA
ENDBRANCH  12  21
ENDBRANCH   8  10
ENDBRANCH   6   8
ENDBRANCH   5   6
ENDBRANCH   2   5
BRANCH   1  24
ATOM     24  O   UNL     1      33.726  41.172   8.262  0.00  0.00    -0.450 OA
BRANCH  24  25
ATOM     25  C   UNL     1      32.487  40.830   8.839  0.00  0.00    +0.240 C 
BRANCH  25  26
ATOM     26  C   UNL     1      32.036  39.361   8.737  0.00  0.00    +0.100 C 
BRANCH  26  28
ATOM     27  N   UNL     1      31.464  39.263   6.324  0.00  0.00    -0.134 NA
ATOM     28  C   UNL     1      31.072  39.195   7.635  0.00  0.00    +0.086 A 
ATOM     29  C   UNL     1      29.719  38.957   7.689  0.00  0.00    +0.134 A 
ATOM     30  N   UNL     1      29.334  38.916   6.382  0.00  0.00    -0.248 N 
ATOM     31  N   UNL     1      30.393  39.072   5.563  0.00  0.00    -0.065 NA
BRANCH  30  32
ATOM     32  C   UNL     1      28.019  38.663   5.813  0.00  0.00    +0.113 C 
ATOM     33  C   UNL     1      27.760  39.373   4.475  0.00  0.00    +0.033 C 
BRANCH  32  34
ATOM     34  C   UNL     1      27.681  37.163   5.737  0.00  0.00    +0.106 C 
BRANCH  34  35
ATOM     35  C   UNL     1      26.820  36.666   6.884  0.00  0.00    +0.165 C 
ATOM     36  O   UNL     1      25.699  37.119   7.109  0.00  0.00    -0.292 OA
BRANCH  35  37
ATOM     37  C   UNL     1      27.369  35.618   7.794  0.00  0.00    +0.017 A 
ATOM     38  C   UNL     1      28.694  35.172   7.715  0.00  0.00    +0.011 A 
ATOM     39  C   UNL     1      29.167  34.218   8.620  0.00  0.00    +0.001 A 
ATOM     40  C   UNL     1      28.320  33.701   9.600  0.00  0.00    +0.000 A 
ATOM     41  C   UNL     1      26.999  34.130   9.678  0.00  0.00    +0.001 A 
ATOM     42  C   UNL     1      26.523  35.085   8.778  0.00  0.00    +0.011 A 
ENDBRANCH  35  37
ENDBRANCH  34  35
ENDBRANCH  32  34
ENDBRANCH  30  32
ENDBRANCH  26  28
ENDBRANCH  25  26
ENDBRANCH  24  25
ENDBRANCH   1  24
TORSDOF 14
