REMARK VINA RESULT:    -7.727      1.338      3.152
REMARK INTER + INTRA:         -18.305
REMARK INTER:                 -16.731
REMARK INTRA:                  -1.574
REMARK UNBOUND:                -3.125
REMARK  Name = lig_assembled_47.pdb
REMARK  17 active torsions:
REMARK  status: ('A' for Active; 'I' for Inactive)
REMARK    1  A    between atoms: _2  and  _8
REMARK    2  A    between atoms: _5  and  _6
REMARK    3  A    between atoms: _5  and  _25
REMARK    4  A    between atoms: _8  and  _9
REMARK    5  A    between atoms: _9  and  _10
REMARK    6  A    between atoms: _9  and  _11
REMARK    7  A    between atoms: _10  and  _23
REMARK    8  A    between atoms: _11  and  _12
REMARK    9  A    between atoms: _11  and  _18
REMARK   10  A    between atoms: _25  and  _27
REMARK   11  A    between atoms: _26  and  _31
REMARK   12  A    between atoms: _27  and  _30
REMARK   13  A    between atoms: _35  and  _45
REMARK   14  A    between atoms: _37  and  _38
REMARK   15  A    between atoms: _39  and  _41
REMARK   16  A    between atoms: _41  and  _43
REMARK   17  A    between atoms: _43  and  _45
REMARK                            x       y       z     vdW  Elec       q    Type
REMARK                         _______ _______ _______ _____ _____    ______ ____
ROOT
ATOM      1  C   UNL     1      26.909  16.536  -4.237  0.00  0.00    +0.100 C 
ENDROOT
BRANCH   1   3
ATOM      2  N   UNL     1      25.490  15.034  -5.614  0.00  0.00    -0.134 NA
ATOM      3  C   UNL     1      25.690  15.731  -4.450  0.00  0.00    +0.086 A 
ATOM      4  C   UNL     1      24.598  15.551  -3.630  0.00  0.00    +0.133 A 
ATOM      5  N   UNL     1      23.751  14.778  -4.370  0.00  0.00    -0.251 N 
ATOM      6  N   UNL     1      24.298  14.453  -5.552  0.00  0.00    -0.065 NA
BRANCH   5   7
ATOM      7  C   UNL     1      22.364  14.443  -4.085  0.00  0.00    +0.160 C 
BRANCH   7   8
ATOM      8  C   UNL     1      21.766  15.224  -2.911  0.00  0.00    +0.131 C 
BRANCH   8   9
ATOM      9  C   UNL     1      21.153  16.499  -3.474  0.00  0.00    +0.311 C 
ATOM     10  O   UNL     1      20.162  16.500  -4.187  0.00  0.00    -0.251 OA
BRANCH   9  11
ATOM     11  O   UNL     1      21.690  17.666  -3.062  0.00  0.00    -0.480 OA
ATOM     12  H   UNL     1      21.150  18.263  -2.517  0.00  0.00    +0.295 HD
ENDBRANCH   9  11
ENDBRANCH   8   9
BRANCH   8  13
ATOM     13  C   UNL     1      20.746  14.419  -2.045  0.00  0.00    +0.064 C 
BRANCH  13  14
ATOM     14  C   UNL     1      19.652  13.682  -2.820  0.00  0.00    -0.039 A 
ATOM     15  C   UNL     1      18.335  14.183  -2.816  0.00  0.00    +0.004 A 
ATOM     16  C   UNL     1      17.312  13.532  -3.514  0.00  0.00    +0.000 A 
ATOM     17  C   UNL     1      17.580  12.361  -4.215  0.00  0.00    +0.000 A 
ATOM     18  C   UNL     1      18.870  11.839  -4.214  0.00  0.00    +0.000 A 
ATOM     19  C   UNL     1      19.898  12.498  -3.532  0.00  0.00    +0.004 A 
ENDBRANCH  13  14
BRANCH  13  20
ATOM     20  C   UNL     1      21.492  13.514  -1.055  0.00  0.00    -0.039 A 
ATOM     21  C   UNL     1      22.872  13.294  -1.194  0.00  0.00    +0.004 A 
ATOM     22  C   UNL     1      23.522  12.341  -0.404  0.00  0.00    +0.000 A 
ATOM     23  C   UNL     1      22.812  11.616   0.551  0.00  0.00    +0.000 A 
ATOM     24  C   UNL     1      21.454  11.851   0.728  0.00  0.00    +0.000 A 
ATOM     25  C   UNL     1      20.801  12.792  -0.066  0.00  0.00    +0.004 A 
ENDBRANCH  13  20
ENDBRANCH   8  13
ENDBRANCH   7   8
ENDBRANCH   5   7
ENDBRANCH   1   3
BRANCH   1  26
ATOM     26  C   UNL     1      26.848  17.287  -2.893  0.00  0.00    +0.240 C 
BRANCH  26  27
ATOM     27  O   UNL     1      27.870  17.030  -1.958  0.00  0.00    -0.450 OA
BRANCH  27  28
ATOM     28  C   UNL     1      28.156  17.285  -0.723  0.00  0.00    +0.400 C 
ATOM     29  N   UNL     1      29.102  16.468  -0.150  0.00  0.00    -0.278 N 
ATOM     30  H   UNL     1      29.328  16.961   0.771  0.00  0.00    +0.152 HD
ATOM     31  O   UNL     1      27.687  18.194  -0.043  0.00  0.00    -0.226 OA
BRANCH  29  32
ATOM     32  C   UNL     1      29.907  15.252  -0.227  0.00  0.00    +0.152 C 
BRANCH  32  33
ATOM     33  C   UNL     1      31.347  15.354   0.317  0.00  0.00    +0.193 C 
ATOM     34  O   UNL     1      31.239  15.723   1.710  0.00  0.00    -0.219 OA
BRANCH  33  35
ATOM     35  C   UNL     1      32.201  14.067   0.325  0.00  0.00    +0.212 C 
ATOM     36  O   UNL     1      33.480  14.310  -0.282  0.00  0.00    -0.218 OA
BRANCH  35  37
ATOM     37  C   UNL     1      32.432  13.479   1.769  0.00  0.00    +0.171 C 
ATOM     38  O   UNL     1      33.812  13.382   2.107  0.00  0.00    -0.343 OA
ATOM     39  C   UNL     1      34.306  12.681   3.209  0.00  0.00    +0.220 C 
ATOM     40  C   UNL     1      33.748  11.248   3.271  0.00  0.00    +0.076 C 
ATOM     41  C   UNL     1      32.215  11.345   3.199  0.00  0.00    +0.177 C 
ATOM     42  O   UNL     1      31.646  10.047   3.293  0.00  0.00    -0.221 OA
ATOM     43  C   UNL     1      31.783  12.061   1.882  0.00  0.00    +0.155 C 
BRANCH  43  44
ATOM     44  N   UNL     1      30.326  12.149   1.807  0.00  0.00    -0.202 NA
ATOM     45  C   UNL     1      29.453  12.797   2.619  0.00  0.00    +0.242 C 
ATOM     46  C   UNL     1      28.033  12.971   2.149  0.00  0.00    +0.096 C 
ATOM     47  O   UNL     1      29.837  13.224   3.707  0.00  0.00    -0.273 OA
ENDBRANCH  43  44
BRANCH  39  48
ATOM     48  C   UNL     1      34.101  13.462   4.619  0.00  0.00    +0.391 C 
ATOM     49  O   UNL     1      34.212  12.509   5.564  0.00  0.00    -0.243 OA
ATOM     50  O   UNL     1      34.201  14.767   4.336  0.00  0.00    -0.243 OA
ENDBRANCH  39  48
ENDBRANCH  35  37
ENDBRANCH  33  35
ENDBRANCH  32  33
ENDBRANCH  29  32
ENDBRANCH  27  28
ENDBRANCH  26  27
ENDBRANCH   1  26
TORSDOF 17
