REMARK VINA RESULT:    -5.859      3.714      8.527
REMARK INTER + INTRA:         -11.891
REMARK INTER:                 -10.047
REMARK INTRA:                  -1.843
REMARK UNBOUND:                -2.263
REMARK  Name = lig_assembled_52.pdb
REMARK  11 active torsions:
REMARK  status: ('A' for Active; 'I' for Inactive)
REMARK    1  A    between atoms: _2  and  _9
REMARK    2  A    between atoms: _6  and  _7
REMARK    3  A    between atoms: _6  and  _13
REMARK    4  A    between atoms: _13  and  _15
REMARK    5  A    between atoms: _14  and  _19
REMARK    6  A    between atoms: _15  and  _18
REMARK    7  A    between atoms: _23  and  _33
REMARK    8  A    between atoms: _25  and  _26
REMARK    9  A    between atoms: _27  and  _29
REMARK   10  A    between atoms: _29  and  _31
REMARK   11  A    between atoms: _31  and  _33
REMARK                            x       y       z     vdW  Elec       q    Type
REMARK                         _______ _______ _______ _____ _____    ______ ____
ROOT
ATOM      1  C   UNL     1      22.623  15.587  -3.468  0.00  0.00    +0.152 C 
ENDROOT
BRANCH   1   3
ATOM      2  C   UNL     1      25.197  15.537  -4.375  0.00  0.00    +0.400 C 
ATOM      3  N   UNL     1      23.835  15.385  -4.259  0.00  0.00    -0.278 N 
ATOM      4  H   UNL     1      23.565  14.878  -5.160  0.00  0.00    +0.152 HD
ATOM      5  O   UNL     1      25.769  14.952  -5.291  0.00  0.00    -0.226 OA
BRANCH   2   6
ATOM      6  O   UNL     1      25.748  16.321  -3.508  0.00  0.00    -0.450 OA
BRANCH   6   7
ATOM      7  C   UNL     1      26.895  17.128  -3.374  0.00  0.00    +0.240 C 
BRANCH   7   8
ATOM      8  C   UNL     1      27.116  17.832  -2.022  0.00  0.00    +0.100 C 
BRANCH   8  10
ATOM      9  N   UNL     1      29.358  17.825  -0.975  0.00  0.00    -0.134 NA
ATOM     10  C   UNL     1      28.198  17.169  -1.271  0.00  0.00    +0.086 A 
ATOM     11  C   UNL     1      28.263  15.893  -0.760  0.00  0.00    +0.140 A 
ATOM     12  N   UNL     1      29.488  15.822  -0.135  0.00  0.00    -0.218 N 
ATOM     13  N   UNL     1      30.137  17.001  -0.290  0.00  0.00    -0.060 NA
BRANCH  12  14
ATOM     14  C   UNL     1      30.050  14.746   0.584  0.00  0.00    +0.085 A 
ATOM     15  C   UNL     1      31.420  14.468   0.551  0.00  0.00    +0.031 A 
ATOM     16  C   UNL     1      31.910  13.377   1.265  0.00  0.00    +0.022 A 
ATOM     17  C   UNL     1      31.017  12.605   1.989  0.00  0.00    +0.111 A 
ATOM     18  N   UNL     1      29.691  12.851   2.047  0.00  0.00    -0.261 NA
ATOM     19  C   UNL     1      29.232  13.917   1.344  0.00  0.00    +0.138 A 
ENDBRANCH  12  14
ENDBRANCH   8  10
ENDBRANCH   7   8
ENDBRANCH   6   7
ENDBRANCH   2   6
ENDBRANCH   1   3
BRANCH   1  20
ATOM     20  C   UNL     1      22.416  14.622  -2.283  0.00  0.00    +0.193 C 
ATOM     21  O   UNL     1      21.015  14.688  -1.934  0.00  0.00    -0.219 OA
BRANCH  20  22
ATOM     22  C   UNL     1      22.681  13.121  -2.529  0.00  0.00    +0.212 C 
ATOM     23  O   UNL     1      22.525  12.805  -3.922  0.00  0.00    -0.218 OA
BRANCH  22  24
ATOM     24  C   UNL     1      24.114  12.656  -2.064  0.00  0.00    +0.171 C 
ATOM     25  O   UNL     1      24.991  12.407  -3.158  0.00  0.00    -0.343 OA
ATOM     26  C   UNL     1      26.224  11.760  -3.049  0.00  0.00    +0.220 C 
ATOM     27  C   UNL     1      26.104  10.430  -2.285  0.00  0.00    +0.076 C 
ATOM     28  C   UNL     1      25.407  10.726  -0.946  0.00  0.00    +0.177 C 
ATOM     29  O   UNL     1      25.307   9.534  -0.181  0.00  0.00    -0.221 OA
ATOM     30  C   UNL     1      24.003  11.357  -1.200  0.00  0.00    +0.155 C 
BRANCH  30  31
ATOM     31  N   UNL     1      23.335  11.634   0.070  0.00  0.00    -0.202 NA
ATOM     32  C   UNL     1      22.273  11.014   0.645  0.00  0.00    +0.242 C 
ATOM     33  C   UNL     1      21.971  11.307   2.091  0.00  0.00    +0.096 C 
ATOM     34  O   UNL     1      21.592  10.235  -0.019  0.00  0.00    -0.273 OA
ENDBRANCH  30  31
BRANCH  26  35
ATOM     35  C   UNL     1      27.395  12.700  -2.430  0.00  0.00    +0.391 C 
ATOM     36  O   UNL     1      27.555  12.269  -1.164  0.00  0.00    -0.243 OA
ATOM     37  O   UNL     1      27.956  13.326  -3.473  0.00  0.00    -0.243 OA
ENDBRANCH  26  35
ENDBRANCH  22  24
ENDBRANCH  20  22
ENDBRANCH   1  20
TORSDOF 11
