REMARK VINA RESULT:    -7.295      1.493      3.492
REMARK INTER + INTRA:         -15.025
REMARK INTER:                 -13.904
REMARK INTRA:                  -1.120
REMARK UNBOUND:                -1.120
REMARK  Name = lig_assembled_76.pdb
REMARK  16 active torsions:
REMARK  status: ('A' for Active; 'I' for Inactive)
REMARK    1  A    between atoms: _2  and  _8
REMARK    2  A    between atoms: _5  and  _6
REMARK    3  A    between atoms: _5  and  _18
REMARK    4  A    between atoms: _8  and  _9
REMARK    5  A    between atoms: _9  and  _10
REMARK    6  A    between atoms: _9  and  _17
REMARK    7  A    between atoms: _10  and  _11
REMARK    8  A    between atoms: _11  and  _12
REMARK    9  A    between atoms: _18  and  _20
REMARK   10  A    between atoms: _19  and  _24
REMARK   11  A    between atoms: _20  and  _23
REMARK   12  A    between atoms: _28  and  _38
REMARK   13  A    between atoms: _30  and  _31
REMARK   14  A    between atoms: _32  and  _34
REMARK   15  A    between atoms: _34  and  _36
REMARK   16  A    between atoms: _36  and  _38
REMARK                            x       y       z     vdW  Elec       q    Type
REMARK                         _______ _______ _______ _____ _____    ______ ____
ROOT
ATOM      1  C   UNL     1      28.001  17.385  -0.646  0.00  0.00    +0.400 C 
ATOM      2  N   UNL     1      28.525  16.386   0.140  0.00  0.00    -0.278 N 
ATOM      3  H   UNL     1      28.713  16.876   1.071  0.00  0.00    +0.152 HD
ATOM      4  O   UNL     1      27.715  18.453  -0.111  0.00  0.00    -0.226 OA
ENDROOT
BRANCH   1   5
ATOM      5  O   UNL     1      27.888  17.107  -1.903  0.00  0.00    -0.450 OA
BRANCH   5   6
ATOM      6  C   UNL     1      26.943  16.566  -2.797  0.00  0.00    +0.240 C 
BRANCH   6   7
ATOM      7  C   UNL     1      26.782  15.034  -2.820  0.00  0.00    +0.100 C 
BRANCH   7   9
ATOM      8  N   UNL     1      24.952  13.384  -3.093  0.00  0.00    -0.134 NA
ATOM      9  C   UNL     1      25.415  14.668  -3.225  0.00  0.00    +0.086 A 
ATOM     10  C   UNL     1      24.426  15.450  -3.778  0.00  0.00    +0.133 A 
ATOM     11  N   UNL     1      23.388  14.586  -3.952  0.00  0.00    -0.249 N 
ATOM     12  N   UNL     1      23.706  13.345  -3.551  0.00  0.00    -0.065 NA
BRANCH  11  13
ATOM     13  C   UNL     1      22.127  14.841  -4.611  0.00  0.00    +0.176 C 
BRANCH  13  14
ATOM     14  C   UNL     1      21.103  15.520  -3.696  0.00  0.00    +0.136 C 
BRANCH  14  15
ATOM     15  O   UNL     1      21.112  16.939  -3.911  0.00  0.00    -0.390 OA
ATOM     16  H   UNL     1      20.280  17.201  -4.341  0.00  0.00    +0.210 HD
ENDBRANCH  14  15
BRANCH  14  17
ATOM     17  C   UNL     1      19.670  15.026  -3.951  0.00  0.00    +0.038 C 
BRANCH  17  18
ATOM     18  C   UNL     1      19.010  14.407  -2.718  0.00  0.00    +0.038 C 
BRANCH  18  19
ATOM     19  C   UNL     1      19.896  13.384  -2.054  0.00  0.00    -0.047 A 
ATOM     20  C   UNL     1      20.348  13.586  -0.743  0.00  0.00    +0.003 A 
ATOM     21  C   UNL     1      21.154  12.632  -0.119  0.00  0.00    +0.000 A 
ATOM     22  C   UNL     1      21.518  11.474  -0.802  0.00  0.00    +0.000 A 
ATOM     23  C   UNL     1      21.082  11.270  -2.110  0.00  0.00    +0.000 A 
ATOM     24  C   UNL     1      20.277  12.222  -2.737  0.00  0.00    +0.003 A 
ENDBRANCH  18  19
ENDBRANCH  17  18
ENDBRANCH  14  17
ENDBRANCH  13  14
ENDBRANCH  11  13
ENDBRANCH   7   9
ENDBRANCH   6   7
ENDBRANCH   5   6
ENDBRANCH   1   5
BRANCH   2  25
ATOM     25  C   UNL     1      28.916  14.985   0.275  0.00  0.00    +0.152 C 
BRANCH  25  26
ATOM     26  C   UNL     1      30.427  14.690   0.185  0.00  0.00    +0.193 C 
ATOM     27  O   UNL     1      30.946  14.763   1.531  0.00  0.00    -0.219 OA
BRANCH  26  28
ATOM     28  C   UNL     1      30.854  13.292  -0.316  0.00  0.00    +0.212 C 
ATOM     29  O   UNL     1      29.732  12.600  -0.888  0.00  0.00    -0.218 OA
BRANCH  28  30
ATOM     30  C   UNL     1      32.014  13.339  -1.383  0.00  0.00    +0.171 C 
ATOM     31  O   UNL     1      31.659  12.705  -2.607  0.00  0.00    -0.343 OA
ATOM     32  C   UNL     1      32.564  12.389  -3.623  0.00  0.00    +0.220 C 
ATOM     33  C   UNL     1      33.784  11.623  -3.082  0.00  0.00    +0.076 C 
ATOM     34  C   UNL     1      34.371  12.447  -1.924  0.00  0.00    +0.177 C 
ATOM     35  O   UNL     1      35.528  11.801  -1.412  0.00  0.00    -0.221 OA
ATOM     36  C   UNL     1      33.297  12.652  -0.811  0.00  0.00    +0.155 C 
BRANCH  36  37
ATOM     37  N   UNL     1      33.854  13.429   0.294  0.00  0.00    -0.202 NA
ATOM     38  C   UNL     1      34.084  13.064   1.581  0.00  0.00    +0.242 C 
ATOM     39  C   UNL     1      34.938  13.964   2.437  0.00  0.00    +0.096 C 
ATOM     40  O   UNL     1      33.599  12.021   2.014  0.00  0.00    -0.273 OA
ENDBRANCH  36  37
BRANCH  32  41
ATOM     41  C   UNL     1      33.012  13.672  -4.513  0.00  0.00    +0.391 C 
ATOM     42  O   UNL     1      32.391  13.506  -5.697  0.00  0.00    -0.243 OA
ATOM     43  O   UNL     1      33.565  14.540  -3.658  0.00  0.00    -0.243 OA
ENDBRANCH  32  41
ENDBRANCH  28  30
ENDBRANCH  26  28
ENDBRANCH  25  26
ENDBRANCH   2  25
TORSDOF 16
