REMARK VINA RESULT:    -6.768      3.933      8.169
REMARK INTER + INTRA:         -13.120
REMARK INTER:                 -11.579
REMARK INTRA:                  -1.541
REMARK UNBOUND:                -1.999
REMARK  Name = lig_assembled_57.pdb
REMARK  12 active torsions:
REMARK  status: ('A' for Active; 'I' for Inactive)
REMARK    1  A    between atoms: _2  and  _9
REMARK    2  A    between atoms: _3  and  _12
REMARK    3  A    between atoms: _6  and  _7
REMARK    4  A    between atoms: _6  and  _14
REMARK    5  A    between atoms: _14  and  _16
REMARK    6  A    between atoms: _15  and  _20
REMARK    7  A    between atoms: _16  and  _19
REMARK    8  A    between atoms: _24  and  _34
REMARK    9  A    between atoms: _26  and  _27
REMARK   10  A    between atoms: _28  and  _30
REMARK   11  A    between atoms: _30  and  _32
REMARK   12  A    between atoms: _32  and  _34
REMARK                            x       y       z     vdW  Elec       q    Type
REMARK                         _______ _______ _______ _____ _____    ______ ____
ROOT
ATOM      1  C   UNL     1      28.151  17.139  -0.681  0.00  0.00    +0.400 C 
ATOM      2  N   UNL     1      28.590  16.061   0.052  0.00  0.00    -0.278 N 
ATOM      3  H   UNL     1      28.970  16.507   0.946  0.00  0.00    +0.152 HD
ATOM      4  O   UNL     1      28.116  18.237  -0.131  0.00  0.00    -0.226 OA
ENDROOT
BRANCH   1   5
ATOM      5  O   UNL     1      27.841  16.891  -1.911  0.00  0.00    -0.450 OA
BRANCH   5   6
ATOM      6  C   UNL     1      26.999  17.393  -2.922  0.00  0.00    +0.240 C 
BRANCH   6   7
ATOM      7  C   UNL     1      26.904  16.587  -4.232  0.00  0.00    +0.100 C 
BRANCH   7   9
ATOM      8  N   UNL     1      25.294  15.095  -5.364  0.00  0.00    -0.134 NA
ATOM      9  C   UNL     1      25.650  15.815  -4.258  0.00  0.00    +0.086 A 
ATOM     10  C   UNL     1      24.689  15.646  -3.283  0.00  0.00    +0.134 A 
ATOM     11  N   UNL     1      23.822  14.743  -3.822  0.00  0.00    -0.248 N 
ATOM     12  N   UNL     1      24.156  14.474  -5.101  0.00  0.00    -0.065 NA
BRANCH  11  13
ATOM     13  C   UNL     1      22.700  14.024  -3.231  0.00  0.00    +0.111 C 
ATOM     14  C   UNL     1      22.690  12.559  -3.692  0.00  0.00    +0.042 C 
ATOM     15  C   UNL     1      23.790  11.769  -2.988  0.00  0.00    +0.086 C 
ATOM     16  N   UNL     1      23.663  11.787  -1.527  0.00  0.00    -0.305 NA
ATOM     17  C   UNL     1      23.590  13.145  -0.987  0.00  0.00    +0.086 C 
ATOM     18  C   UNL     1      22.582  10.928  -1.054  0.00  0.00    +0.104 C 
ATOM     19  C   UNL     1      22.593  14.072  -1.698  0.00  0.00    +0.042 C 
ENDBRANCH  11  13
ENDBRANCH   7   9
ENDBRANCH   6   7
ENDBRANCH   5   6
ENDBRANCH   1   5
BRANCH   2  20
ATOM     20  C   UNL     1      28.753  14.613   0.160  0.00  0.00    +0.152 C 
BRANCH  20  21
ATOM     21  C   UNL     1      29.814  14.122   1.167  0.00  0.00    +0.193 C 
ATOM     22  O   UNL     1      30.067  12.734   0.859  0.00  0.00    -0.219 OA
BRANCH  21  23
ATOM     23  C   UNL     1      31.207  14.788   1.119  0.00  0.00    +0.212 C 
ATOM     24  O   UNL     1      31.163  16.089   1.727  0.00  0.00    -0.218 OA
BRANCH  23  25
ATOM     25  C   UNL     1      32.329  13.938   1.828  0.00  0.00    +0.171 C 
ATOM     26  O   UNL     1      32.693  14.464   3.100  0.00  0.00    -0.343 OA
ATOM     27  C   UNL     1      33.815  14.060   3.828  0.00  0.00    +0.220 C 
ATOM     28  C   UNL     1      35.092  14.089   2.971  0.00  0.00    +0.076 C 
ATOM     29  C   UNL     1      34.815  13.268   1.701  0.00  0.00    +0.177 C 
ATOM     30  O   UNL     1      35.981  13.228   0.889  0.00  0.00    -0.221 OA
ATOM     31  C   UNL     1      33.604  13.871   0.924  0.00  0.00    +0.155 C 
BRANCH  31  32
ATOM     32  N   UNL     1      33.342  13.099  -0.287  0.00  0.00    -0.202 NA
ATOM     33  C   UNL     1      33.256  13.511  -1.578  0.00  0.00    +0.242 C 
ATOM     34  C   UNL     1      33.271  12.467  -2.664  0.00  0.00    +0.096 C 
ATOM     35  O   UNL     1      33.171  14.711  -1.828  0.00  0.00    -0.273 OA
ENDBRANCH  31  32
BRANCH  27  36
ATOM     36  C   UNL     1      33.624  12.626   4.568  0.00  0.00    +0.391 C 
ATOM     37  O   UNL     1      34.864  12.266   4.952  0.00  0.00    -0.243 OA
ATOM     38  O   UNL     1      32.309  12.492   4.781  0.00  0.00    -0.243 OA
ENDBRANCH  27  36
ENDBRANCH  23  25
ENDBRANCH  21  23
ENDBRANCH  20  21
ENDBRANCH   2  20
TORSDOF 11
