REMARK VINA RESULT:    -7.070      1.831      2.566
REMARK INTER + INTRA:         -13.305
REMARK INTER:                 -11.476
REMARK INTRA:                  -1.829
REMARK UNBOUND:                -1.689
REMARK  Name = lig_assembled_49.pdb
REMARK  11 active torsions:
REMARK  status: ('A' for Active; 'I' for Inactive)
REMARK    1  A    between atoms: _2  and  _8
REMARK    2  A    between atoms: _5  and  _6
REMARK    3  A    between atoms: _5  and  _12
REMARK    4  A    between atoms: _12  and  _14
REMARK    5  A    between atoms: _13  and  _18
REMARK    6  A    between atoms: _14  and  _17
REMARK    7  A    between atoms: _22  and  _32
REMARK    8  A    between atoms: _24  and  _25
REMARK    9  A    between atoms: _26  and  _28
REMARK   10  A    between atoms: _28  and  _30
REMARK   11  A    between atoms: _30  and  _32
REMARK                            x       y       z     vdW  Elec       q    Type
REMARK                         _______ _______ _______ _____ _____    ______ ____
ROOT
ATOM      1  C   UNL     1      28.419  14.251  -0.352  0.00  0.00    +0.152 C 
ENDROOT
BRANCH   1   3
ATOM      2  C   UNL     1      28.107  16.929  -0.769  0.00  0.00    +0.400 C 
ATOM      3  N   UNL     1      28.374  15.703  -0.206  0.00  0.00    -0.278 N 
ATOM      4  H   UNL     1      28.671  15.948   0.791  0.00  0.00    +0.152 HD
ATOM      5  O   UNL     1      28.082  17.912  -0.032  0.00  0.00    -0.226 OA
BRANCH   2   6
ATOM      6  O   UNL     1      27.934  16.932  -2.050  0.00  0.00    -0.450 OA
BRANCH   6   7
ATOM      7  C   UNL     1      27.002  17.389  -3.001  0.00  0.00    +0.240 C 
BRANCH   7   8
ATOM      8  C   UNL     1      26.353  16.338  -3.923  0.00  0.00    +0.100 C 
BRANCH   8  10
ATOM      9  N   UNL     1      26.018  14.208  -2.712  0.00  0.00    -0.134 NA
ATOM     10  C   UNL     1      25.519  15.410  -3.136  0.00  0.00    +0.086 A 
ATOM     11  C   UNL     1      24.214  15.532  -2.714  0.00  0.00    +0.134 A 
ATOM     12  N   UNL     1      23.976  14.366  -2.044  0.00  0.00    -0.248 N 
ATOM     13  N   UNL     1      25.063  13.576  -2.044  0.00  0.00    -0.065 NA
BRANCH  12  14
ATOM     14  C   UNL     1      22.747  13.947  -1.415  0.00  0.00    +0.109 C 
ATOM     15  C   UNL     1      21.493  14.578  -2.022  0.00  0.00    +0.027 C 
ATOM     16  C   UNL     1      20.381  13.673  -1.518  0.00  0.00    +0.002 C 
ATOM     17  C   UNL     1      20.970  12.272  -1.607  0.00  0.00    +0.002 C 
ATOM     18  C   UNL     1      22.487  12.435  -1.475  0.00  0.00    +0.027 C 
ENDBRANCH  12  14
ENDBRANCH   8  10
ENDBRANCH   7   8
ENDBRANCH   6   7
ENDBRANCH   2   6
ENDBRANCH   1   3
BRANCH   1  19
ATOM     19  C   UNL     1      28.060  13.431   0.904  0.00  0.00    +0.193 C 
ATOM     20  O   UNL     1      28.556  12.092   0.682  0.00  0.00    -0.219 OA
BRANCH  19  21
ATOM     21  C   UNL     1      28.697  13.859   2.245  0.00  0.00    +0.212 C 
ATOM     22  O   UNL     1      27.696  13.942   3.272  0.00  0.00    -0.218 OA
BRANCH  21  23
ATOM     23  C   UNL     1      29.840  12.889   2.731  0.00  0.00    +0.171 C 
ATOM     24  O   UNL     1      29.633  12.423   4.061  0.00  0.00    -0.343 OA
ATOM     25  C   UNL     1      30.598  11.757   4.821  0.00  0.00    +0.220 C 
ATOM     26  C   UNL     1      31.937  12.515   4.836  0.00  0.00    +0.076 C 
ATOM     27  C   UNL     1      32.334  12.780   3.374  0.00  0.00    +0.177 C 
ATOM     28  O   UNL     1      33.588  13.445   3.329  0.00  0.00    -0.221 OA
ATOM     29  C   UNL     1      31.225  13.611   2.657  0.00  0.00    +0.155 C 
BRANCH  29  30
ATOM     30  N   UNL     1      31.602  13.871   1.270  0.00  0.00    -0.202 NA
ATOM     31  C   UNL     1      31.672  15.046   0.595  0.00  0.00    +0.242 C 
ATOM     32  C   UNL     1      32.372  15.065  -0.738  0.00  0.00    +0.096 C 
ATOM     33  O   UNL     1      31.170  16.057   1.082  0.00  0.00    -0.273 OA
ENDBRANCH  29  30
BRANCH  25  34
ATOM     34  C   UNL     1      30.796  10.202   4.395  0.00  0.00    +0.391 C 
ATOM     35  O   UNL     1      31.939   9.820   4.998  0.00  0.00    -0.243 OA
ATOM     36  O   UNL     1      29.628   9.809   3.874  0.00  0.00    -0.243 OA
ENDBRANCH  25  34
ENDBRANCH  21  23
ENDBRANCH  19  21
ENDBRANCH   1  19
TORSDOF 11
