REMARK VINA RESULT:    -5.873      2.202      3.015
REMARK INTER + INTRA:         -12.631
REMARK INTER:                 -11.274
REMARK INTRA:                  -1.357
REMARK UNBOUND:                -1.953
REMARK  Name = lig_assembled_13.pdb
REMARK  15 active torsions:
REMARK  status: ('A' for Active; 'I' for Inactive)
REMARK    1  A    between atoms: _2  and  _8
REMARK    2  A    between atoms: _4  and  _10
REMARK    3  A    between atoms: _5  and  _6
REMARK    4  A    between atoms: _5  and  _13
REMARK    5  A    between atoms: _8  and  _9
REMARK    6  A    between atoms: _9  and  _11
REMARK    7  A    between atoms: _10  and  _11
REMARK    8  A    between atoms: _13  and  _15
REMARK    9  A    between atoms: _14  and  _19
REMARK   10  A    between atoms: _15  and  _18
REMARK   11  A    between atoms: _23  and  _33
REMARK   12  A    between atoms: _25  and  _26
REMARK   13  A    between atoms: _27  and  _29
REMARK   14  A    between atoms: _29  and  _31
REMARK   15  A    between atoms: _31  and  _33
REMARK                            x       y       z     vdW  Elec       q    Type
REMARK                         _______ _______ _______ _____ _____    ______ ____
ROOT
ATOM      1  C   UNL     1      30.719  16.983   0.624  0.00  0.00    +0.152 C 
ENDROOT
BRANCH   1   3
ATOM      2  C   UNL     1      28.339  17.625  -0.547  0.00  0.00    +0.400 C 
ATOM      3  N   UNL     1      29.473  17.637   0.230  0.00  0.00    -0.278 N 
ATOM      4  H   UNL     1      29.370  18.532   0.805  0.00  0.00    +0.152 HD
ATOM      5  O   UNL     1      27.461  18.448  -0.302  0.00  0.00    -0.226 OA
BRANCH   2   6
ATOM      6  O   UNL     1      28.322  16.751  -1.499  0.00  0.00    -0.450 OA
BRANCH   6   7
ATOM      7  C   UNL     1      27.392  15.996  -2.239  0.00  0.00    +0.240 C 
BRANCH   7   8
ATOM      8  C   UNL     1      26.456  16.759  -3.196  0.00  0.00    +0.100 C 
BRANCH   8  10
ATOM      9  N   UNL     1      25.171  15.340  -4.764  0.00  0.00    -0.134 NA
ATOM     10  C   UNL     1      25.284  15.933  -3.536  0.00  0.00    +0.086 A 
ATOM     11  C   UNL     1      24.176  15.625  -2.784  0.00  0.00    +0.134 A 
ATOM     12  N   UNL     1      23.395  14.897  -3.633  0.00  0.00    -0.241 N 
ATOM     13  N   UNL     1      24.016  14.688  -4.805  0.00  0.00    -0.065 NA
BRANCH  12  14
ATOM     14  C   UNL     1      22.110  14.289  -3.370  0.00  0.00    +0.265 C 
BRANCH  14  15
ATOM     15  C   UNL     1      20.976  15.250  -3.595  0.00  0.00    +0.329 C 
ATOM     16  O   UNL     1      21.061  16.465  -3.691  0.00  0.00    -0.249 OA
BRANCH  15  17
ATOM     17  O   UNL     1      19.798  14.556  -3.572  0.00  0.00    -0.464 OA
BRANCH  17  18
ATOM     18  C   UNL     1      19.939  13.129  -3.498  0.00  0.00    +0.229 C 
ATOM     19  C   UNL     1      18.563  12.516  -3.701  0.00  0.00    +0.048 C 
ENDBRANCH  17  18
ENDBRANCH  15  17
ENDBRANCH  14  15
ENDBRANCH  12  14
ENDBRANCH   8  10
ENDBRANCH   7   8
ENDBRANCH   6   7
ENDBRANCH   2   6
ENDBRANCH   1   3
BRANCH   1  20
ATOM     20  C   UNL     1      30.883  15.514   0.183  0.00  0.00    +0.193 C 
ATOM     21  O   UNL     1      31.984  15.482  -0.752  0.00  0.00    -0.219 OA
BRANCH  20  22
ATOM     22  C   UNL     1      31.268  14.481   1.266  0.00  0.00    +0.212 C 
ATOM     23  O   UNL     1      31.625  15.145   2.489  0.00  0.00    -0.218 OA
BRANCH  22  24
ATOM     24  C   UNL     1      30.123  13.442   1.573  0.00  0.00    +0.171 C 
ATOM     25  O   UNL     1      29.980  13.180   2.965  0.00  0.00    -0.343 OA
ATOM     26  C   UNL     1      29.221  12.134   3.496  0.00  0.00    +0.220 C 
ATOM     27  C   UNL     1      29.567  10.787   2.839  0.00  0.00    +0.076 C 
ATOM     28  C   UNL     1      29.443  10.968   1.317  0.00  0.00    +0.177 C 
ATOM     29  O   UNL     1      29.715   9.738   0.661  0.00  0.00    -0.221 OA
ATOM     30  C   UNL     1      30.407  12.095   0.830  0.00  0.00    +0.155 C 
BRANCH  30  31
ATOM     31  N   UNL     1      30.297  12.266  -0.616  0.00  0.00    -0.202 NA
ATOM     32  C   UNL     1      31.247  12.146  -1.579  0.00  0.00    +0.242 C 
ATOM     33  C   UNL     1      30.803  12.085  -3.017  0.00  0.00    +0.096 C 
ATOM     34  O   UNL     1      32.432  12.089  -1.259  0.00  0.00    -0.273 OA
ENDBRANCH  30  31
BRANCH  26  35
ATOM     35  C   UNL     1      27.621  12.418   3.469  0.00  0.00    +0.391 C 
ATOM     36  O   UNL     1      27.051  11.202   3.581  0.00  0.00    -0.243 OA
ATOM     37  O   UNL     1      27.477  13.736   3.650  0.00  0.00    -0.243 OA
ENDBRANCH  26  35
ENDBRANCH  22  24
ENDBRANCH  20  22
ENDBRANCH   1  20
TORSDOF 14
