REMARK VINA RESULT:    -7.273      1.984      3.001
REMARK INTER + INTRA:         -13.578
REMARK INTER:                 -11.709
REMARK INTRA:                  -1.869
REMARK UNBOUND:                -1.202
REMARK  Name = lig_assembled_38.pdb
REMARK  12 active torsions:
REMARK  status: ('A' for Active; 'I' for Inactive)
REMARK    1  A    between atoms: _2  and  _8
REMARK    2  A    between atoms: _5  and  _6
REMARK    3  A    between atoms: _5  and  _14
REMARK    4  A    between atoms: _8  and  _9
REMARK    5  A    between atoms: _14  and  _16
REMARK    6  A    between atoms: _15  and  _20
REMARK    7  A    between atoms: _16  and  _19
REMARK    8  A    between atoms: _24  and  _34
REMARK    9  A    between atoms: _26  and  _27
REMARK   10  A    between atoms: _28  and  _30
REMARK   11  A    between atoms: _30  and  _32
REMARK   12  A    between atoms: _32  and  _34
REMARK                            x       y       z     vdW  Elec       q    Type
REMARK                         _______ _______ _______ _____ _____    ______ ____
ROOT
ATOM      1  C   UNL     1      29.374  16.421  -0.226  0.00  0.00    +0.400 C 
ATOM      2  N   UNL     1      29.151  15.308   0.550  0.00  0.00    -0.278 N 
ATOM      3  H   UNL     1      30.009  15.275   1.186  0.00  0.00    +0.152 HD
ATOM      4  O   UNL     1      30.307  17.161   0.076  0.00  0.00    -0.226 OA
ENDROOT
BRANCH   2   5
ATOM      5  C   UNL     1      28.282  14.187   0.897  0.00  0.00    +0.152 C 
BRANCH   5   6
ATOM      6  C   UNL     1      28.887  12.779   0.723  0.00  0.00    +0.193 C 
ATOM      7  O   UNL     1      27.801  11.838   0.881  0.00  0.00    -0.219 OA
BRANCH   6   8
ATOM      8  C   UNL     1      29.501  12.430  -0.650  0.00  0.00    +0.212 C 
ATOM      9  O   UNL     1      28.880  13.203  -1.690  0.00  0.00    -0.218 OA
BRANCH   8  10
ATOM     10  C   UNL     1      31.059  12.661  -0.714  0.00  0.00    +0.171 C 
ATOM     11  O   UNL     1      31.513  13.606   0.250  0.00  0.00    -0.343 OA
ATOM     12  C   UNL     1      32.788  14.175   0.256  0.00  0.00    +0.220 C 
ATOM     13  C   UNL     1      33.162  14.753  -1.120  0.00  0.00    +0.076 C 
ATOM     14  C   UNL     1      32.954  13.640  -2.161  0.00  0.00    +0.177 C 
ATOM     15  O   UNL     1      33.324  14.111  -3.449  0.00  0.00    -0.221 OA
ATOM     16  C   UNL     1      31.472  13.154  -2.139  0.00  0.00    +0.155 C 
BRANCH  16  17
ATOM     17  N   UNL     1      31.269  12.101  -3.132  0.00  0.00    -0.202 NA
ATOM     18  C   UNL     1      31.830  10.868  -3.216  0.00  0.00    +0.242 C 
ATOM     19  C   UNL     1      31.226   9.871  -4.171  0.00  0.00    +0.096 C 
ATOM     20  O   UNL     1      32.805  10.595  -2.519  0.00  0.00    -0.273 OA
ENDBRANCH  16  17
BRANCH  12  21
ATOM     21  C   UNL     1      33.940  13.175   0.816  0.00  0.00    +0.391 C 
ATOM     22  O   UNL     1      35.102  13.808   0.563  0.00  0.00    -0.243 OA
ATOM     23  O   UNL     1      33.308  12.269   1.571  0.00  0.00    -0.243 OA
ENDBRANCH  12  21
ENDBRANCH   8  10
ENDBRANCH   6   8
ENDBRANCH   5   6
ENDBRANCH   2   5
BRANCH   1  24
ATOM     24  O   UNL     1      28.582  16.565  -1.238  0.00  0.00    -0.450 OA
BRANCH  24  25
ATOM     25  C   UNL     1      27.459  17.327  -1.615  0.00  0.00    +0.240 C 
BRANCH  25  26
ATOM     26  C   UNL     1      27.117  17.395  -3.115  0.00  0.00    +0.100 C 
BRANCH  26  28
ATOM     27  N   UNL     1      25.983  15.973  -4.796  0.00  0.00    -0.134 NA
ATOM     28  C   UNL     1      26.199  16.299  -3.484  0.00  0.00    +0.086 A 
ATOM     29  C   UNL     1      25.478  15.443  -2.682  0.00  0.00    +0.134 A 
ATOM     30  N   UNL     1      24.889  14.583  -3.564  0.00  0.00    -0.247 N 
ATOM     31  N   UNL     1      25.184  14.915  -4.834  0.00  0.00    -0.065 NA
BRANCH  30  32
ATOM     32  C   UNL     1      24.244  13.317  -3.269  0.00  0.00    +0.180 C 
BRANCH  32  33
ATOM     33  C   UNL     1      23.022  13.453  -2.393  0.00  0.00    -0.025 A 
ATOM     34  C   UNL     1      21.958  14.288  -2.765  0.00  0.00    +0.005 A 
ATOM     35  C   UNL     1      20.792  14.340  -1.995  0.00  0.00    +0.001 A 
ATOM     36  C   UNL     1      20.676  13.561  -0.845  0.00  0.00    +0.015 A 
ATOM     37  C   UNL     1      21.732  12.739  -0.463  0.00  0.00    +0.018 A 
ATOM     38 BR   UNL     1      21.577  11.671   1.090  0.00  0.00    -0.050 Br
ATOM     39  C   UNL     1      22.900  12.679  -1.227  0.00  0.00    +0.020 A 
ENDBRANCH  32  33
ENDBRANCH  30  32
ENDBRANCH  26  28
ENDBRANCH  25  26
ENDBRANCH  24  25
ENDBRANCH   1  24
TORSDOF 12
