REMARK VINA RESULT:    -5.932      2.647      9.044
REMARK INTER + INTRA:         -12.739
REMARK INTER:                 -10.843
REMARK INTRA:                  -1.895
REMARK UNBOUND:                -1.953
REMARK  Name = lig_assembled_13.pdb
REMARK  15 active torsions:
REMARK  status: ('A' for Active; 'I' for Inactive)
REMARK    1  A    between atoms: _2  and  _8
REMARK    2  A    between atoms: _4  and  _10
REMARK    3  A    between atoms: _5  and  _6
REMARK    4  A    between atoms: _5  and  _13
REMARK    5  A    between atoms: _8  and  _9
REMARK    6  A    between atoms: _9  and  _11
REMARK    7  A    between atoms: _10  and  _11
REMARK    8  A    between atoms: _13  and  _15
REMARK    9  A    between atoms: _14  and  _19
REMARK   10  A    between atoms: _15  and  _18
REMARK   11  A    between atoms: _23  and  _33
REMARK   12  A    between atoms: _25  and  _26
REMARK   13  A    between atoms: _27  and  _29
REMARK   14  A    between atoms: _29  and  _31
REMARK   15  A    between atoms: _31  and  _33
REMARK                            x       y       z     vdW  Elec       q    Type
REMARK                         _______ _______ _______ _____ _____    ______ ____
ROOT
ATOM      1  C   UNL     1      27.041  15.478  -2.518  0.00  0.00    +0.152 C 
ENDROOT
BRANCH   1   3
ATOM      2  C   UNL     1      28.086  17.404  -0.893  0.00  0.00    +0.400 C 
ATOM      3  N   UNL     1      27.225  16.604  -1.607  0.00  0.00    -0.278 N 
ATOM      4  H   UNL     1      26.265  17.020  -1.391  0.00  0.00    +0.152 HD
ATOM      5  O   UNL     1      27.635  18.424  -0.377  0.00  0.00    -0.226 OA
BRANCH   2   6
ATOM      6  O   UNL     1      29.304  16.980  -0.807  0.00  0.00    -0.450 OA
BRANCH   6   7
ATOM      7  C   UNL     1      30.273  16.707   0.179  0.00  0.00    +0.240 C 
BRANCH   7   8
ATOM      8  C   UNL     1      31.378  15.692  -0.172  0.00  0.00    +0.100 C 
BRANCH   8  10
ATOM      9  N   UNL     1      31.781  13.348   0.508  0.00  0.00    -0.134 NA
ATOM     10  C   UNL     1      31.440  14.629   0.846  0.00  0.00    +0.086 A 
ATOM     11  C   UNL     1      31.188  14.687   2.195  0.00  0.00    +0.134 A 
ATOM     12  N   UNL     1      31.328  13.396   2.612  0.00  0.00    -0.241 N 
ATOM     13  N   UNL     1      31.730  12.603   1.605  0.00  0.00    -0.065 NA
BRANCH  12  14
ATOM     14  C   UNL     1      31.197  12.865   3.950  0.00  0.00    +0.265 C 
BRANCH  14  15
ATOM     15  C   UNL     1      32.502  12.337   4.476  0.00  0.00    +0.329 C 
ATOM     16  O   UNL     1      32.778  11.167   4.694  0.00  0.00    -0.249 OA
BRANCH  15  17
ATOM     17  O   UNL     1      33.316  13.393   4.780  0.00  0.00    -0.464 OA
BRANCH  17  18
ATOM     18  C   UNL     1      34.667  13.268   4.308  0.00  0.00    +0.229 C 
ATOM     19  C   UNL     1      34.848  14.243   3.156  0.00  0.00    +0.048 C 
ENDBRANCH  17  18
ENDBRANCH  15  17
ENDBRANCH  14  15
ENDBRANCH  12  14
ENDBRANCH   8  10
ENDBRANCH   7   8
ENDBRANCH   6   7
ENDBRANCH   2   6
ENDBRANCH   1   3
BRANCH   1  20
ATOM     20  C   UNL     1      25.585  15.023  -2.751  0.00  0.00    +0.193 C 
ATOM     21  O   UNL     1      25.292  15.266  -4.144  0.00  0.00    -0.219 OA
BRANCH  20  22
ATOM     22  C   UNL     1      25.262  13.527  -2.543  0.00  0.00    +0.212 C 
ATOM     23  O   UNL     1      26.176  12.708  -3.290  0.00  0.00    -0.218 OA
BRANCH  22  24
ATOM     24  C   UNL     1      25.306  13.082  -1.032  0.00  0.00    +0.171 C 
ATOM     25  O   UNL     1      26.478  12.338  -0.714  0.00  0.00    -0.343 OA
ATOM     26  C   UNL     1      26.659  11.622   0.472  0.00  0.00    +0.220 C 
ATOM     27  C   UNL     1      25.468  10.691   0.763  0.00  0.00    +0.076 C 
ATOM     28  C   UNL     1      24.190  11.545   0.712  0.00  0.00    +0.177 C 
ATOM     29  O   UNL     1      23.060  10.739   1.014  0.00  0.00    -0.221 OA
ATOM     30  C   UNL     1      24.049  12.217  -0.690  0.00  0.00    +0.155 C 
BRANCH  30  31
ATOM     31  N   UNL     1      22.832  13.023  -0.745  0.00  0.00    -0.202 NA
ATOM     32  C   UNL     1      21.705  12.844  -1.480  0.00  0.00    +0.242 C 
ATOM     33  C   UNL     1      20.486  13.656  -1.129  0.00  0.00    +0.096 C 
ATOM     34  O   UNL     1      21.705  12.033  -2.404  0.00  0.00    -0.273 OA
ENDBRANCH  30  31
BRANCH  26  35
ATOM     35  C   UNL     1      27.008  12.562   1.750  0.00  0.00    +0.391 C 
ATOM     36  O   UNL     1      26.553  11.880   2.818  0.00  0.00    -0.243 OA
ATOM     37  O   UNL     1      27.864  13.490   1.303  0.00  0.00    -0.243 OA
ENDBRANCH  26  35
ENDBRANCH  22  24
ENDBRANCH  20  22
ENDBRANCH   1  20
TORSDOF 14
