REMARK VINA RESULT:    -6.694      1.190      3.421
REMARK INTER + INTRA:         -13.262
REMARK INTER:                 -11.887
REMARK INTRA:                  -1.376
REMARK UNBOUND:                -2.263
REMARK  Name = lig_assembled_52.pdb
REMARK  11 active torsions:
REMARK  status: ('A' for Active; 'I' for Inactive)
REMARK    1  A    between atoms: _2  and  _9
REMARK    2  A    between atoms: _6  and  _7
REMARK    3  A    between atoms: _6  and  _13
REMARK    4  A    between atoms: _13  and  _15
REMARK    5  A    between atoms: _14  and  _19
REMARK    6  A    between atoms: _15  and  _18
REMARK    7  A    between atoms: _23  and  _33
REMARK    8  A    between atoms: _25  and  _26
REMARK    9  A    between atoms: _27  and  _29
REMARK   10  A    between atoms: _29  and  _31
REMARK   11  A    between atoms: _31  and  _33
REMARK                            x       y       z     vdW  Elec       q    Type
REMARK                         _______ _______ _______ _____ _____    ______ ____
ROOT
ATOM      1  C   UNL     1      28.675  14.965   0.301  0.00  0.00    +0.152 C 
ENDROOT
BRANCH   1   3
ATOM      2  C   UNL     1      27.787  17.381  -0.603  0.00  0.00    +0.400 C 
ATOM      3  N   UNL     1      28.292  16.369   0.178  0.00  0.00    -0.278 N 
ATOM      4  H   UNL     1      28.466  16.846   1.119  0.00  0.00    +0.152 HD
ATOM      5  O   UNL     1      27.495  18.443  -0.059  0.00  0.00    -0.226 OA
BRANCH   2   6
ATOM      6  O   UNL     1      27.695  17.121  -1.866  0.00  0.00    -0.450 OA
BRANCH   6   7
ATOM      7  C   UNL     1      26.991  17.568  -3.001  0.00  0.00    +0.240 C 
BRANCH   7   8
ATOM      8  C   UNL     1      26.420  16.498  -3.951  0.00  0.00    +0.100 C 
BRANCH   8  10
ATOM      9  N   UNL     1      26.337  14.354  -2.721  0.00  0.00    -0.134 NA
ATOM     10  C   UNL     1      25.697  15.467  -3.185  0.00  0.00    +0.086 A 
ATOM     11  C   UNL     1      24.374  15.412  -2.810  0.00  0.00    +0.140 A 
ATOM     12  N   UNL     1      24.256  14.243  -2.092  0.00  0.00    -0.218 N 
ATOM     13  N   UNL     1      25.455  13.614  -2.063  0.00  0.00    -0.060 NA
BRANCH  12  14
ATOM     14  C   UNL     1      23.118  13.716  -1.447  0.00  0.00    +0.085 A 
ATOM     15  C   UNL     1      23.190  12.594  -0.616  0.00  0.00    +0.031 A 
ATOM     16  C   UNL     1      22.025  12.109  -0.025  0.00  0.00    +0.022 A 
ATOM     17  C   UNL     1      20.831  12.761  -0.282  0.00  0.00    +0.111 A 
ATOM     18  N   UNL     1      20.730  13.849  -1.073  0.00  0.00    -0.261 NA
ATOM     19  C   UNL     1      21.874  14.307  -1.640  0.00  0.00    +0.138 A 
ENDBRANCH  12  14
ENDBRANCH   8  10
ENDBRANCH   7   8
ENDBRANCH   6   7
ENDBRANCH   2   6
ENDBRANCH   1   3
BRANCH   1  20
ATOM     20  C   UNL     1      30.042  14.579  -0.300  0.00  0.00    +0.193 C 
ATOM     21  O   UNL     1      30.721  15.814  -0.616  0.00  0.00    -0.219 OA
BRANCH  20  22
ATOM     22  C   UNL     1      31.033  13.816   0.608  0.00  0.00    +0.212 C 
ATOM     23  O   UNL     1      30.497  12.532   0.968  0.00  0.00    -0.218 OA
BRANCH  22  24
ATOM     24  C   UNL     1      32.448  13.603  -0.053  0.00  0.00    +0.171 C 
ATOM     25  O   UNL     1      32.384  12.836  -1.251  0.00  0.00    -0.343 OA
ATOM     26  C   UNL     1      33.496  12.297  -1.901  0.00  0.00    +0.220 C 
ATOM     27  C   UNL     1      34.396  11.507  -0.934  0.00  0.00    +0.076 C 
ATOM     28  C   UNL     1      34.724  12.431   0.251  0.00  0.00    +0.177 C 
ATOM     29  O   UNL     1      35.588  11.762   1.158  0.00  0.00    -0.221 OA
ATOM     30  C   UNL     1      33.409  12.890   0.954  0.00  0.00    +0.155 C 
BRANCH  30  31
ATOM     31  N   UNL     1      33.717  13.762   2.085  0.00  0.00    -0.202 NA
ATOM     32  C   UNL     1      33.499  13.573   3.411  0.00  0.00    +0.242 C 
ATOM     33  C   UNL     1      34.179  14.498   4.387  0.00  0.00    +0.096 C 
ATOM     34  O   UNL     1      32.763  12.662   3.782  0.00  0.00    -0.273 OA
ENDBRANCH  30  31
BRANCH  26  35
ATOM     35  C   UNL     1      34.346  13.393  -2.747  0.00  0.00    +0.391 C 
ATOM     36  O   UNL     1      35.464  12.746  -3.129  0.00  0.00    -0.243 OA
ATOM     37  O   UNL     1      33.503  14.402  -2.998  0.00  0.00    -0.243 OA
ENDBRANCH  26  35
ENDBRANCH  22  24
ENDBRANCH  20  22
ENDBRANCH   1  20
TORSDOF 11
