REMARK VINA RESULT:    -6.010      2.171      2.794
REMARK INTER + INTRA:         -12.864
REMARK INTER:                 -10.872
REMARK INTRA:                  -1.991
REMARK UNBOUND:                -2.287
REMARK  Name = lig_assembled_67.pdb
REMARK  13 active torsions:
REMARK  status: ('A' for Active; 'I' for Inactive)
REMARK    1  A    between atoms: _2  and  _8
REMARK    2  A    between atoms: _5  and  _6
REMARK    3  A    between atoms: _5  and  _14
REMARK    4  A    between atoms: _8  and  _9
REMARK    5  A    between atoms: _9  and  _10
REMARK    6  A    between atoms: _14  and  _16
REMARK    7  A    between atoms: _15  and  _20
REMARK    8  A    between atoms: _16  and  _19
REMARK    9  A    between atoms: _24  and  _34
REMARK   10  A    between atoms: _26  and  _27
REMARK   11  A    between atoms: _28  and  _30
REMARK   12  A    between atoms: _30  and  _32
REMARK   13  A    between atoms: _32  and  _34
REMARK                            x       y       z     vdW  Elec       q    Type
REMARK                         _______ _______ _______ _____ _____    ______ ____
ROOT
ATOM      1  C   UNL     1      27.871  17.491  -0.935  0.00  0.00    +0.400 C 
ATOM      2  N   UNL     1      28.499  16.534  -0.173  0.00  0.00    -0.278 N 
ATOM      3  H   UNL     1      28.695  17.040   0.747  0.00  0.00    +0.152 HD
ATOM      4  O   UNL     1      27.535  18.538  -0.387  0.00  0.00    -0.226 OA
ENDROOT
BRANCH   2   5
ATOM      5  C   UNL     1      28.993  15.164  -0.056  0.00  0.00    +0.152 C 
BRANCH   5   6
ATOM      6  C   UNL     1      30.524  14.987  -0.116  0.00  0.00    +0.193 C 
ATOM      7  O   UNL     1      31.086  16.299  -0.339  0.00  0.00    -0.219 OA
BRANCH   6   8
ATOM      8  C   UNL     1      31.235  14.475   1.157  0.00  0.00    +0.212 C 
ATOM      9  O   UNL     1      31.361  15.533   2.121  0.00  0.00    -0.218 OA
BRANCH   8  10
ATOM     10  C   UNL     1      30.499  13.258   1.837  0.00  0.00    +0.171 C 
ATOM     11  O   UNL     1      30.335  13.432   3.240  0.00  0.00    -0.343 OA
ATOM     12  C   UNL     1      29.942  12.420   4.119  0.00  0.00    +0.220 C 
ATOM     13  C   UNL     1      30.790  11.149   3.941  0.00  0.00    +0.076 C 
ATOM     14  C   UNL     1      30.744  10.767   2.452  0.00  0.00    +0.177 C 
ATOM     15  O   UNL     1      31.481   9.572   2.238  0.00  0.00    -0.221 OA
ATOM     16  C   UNL     1      31.296  11.937   1.580  0.00  0.00    +0.155 C 
BRANCH  16  17
ATOM     17  N   UNL     1      31.260  11.576   0.165  0.00  0.00    -0.202 NA
ATOM     18  C   UNL     1      32.261  11.557  -0.751  0.00  0.00    +0.242 C 
ATOM     19  C   UNL     1      32.015  10.862  -2.065  0.00  0.00    +0.096 C 
ATOM     20  O   UNL     1      33.334  12.099  -0.491  0.00  0.00    -0.273 OA
ENDBRANCH  16  17
BRANCH  12  21
ATOM     21  C   UNL     1      28.352  12.092   4.058  0.00  0.00    +0.391 C 
ATOM     22  O   UNL     1      28.198  10.982   4.807  0.00  0.00    -0.243 OA
ATOM     23  O   UNL     1      27.767  13.186   3.555  0.00  0.00    -0.243 OA
ENDBRANCH  12  21
ENDBRANCH   8  10
ENDBRANCH   6   8
ENDBRANCH   5   6
ENDBRANCH   2   5
BRANCH   1  24
ATOM     24  O   UNL     1      27.719  17.201  -2.185  0.00  0.00    -0.450 OA
BRANCH  24  25
ATOM     25  C   UNL     1      26.911  17.572  -3.278  0.00  0.00    +0.240 C 
BRANCH  25  26
ATOM     26  C   UNL     1      26.377  16.444  -4.182  0.00  0.00    +0.100 C 
BRANCH  26  28
ATOM     27  N   UNL     1      24.500  15.692  -2.756  0.00  0.00    -0.134 NA
ATOM     28  C   UNL     1      25.692  15.417  -3.375  0.00  0.00    +0.086 A 
ATOM     29  C   UNL     1      26.054  14.118  -3.098  0.00  0.00    +0.133 A 
ATOM     30  N   UNL     1      25.046  13.659  -2.305  0.00  0.00    -0.251 N 
ATOM     31  N   UNL     1      24.115  14.605  -2.098  0.00  0.00    -0.065 NA
BRANCH  30  32
ATOM     32  C   UNL     1      24.892  12.344  -1.724  0.00  0.00    +0.150 C 
BRANCH  32  33
ATOM     33  C   UNL     1      23.935  12.308  -0.535  0.00  0.00    +0.084 C 
BRANCH  33  34
ATOM     34  C   UNL     1      24.331  11.264   0.499  0.00  0.00    +0.252 C 
ATOM     35  O   UNL     1      25.357  11.781   1.355  0.00  0.00    -0.349 OA
ATOM     36  C   UNL     1      25.134  11.091   2.582  0.00  0.00    +0.191 C 
ATOM     37  C   UNL     1      23.632  10.981   2.651  0.00  0.00    +0.191 C 
ATOM     38  O   UNL     1      23.200  10.892   1.293  0.00  0.00    -0.349 OA
ENDBRANCH  33  34
ENDBRANCH  32  33
ENDBRANCH  30  32
ENDBRANCH  26  28
ENDBRANCH  25  26
ENDBRANCH  24  25
ENDBRANCH   1  24
TORSDOF 13
