REMARK VINA RESULT:    -5.791     22.042     25.392
REMARK INTER + INTRA:         -12.478
REMARK INTER:                 -10.191
REMARK INTRA:                  -2.287
REMARK UNBOUND:                -2.287
REMARK  Name = lig_assembled_67.pdb
REMARK  13 active torsions:
REMARK  status: ('A' for Active; 'I' for Inactive)
REMARK    1  A    between atoms: _2  and  _8
REMARK    2  A    between atoms: _5  and  _6
REMARK    3  A    between atoms: _5  and  _14
REMARK    4  A    between atoms: _8  and  _9
REMARK    5  A    between atoms: _9  and  _10
REMARK    6  A    between atoms: _14  and  _16
REMARK    7  A    between atoms: _15  and  _20
REMARK    8  A    between atoms: _16  and  _19
REMARK    9  A    between atoms: _24  and  _34
REMARK   10  A    between atoms: _26  and  _27
REMARK   11  A    between atoms: _28  and  _30
REMARK   12  A    between atoms: _30  and  _32
REMARK   13  A    between atoms: _32  and  _34
REMARK                            x       y       z     vdW  Elec       q    Type
REMARK                         _______ _______ _______ _____ _____    ______ ____
ROOT
ATOM      1  C   UNL     1      44.725  26.637  10.967  0.00  0.00    +0.400 C 
ATOM      2  N   UNL     1      45.447  25.769  10.182  0.00  0.00    -0.278 N 
ATOM      3  H   UNL     1      44.745  25.471   9.433  0.00  0.00    +0.152 HD
ATOM      4  O   UNL     1      43.618  26.992  10.571  0.00  0.00    -0.226 OA
ENDROOT
BRANCH   2   5
ATOM      5  C   UNL     1      46.716  25.099   9.911  0.00  0.00    +0.152 C 
BRANCH   5   6
ATOM      6  C   UNL     1      47.036  23.870  10.786  0.00  0.00    +0.193 C 
ATOM      7  O   UNL     1      47.517  24.375  12.051  0.00  0.00    -0.219 OA
BRANCH   6   8
ATOM      8  C   UNL     1      45.865  22.937  11.164  0.00  0.00    +0.212 C 
ATOM      9  O   UNL     1      44.771  23.107  10.248  0.00  0.00    -0.218 OA
BRANCH   8  10
ATOM     10  C   UNL     1      46.265  21.412  11.193  0.00  0.00    +0.171 C 
ATOM     11  O   UNL     1      45.574  20.646  10.211  0.00  0.00    -0.343 OA
ATOM     12  C   UNL     1      45.552  19.250  10.173  0.00  0.00    +0.220 C 
ATOM     13  C   UNL     1      45.167  18.648  11.536  0.00  0.00    +0.076 C 
ATOM     14  C   UNL     1      46.108  19.252  12.591  0.00  0.00    +0.177 C 
ATOM     15  O   UNL     1      45.820  18.698  13.867  0.00  0.00    -0.221 OA
ATOM     16  C   UNL     1      45.973  20.807  12.605  0.00  0.00    +0.155 C 
BRANCH  16  17
ATOM     17  N   UNL     1      46.860  21.384  13.611  0.00  0.00    -0.202 NA
ATOM     18  C   UNL     1      46.561  22.105  14.721  0.00  0.00    +0.242 C 
ATOM     19  C   UNL     1      47.644  22.326  15.745  0.00  0.00    +0.096 C 
ATOM     20  O   UNL     1      45.426  22.555  14.866  0.00  0.00    -0.273 OA
ENDBRANCH  16  17
BRANCH  12  21
ATOM     21  C   UNL     1      46.924  18.596   9.599  0.00  0.00    +0.391 C 
ATOM     22  O   UNL     1      46.870  17.300   9.960  0.00  0.00    -0.243 OA
ATOM     23  O   UNL     1      47.432  19.493   8.744  0.00  0.00    -0.243 OA
ENDBRANCH  12  21
ENDBRANCH   8  10
ENDBRANCH   6   8
ENDBRANCH   5   6
ENDBRANCH   2   5
BRANCH   1  24
ATOM     24  O   UNL     1      45.282  26.977  12.083  0.00  0.00    -0.450 OA
BRANCH  24  25
ATOM     25  C   UNL     1      46.536  27.400  12.566  0.00  0.00    +0.240 C 
BRANCH  25  26
ATOM     26  C   UNL     1      46.550  28.291  13.822  0.00  0.00    +0.100 C 
BRANCH  26  28
ATOM     27  N   UNL     1      46.397  26.125  15.008  0.00  0.00    -0.134 NA
ATOM     28  C   UNL     1      46.263  27.489  15.027  0.00  0.00    +0.086 A 
ATOM     29  C   UNL     1      45.849  27.884  16.278  0.00  0.00    +0.133 A 
ATOM     30  N   UNL     1      45.746  26.716  16.973  0.00  0.00    -0.251 N 
ATOM     31  N   UNL     1      46.072  25.661  16.209  0.00  0.00    -0.065 NA
BRANCH  30  32
ATOM     32  C   UNL     1      45.360  26.527  18.353  0.00  0.00    +0.150 C 
BRANCH  32  33
ATOM     33  C   UNL     1      44.049  25.763  18.524  0.00  0.00    +0.084 C 
BRANCH  33  34
ATOM     34  C   UNL     1      44.261  24.354  19.057  0.00  0.00    +0.252 C 
ATOM     35  O   UNL     1      44.319  23.420  17.973  0.00  0.00    -0.349 OA
ATOM     36  C   UNL     1      45.166  22.389  18.478  0.00  0.00    +0.191 C 
ATOM     37  C   UNL     1      46.178  23.143  19.303  0.00  0.00    +0.191 C 
ATOM     38  O   UNL     1      45.478  24.281  19.807  0.00  0.00    -0.349 OA
ENDBRANCH  33  34
ENDBRANCH  32  33
ENDBRANCH  30  32
ENDBRANCH  26  28
ENDBRANCH  25  26
ENDBRANCH  24  25
ENDBRANCH   1  24
TORSDOF 13
