REMARK VINA RESULT:    -6.896      2.095      3.866
REMARK INTER + INTRA:         -13.923
REMARK INTER:                 -12.332
REMARK INTRA:                  -1.591
REMARK UNBOUND:                -1.585
REMARK  Name = lig_assembled_16.pdb
REMARK  14 active torsions:
REMARK  status: ('A' for Active; 'I' for Inactive)
REMARK    1  A    between atoms: _2  and  _8
REMARK    2  A    between atoms: _5  and  _6
REMARK    3  A    between atoms: _5  and  _17
REMARK    4  A    between atoms: _8  and  _9
REMARK    5  A    between atoms: _12  and  _13
REMARK    6  A    between atoms: _13  and  _15
REMARK    7  A    between atoms: _17  and  _19
REMARK    8  A    between atoms: _18  and  _23
REMARK    9  A    between atoms: _19  and  _22
REMARK   10  A    between atoms: _27  and  _37
REMARK   11  A    between atoms: _29  and  _30
REMARK   12  A    between atoms: _31  and  _33
REMARK   13  A    between atoms: _33  and  _35
REMARK   14  A    between atoms: _35  and  _37
REMARK                            x       y       z     vdW  Elec       q    Type
REMARK                         _______ _______ _______ _____ _____    ______ ____
ROOT
ATOM      1  C   UNL     1      28.069  16.500  -1.246  0.00  0.00    +0.400 C 
ATOM      2  N   UNL     1      27.721  15.215  -0.903  0.00  0.00    -0.278 N 
ATOM      3  H   UNL     1      28.174  15.084   0.057  0.00  0.00    +0.152 HD
ATOM      4  O   UNL     1      28.599  17.205  -0.390  0.00  0.00    -0.226 OA
ENDROOT
BRANCH   2   5
ATOM      5  C   UNL     1      27.015  13.983  -1.246  0.00  0.00    +0.152 C 
BRANCH   5   6
ATOM      6  C   UNL     1      27.648  12.672  -0.738  0.00  0.00    +0.193 C 
ATOM      7  O   UNL     1      26.796  11.597  -1.189  0.00  0.00    -0.219 OA
BRANCH   6   8
ATOM      8  C   UNL     1      29.051  12.302  -1.269  0.00  0.00    +0.212 C 
ATOM      9  O   UNL     1      29.204  12.742  -2.628  0.00  0.00    -0.218 OA
BRANCH   8  10
ATOM     10  C   UNL     1      30.225  12.907  -0.408  0.00  0.00    +0.171 C 
ATOM     11  O   UNL     1      29.758  13.757   0.634  0.00  0.00    -0.343 OA
ATOM     12  C   UNL     1      30.575  14.605   1.385  0.00  0.00    +0.220 C 
ATOM     13  C   UNL     1      31.467  15.480   0.486  0.00  0.00    +0.076 C 
ATOM     14  C   UNL     1      32.217  14.541  -0.474  0.00  0.00    +0.177 C 
ATOM     15  O   UNL     1      33.088  15.297  -1.303  0.00  0.00    -0.221 OA
ATOM     16  C   UNL     1      31.200  13.717  -1.323  0.00  0.00    +0.155 C 
BRANCH  16  17
ATOM     17  N   UNL     1      31.908  12.830  -2.242  0.00  0.00    -0.202 NA
ATOM     18  C   UNL     1      32.720  11.775  -1.976  0.00  0.00    +0.242 C 
ATOM     19  C   UNL     1      33.084  10.850  -3.108  0.00  0.00    +0.096 C 
ATOM     20  O   UNL     1      33.133  11.599  -0.832  0.00  0.00    -0.273 OA
ENDBRANCH  16  17
BRANCH  12  21
ATOM     21  C   UNL     1      31.444  13.832   2.518  0.00  0.00    +0.391 C 
ATOM     22  O   UNL     1      32.410  14.702   2.870  0.00  0.00    -0.243 OA
ATOM     23  O   UNL     1      30.714  12.771   2.885  0.00  0.00    -0.243 OA
ENDBRANCH  12  21
ENDBRANCH   8  10
ENDBRANCH   6   8
ENDBRANCH   5   6
ENDBRANCH   2   5
BRANCH   1  24
ATOM     24  O   UNL     1      27.829  16.837  -2.470  0.00  0.00    -0.450 OA
BRANCH  24  25
ATOM     25  C   UNL     1      26.728  17.084  -3.313  0.00  0.00    +0.240 C 
BRANCH  25  26
ATOM     26  C   UNL     1      26.375  16.006  -4.356  0.00  0.00    +0.100 C 
BRANCH  26  28
ATOM     27  N   UNL     1      24.445  14.577  -4.967  0.00  0.00    -0.134 NA
ATOM     28  C   UNL     1      24.996  15.527  -4.148  0.00  0.00    +0.086 A 
ATOM     29  C   UNL     1      24.080  15.871  -3.179  0.00  0.00    +0.134 A 
ATOM     30  N   UNL     1      23.034  15.028  -3.407  0.00  0.00    -0.247 N 
ATOM     31  N   UNL     1      23.233  14.289  -4.514  0.00  0.00    -0.065 NA
BRANCH  30  32
ATOM     32  C   UNL     1      21.837  14.856  -2.609  0.00  0.00    +0.180 C 
BRANCH  32  33
ATOM     33  C   UNL     1      22.025  13.783  -1.562  0.00  0.00    -0.026 A 
ATOM     34  C   UNL     1      23.301  13.280  -1.271  0.00  0.00    +0.006 A 
ATOM     35  C   UNL     1      23.472  12.316  -0.275  0.00  0.00    +0.015 A 
ATOM     36  C   UNL     1      22.372  11.829   0.435  0.00  0.00    +0.059 A 
ATOM     37  C   UNL     1      21.087  12.309   0.139  0.00  0.00    +0.015 A 
ATOM     38  C   UNL     1      20.918  13.270  -0.863  0.00  0.00    +0.006 A 
BRANCH  36  39
ATOM     39  C   UNL     1      22.620  10.859   1.534  0.00  0.00    +0.337 C 
ATOM     40  O   UNL     1      21.720  10.247   2.084  0.00  0.00    -0.245 OA
BRANCH  39  41
ATOM     41  O   UNL     1      23.915  10.745   1.887  0.00  0.00    -0.477 OA
ATOM     42  H   UNL     1      24.484  11.491   1.625  0.00  0.00    +0.295 HD
ENDBRANCH  39  41
ENDBRANCH  36  39
ENDBRANCH  32  33
ENDBRANCH  30  32
ENDBRANCH  26  28
ENDBRANCH  25  26
ENDBRANCH  24  25
ENDBRANCH   1  24
TORSDOF 14
