REMARK VINA RESULT:    -5.954      2.306      4.626
REMARK INTER + INTRA:         -14.614
REMARK INTER:                 -11.738
REMARK INTRA:                  -2.876
REMARK UNBOUND:                -3.439
REMARK  Name = lig_assembled_84.pdb
REMARK  16 active torsions:
REMARK  status: ('A' for Active; 'I' for Inactive)
REMARK    1  A    between atoms: _2  and  _10
REMARK    2  A    between atoms: _3  and  _13
REMARK    3  A    between atoms: _4  and  _16
REMARK    4  A    between atoms: _7  and  _8
REMARK    5  A    between atoms: _7  and  _23
REMARK    6  A    between atoms: _10  and  _11
REMARK    7  A    between atoms: _11  and  _12
REMARK    8  A    between atoms: _11  and  _13
REMARK    9  A    between atoms: _23  and  _25
REMARK   10  A    between atoms: _24  and  _29
REMARK   11  A    between atoms: _25  and  _28
REMARK   12  A    between atoms: _33  and  _43
REMARK   13  A    between atoms: _35  and  _36
REMARK   14  A    between atoms: _37  and  _39
REMARK   15  A    between atoms: _39  and  _41
REMARK   16  A    between atoms: _41  and  _43
REMARK                            x       y       z     vdW  Elec       q    Type
REMARK                         _______ _______ _______ _____ _____    ______ ____
ROOT
ATOM      1  C   UNL     1      26.167  11.771   1.219  0.00  0.00    +0.240 C 
ENDROOT
BRANCH   1   2
ATOM      2  C   UNL     1      26.157  10.951  -0.085  0.00  0.00    +0.100 C 
BRANCH   2   4
ATOM      3  N   UNL     1      27.052  11.334  -2.364  0.00  0.00    -0.134 NA
ATOM      4  C   UNL     1      26.419  11.817  -1.250  0.00  0.00    +0.086 A 
ATOM      5  C   UNL     1      26.150  13.156  -1.430  0.00  0.00    +0.133 A 
ATOM      6  N   UNL     1      26.702  13.441  -2.643  0.00  0.00    -0.251 N 
ATOM      7  N   UNL     1      27.223  12.341  -3.212  0.00  0.00    -0.065 NA
BRANCH   6   8
ATOM      8  C   UNL     1      26.889  14.745  -3.248  0.00  0.00    +0.149 C 
BRANCH   8   9
ATOM      9  C   UNL     1      25.649  15.653  -3.191  0.00  0.00    +0.021 C 
ATOM     10  C   UNL     1      26.014  17.114  -3.497  0.00  0.00    +0.010 C 
BRANCH   9  11
ATOM     11  C   UNL     1      24.567  15.190  -4.197  0.00  0.00    +0.089 C 
BRANCH  11  12
ATOM     12  N   UNL     1      23.466  14.402  -3.627  0.00  0.00    -0.299 NA
ATOM     13  C   UNL     1      23.343  14.676  -2.171  0.00  0.00    +0.103 C 
ATOM     14  C   UNL     1      22.144  13.933  -1.548  0.00  0.00    +0.120 C 
ATOM     15  N   UNL     1      22.287  12.490  -1.770  0.00  0.00    -0.327 N 
ATOM     16  C   UNL     1      22.473  12.109  -3.178  0.00  0.00    +0.120 C 
ATOM     17  C   UNL     1      23.631  12.937  -3.808  0.00  0.00    +0.103 C 
BRANCH  15  18
ATOM     18  C   UNL     1      22.199  11.569  -0.751  0.00  0.00    +0.030 A 
ATOM     19  C   UNL     1      21.963  11.969   0.577  0.00  0.00    +0.024 A 
ATOM     20  C   UNL     1      21.896  11.051   1.631  0.00  0.00    +0.022 A 
ATOM     21  C   UNL     1      22.056   9.700   1.372  0.00  0.00    +0.041 A 
ATOM     22 CL   UNL     1      21.980   8.564   2.663  0.00  0.00    -0.084 Cl
ATOM     23  C   UNL     1      22.289   9.262   0.073  0.00  0.00    +0.022 A 
ATOM     24  C   UNL     1      22.361  10.194  -0.973  0.00  0.00    +0.024 A 
ENDBRANCH  15  18
ENDBRANCH  11  12
ENDBRANCH   9  11
ENDBRANCH   8   9
ENDBRANCH   6   8
ENDBRANCH   2   4
ENDBRANCH   1   2
BRANCH   1  25
ATOM     25  O   UNL     1      27.364  12.428   1.565  0.00  0.00    -0.450 OA
BRANCH  25  26
ATOM     26  C   UNL     1      27.759  13.448   2.252  0.00  0.00    +0.400 C 
ATOM     27  N   UNL     1      28.327  14.470   1.529  0.00  0.00    -0.278 N 
ATOM     28  H   UNL     1      28.395  15.267   2.237  0.00  0.00    +0.152 HD
ATOM     29  O   UNL     1      27.646  13.592   3.467  0.00  0.00    -0.226 OA
BRANCH  27  30
ATOM     30  C   UNL     1      28.879  14.939   0.260  0.00  0.00    +0.152 C 
BRANCH  30  31
ATOM     31  C   UNL     1      30.381  14.669   0.031  0.00  0.00    +0.193 C 
ATOM     32  O   UNL     1      31.080  15.225   1.166  0.00  0.00    -0.219 OA
BRANCH  31  33
ATOM     33  C   UNL     1      30.842  13.196  -0.022  0.00  0.00    +0.212 C 
ATOM     34  O   UNL     1      29.821  12.371  -0.606  0.00  0.00    -0.218 OA
BRANCH  33  35
ATOM     35  C   UNL     1      32.180  12.990  -0.829  0.00  0.00    +0.171 C 
ATOM     36  O   UNL     1      31.952  12.574  -2.171  0.00  0.00    -0.343 OA
ATOM     37  C   UNL     1      32.944  12.089  -3.026  0.00  0.00    +0.220 C 
ATOM     38  C   UNL     1      33.770  10.971  -2.366  0.00  0.00    +0.076 C 
ATOM     39  C   UNL     1      34.281  11.508  -1.018  0.00  0.00    +0.177 C 
ATOM     40  O   UNL     1      35.086  10.525  -0.382  0.00  0.00    -0.221 OA
ATOM     41  C   UNL     1      33.079  11.927  -0.116  0.00  0.00    +0.155 C 
BRANCH  41  42
ATOM     42  N   UNL     1      33.560  12.431   1.168  0.00  0.00    -0.202 NA
ATOM     43  C   UNL     1      34.358  13.495   1.438  0.00  0.00    +0.242 C 
ATOM     44  C   UNL     1      34.460  13.969   2.865  0.00  0.00    +0.096 C 
ATOM     45  O   UNL     1      34.971  14.043   0.524  0.00  0.00    -0.273 OA
ENDBRANCH  41  42
BRANCH  37  46
ATOM     46  C   UNL     1      33.898  13.254  -3.637  0.00  0.00    +0.391 C 
ATOM     47  O   UNL     1      34.994  12.608  -4.082  0.00  0.00    -0.243 OA
ATOM     48  O   UNL     1      33.129  14.344  -3.742  0.00  0.00    -0.243 OA
ENDBRANCH  37  46
ENDBRANCH  33  35
ENDBRANCH  31  33
ENDBRANCH  30  31
ENDBRANCH  27  30
ENDBRANCH  25  26
ENDBRANCH   1  25
TORSDOF 15
