REMARK VINA RESULT:    -6.875      2.290      9.978
REMARK INTER + INTRA:         -16.086
REMARK INTER:                 -13.249
REMARK INTRA:                  -2.837
REMARK UNBOUND:                -2.580
REMARK  Name = lig_assembled_90.pdb
REMARK  17 active torsions:
REMARK  status: ('A' for Active; 'I' for Inactive)
REMARK    1  A    between atoms: _2  and  _12
REMARK    2  A    between atoms: _3  and  _14
REMARK    3  A    between atoms: _4  and  _16
REMARK    4  A    between atoms: _9  and  _10
REMARK    5  A    between atoms: _9  and  _23
REMARK    6  A    between atoms: _12  and  _13
REMARK    7  A    between atoms: _14  and  _15
REMARK    8  A    between atoms: _15  and  _16
REMARK    9  A    between atoms: _15  and  _21
REMARK   10  A    between atoms: _23  and  _25
REMARK   11  A    between atoms: _24  and  _29
REMARK   12  A    between atoms: _25  and  _28
REMARK   13  A    between atoms: _33  and  _43
REMARK   14  A    between atoms: _35  and  _36
REMARK   15  A    between atoms: _37  and  _39
REMARK   16  A    between atoms: _39  and  _41
REMARK   17  A    between atoms: _41  and  _43
REMARK                            x       y       z     vdW  Elec       q    Type
REMARK                         _______ _______ _______ _____ _____    ______ ____
ROOT
ATOM      1  C   UNL     1      26.310  10.605   2.984  0.00  0.00    +0.240 C 
ENDROOT
BRANCH   1   2
ATOM      2  O   UNL     1      27.462  11.405   3.107  0.00  0.00    -0.450 OA
BRANCH   2   3
ATOM      3  C   UNL     1      27.836  12.503   3.678  0.00  0.00    +0.400 C 
ATOM      4  N   UNL     1      29.040  12.449   4.341  0.00  0.00    -0.278 N 
ATOM      5  H   UNL     1      29.249  13.474   4.559  0.00  0.00    +0.152 HD
ATOM      6  O   UNL     1      27.236  13.574   3.654  0.00  0.00    -0.226 OA
BRANCH   4   7
ATOM      7  C   UNL     1      30.127  11.637   4.881  0.00  0.00    +0.152 C 
BRANCH   7   8
ATOM      8  C   UNL     1      31.549  12.003   4.407  0.00  0.00    +0.193 C 
ATOM      9  O   UNL     1      32.463  11.169   5.153  0.00  0.00    -0.219 OA
BRANCH   8  10
ATOM     10  C   UNL     1      31.901  11.733   2.927  0.00  0.00    +0.212 C 
ATOM     11  O   UNL     1      30.812  11.070   2.265  0.00  0.00    -0.218 OA
BRANCH  10  12
ATOM     12  C   UNL     1      32.259  13.040   2.122  0.00  0.00    +0.171 C 
ATOM     13  O   UNL     1      31.280  13.365   1.141  0.00  0.00    -0.343 OA
ATOM     14  C   UNL     1      31.458  14.316   0.134  0.00  0.00    +0.220 C 
ATOM     15  C   UNL     1      32.776  14.098  -0.630  0.00  0.00    +0.076 C 
ATOM     16  C   UNL     1      33.908  14.034   0.408  0.00  0.00    +0.177 C 
ATOM     17  O   UNL     1      35.156  13.873  -0.250  0.00  0.00    -0.221 OA
ATOM     18  C   UNL     1      33.646  12.874   1.418  0.00  0.00    +0.155 C 
BRANCH  18  19
ATOM     19  N   UNL     1      34.723  12.805   2.402  0.00  0.00    -0.202 NA
ATOM     20  C   UNL     1      35.569  11.785   2.693  0.00  0.00    +0.242 C 
ATOM     21  C   UNL     1      36.777  12.077   3.544  0.00  0.00    +0.096 C 
ATOM     22  O   UNL     1      35.334  10.659   2.259  0.00  0.00    -0.273 OA
ENDBRANCH  18  19
BRANCH  14  23
ATOM     23  C   UNL     1      31.320  15.847   0.659  0.00  0.00    +0.391 C 
ATOM     24  O   UNL     1      31.073  16.574  -0.448  0.00  0.00    -0.243 OA
ATOM     25  O   UNL     1      31.201  15.772   1.991  0.00  0.00    -0.243 OA
ENDBRANCH  14  23
ENDBRANCH  10  12
ENDBRANCH   8  10
ENDBRANCH   7   8
ENDBRANCH   4   7
ENDBRANCH   2   3
ENDBRANCH   1   2
BRANCH   1  26
ATOM     26  C   UNL     1      25.976  10.049   1.586  0.00  0.00    +0.100 C 
BRANCH  26  28
ATOM     27  N   UNL     1      25.826  12.058   0.138  0.00  0.00    -0.134 NA
ATOM     28  C   UNL     1      25.202  11.037   0.810  0.00  0.00    +0.086 A 
ATOM     29  C   UNL     1      23.843  11.138   0.617  0.00  0.00    +0.134 A 
ATOM     30  N   UNL     1      23.705  12.223  -0.195  0.00  0.00    -0.243 N 
ATOM     31  N   UNL     1      24.896  12.785  -0.467  0.00  0.00    -0.065 NA
BRANCH  30  32
ATOM     32  C   UNL     1      22.487  12.841  -0.661  0.00  0.00    +0.240 C 
BRANCH  32  33
ATOM     33  C   UNL     1      22.729  13.665  -1.906  0.00  0.00    +0.235 C 
ATOM     34  O   UNL     1      22.380  13.293  -3.025  0.00  0.00    -0.274 OA
ATOM     35  N   UNL     1      23.321  14.895  -1.692  0.00  0.00    -0.311 N 
ATOM     36  H   UNL     1      23.833  15.045  -0.826  0.00  0.00    +0.149 HD
BRANCH  35  37
ATOM     37  C   UNL     1      23.683  15.746  -2.817  0.00  0.00    +0.137 C 
BRANCH  37  38
ATOM     38  C   UNL     1      24.560  14.989  -3.825  0.00  0.00    +0.151 C 
BRANCH  38  39
ATOM     39  O   UNL     1      23.859  14.906  -5.072  0.00  0.00    -0.388 OA
ATOM     40  H   UNL     1      24.386  14.371  -5.698  0.00  0.00    +0.210 HD
ENDBRANCH  38  39
BRANCH  38  41
ATOM     41  C   UNL     1      25.930  15.658  -4.001  0.00  0.00    +0.162 C 
BRANCH  41  42
ATOM     42  N   UNL     1      26.869  15.290  -2.951  0.00  0.00    -0.269 N 
ATOM     43  C   UNL     1      27.266  13.990  -2.723  0.00  0.00    +0.113 A 
ATOM     44  C   UNL     1      28.110  14.042  -1.639  0.00  0.00    +0.137 A 
ATOM     45  N   UNL     1      28.241  15.331  -1.192  0.00  0.00    -0.172 NA
ATOM     46  C   UNL     1      27.496  16.062  -2.006  0.00  0.00    +0.450 A 
ATOM     47  N   UNL     1      27.378  17.493  -1.868  0.00  0.00    +0.120 N 
ATOM     48  O   UNL     1      26.745  18.106  -2.739  0.00  0.00    +0.045 OA
ATOM     49  O   UNL     1      27.910  18.014  -0.878  0.00  0.00    -0.573 OA
ENDBRANCH  41  42
ENDBRANCH  38  41
ENDBRANCH  37  38
ENDBRANCH  35  37
ENDBRANCH  32  33
ENDBRANCH  30  32
ENDBRANCH  26  28
ENDBRANCH   1  26
TORSDOF 17
