REMARK VINA RESULT:    -6.088      2.127      3.059
REMARK INTER + INTRA:         -13.859
REMARK INTER:                 -11.512
REMARK INTRA:                  -2.347
REMARK UNBOUND:                -1.720
REMARK  Name = lig_assembled_54.pdb
REMARK  19 active torsions:
REMARK  status: ('A' for Active; 'I' for Inactive)
REMARK    1  A    between atoms: _2  and  _8
REMARK    2  A    between atoms: _4  and  _13
REMARK    3  A    between atoms: _5  and  _6
REMARK    4  A    between atoms: _5  and  _16
REMARK    5  A    between atoms: _8  and  _9
REMARK    6  A    between atoms: _9  and  _10
REMARK    7  A    between atoms: _10  and  _14
REMARK    8  A    between atoms: _10  and  _15
REMARK    9  A    between atoms: _11  and  _12
REMARK   10  A    between atoms: _11  and  _15
REMARK   11  A    between atoms: _13  and  _14
REMARK   12  A    between atoms: _16  and  _18
REMARK   13  A    between atoms: _17  and  _22
REMARK   14  A    between atoms: _18  and  _21
REMARK   15  A    between atoms: _26  and  _36
REMARK   16  A    between atoms: _28  and  _29
REMARK   17  A    between atoms: _30  and  _32
REMARK   18  A    between atoms: _32  and  _34
REMARK   19  A    between atoms: _34  and  _36
REMARK                            x       y       z     vdW  Elec       q    Type
REMARK                         _______ _______ _______ _____ _____    ______ ____
ROOT
ATOM      1  C   UNL     1      27.854  17.471  -1.131  0.00  0.00    +0.400 C 
ATOM      2  N   UNL     1      28.474  16.470  -0.420  0.00  0.00    -0.278 N 
ATOM      3  H   UNL     1      28.641  16.915   0.537  0.00  0.00    +0.152 HD
ATOM      4  O   UNL     1      27.493  18.476  -0.524  0.00  0.00    -0.226 OA
ENDROOT
BRANCH   1   5
ATOM      5  O   UNL     1      27.738  17.265  -2.402  0.00  0.00    -0.450 OA
BRANCH   5   6
ATOM      6  C   UNL     1      26.744  17.279  -3.400  0.00  0.00    +0.240 C 
BRANCH   6   7
ATOM      7  C   UNL     1      26.545  15.991  -4.223  0.00  0.00    +0.100 C 
BRANCH   7   9
ATOM      8  N   UNL     1      27.026  13.686  -3.457  0.00  0.00    -0.134 NA
ATOM      9  C   UNL     1      26.313  14.847  -3.321  0.00  0.00    +0.086 A 
ATOM     10  C   UNL     1      25.445  14.721  -2.256  0.00  0.00    +0.133 A 
ATOM     11  N   UNL     1      25.707  13.478  -1.766  0.00  0.00    -0.251 N 
ATOM     12  N   UNL     1      26.652  12.855  -2.493  0.00  0.00    -0.065 NA
BRANCH  11  13
ATOM     13  C   UNL     1      25.151  12.840  -0.589  0.00  0.00    +0.150 C 
BRANCH  13  14
ATOM     14  C   UNL     1      24.665  11.430  -0.887  0.00  0.00    +0.084 C 
BRANCH  14  15
ATOM     15  C   UNL     1      23.255  11.146  -0.357  0.00  0.00    +0.252 C 
BRANCH  15  16
ATOM     16  O   UNL     1      22.597  12.372  -0.025  0.00  0.00    -0.352 OA
BRANCH  16  17
ATOM     17  C   UNL     1      21.173  12.302  -0.076  0.00  0.00    +0.159 C 
ATOM     18  C   UNL     1      20.655  13.473  -0.886  0.00  0.00    +0.034 C 
ENDBRANCH  16  17
ENDBRANCH  15  16
BRANCH  15  19
ATOM     19  O   UNL     1      23.389  10.332   0.815  0.00  0.00    -0.352 OA
BRANCH  19  20
ATOM     20  C   UNL     1      23.730  11.095   1.974  0.00  0.00    +0.159 C 
ATOM     21  C   UNL     1      24.547  10.232   2.913  0.00  0.00    +0.034 C 
ENDBRANCH  19  20
ENDBRANCH  15  19
ENDBRANCH  14  15
ENDBRANCH  13  14
ENDBRANCH  11  13
ENDBRANCH   7   9
ENDBRANCH   6   7
ENDBRANCH   5   6
ENDBRANCH   1   5
BRANCH   2  22
ATOM     22  C   UNL     1      28.980  15.101  -0.383  0.00  0.00    +0.152 C 
BRANCH  22  23
ATOM     23  C   UNL     1      30.512  14.946  -0.291  0.00  0.00    +0.193 C 
ATOM     24  O   UNL     1      31.073  16.270  -0.430  0.00  0.00    -0.219 OA
BRANCH  23  25
ATOM     25  C   UNL     1      31.099  14.416   1.036  0.00  0.00    +0.212 C 
ATOM     26  O   UNL     1      31.239  15.486   1.985  0.00  0.00    -0.218 OA
BRANCH  25  27
ATOM     27  C   UNL     1      30.232  13.273   1.690  0.00  0.00    +0.171 C 
ATOM     28  O   UNL     1      30.048  13.459   3.090  0.00  0.00    -0.343 OA
ATOM     29  C   UNL     1      29.536  12.487   3.953  0.00  0.00    +0.220 C 
ATOM     30  C   UNL     1      30.264  11.141   3.792  0.00  0.00    +0.076 C 
ATOM     31  C   UNL     1      30.222  10.769   2.300  0.00  0.00    +0.177 C 
ATOM     32  O   UNL     1      30.848   9.509   2.101  0.00  0.00    -0.221 OA
ATOM     33  C   UNL     1      30.906  11.883   1.449  0.00  0.00    +0.155 C 
BRANCH  33  34
ATOM     34  N   UNL     1      30.875  11.530   0.032  0.00  0.00    -0.202 NA
ATOM     35  C   UNL     1      31.895  11.408  -0.855  0.00  0.00    +0.242 C 
ATOM     36  C   UNL     1      31.617  10.745  -2.179  0.00  0.00    +0.096 C 
ATOM     37  O   UNL     1      33.010  11.834  -0.560  0.00  0.00    -0.273 OA
ENDBRANCH  33  34
BRANCH  29  38
ATOM     38  C   UNL     1      27.925  12.311   3.848  0.00  0.00    +0.391 C 
ATOM     39  O   UNL     1      27.677  11.078   4.330  0.00  0.00    -0.243 OA
ATOM     40  O   UNL     1      27.434  13.534   3.615  0.00  0.00    -0.243 OA
ENDBRANCH  29  38
ENDBRANCH  25  27
ENDBRANCH  23  25
ENDBRANCH  22  23
ENDBRANCH   2  22
TORSDOF 17
