REMARK VINA RESULT:    -5.915      1.884      2.914
REMARK INTER + INTRA:         -13.068
REMARK INTER:                 -11.491
REMARK INTRA:                  -1.577
REMARK UNBOUND:                -1.966
REMARK  Name = lig_assembled_17.pdb
REMARK  17 active torsions:
REMARK  status: ('A' for Active; 'I' for Inactive)
REMARK    1  A    between atoms: _2  and  _9
REMARK    2  A    between atoms: _3  and  _10
REMARK    3  A    between atoms: _3  and  _11
REMARK    4  A    between atoms: _3  and  _13
REMARK    5  A    between atoms: _5  and  _13
REMARK    6  A    between atoms: _6  and  _7
REMARK    7  A    between atoms: _6  and  _14
REMARK    8  A    between atoms: _9  and  _10
REMARK    9  A    between atoms: _11  and  _12
REMARK   10  A    between atoms: _14  and  _16
REMARK   11  A    between atoms: _15  and  _20
REMARK   12  A    between atoms: _16  and  _19
REMARK   13  A    between atoms: _24  and  _34
REMARK   14  A    between atoms: _26  and  _27
REMARK   15  A    between atoms: _28  and  _30
REMARK   16  A    between atoms: _30  and  _32
REMARK   17  A    between atoms: _32  and  _34
REMARK                            x       y       z     vdW  Elec       q    Type
REMARK                         _______ _______ _______ _____ _____    ______ ____
ROOT
ATOM      1  C   UNL     1      28.023  17.182  -0.682  0.00  0.00    +0.400 C 
ATOM      2  N   UNL     1      28.948  16.284  -0.204  0.00  0.00    -0.278 N 
ATOM      3  H   UNL     1      29.490  16.850   0.523  0.00  0.00    +0.152 HD
ATOM      4  O   UNL     1      27.905  18.258  -0.099  0.00  0.00    -0.226 OA
ENDROOT
BRANCH   2   5
ATOM      5  C   UNL     1      29.499  14.932  -0.233  0.00  0.00    +0.152 C 
BRANCH   5   6
ATOM      6  C   UNL     1      31.034  14.822  -0.131  0.00  0.00    +0.193 C 
ATOM      7  O   UNL     1      31.575  16.057  -0.648  0.00  0.00    -0.219 OA
BRANCH   6   8
ATOM      8  C   UNL     1      31.649  14.693   1.280  0.00  0.00    +0.212 C 
ATOM      9  O   UNL     1      31.233  15.788   2.111  0.00  0.00    -0.218 OA
BRANCH   8  10
ATOM     10  C   UNL     1      31.277  13.342   2.003  0.00  0.00    +0.171 C 
ATOM     11  O   UNL     1      30.253  13.508   2.978  0.00  0.00    -0.343 OA
ATOM     12  C   UNL     1      29.904  12.542   3.926  0.00  0.00    +0.220 C 
ATOM     13  C   UNL     1      31.135  12.013   4.682  0.00  0.00    +0.076 C 
ATOM     14  C   UNL     1      32.158  11.549   3.632  0.00  0.00    +0.177 C 
ATOM     15  O   UNL     1      33.303  11.012   4.279  0.00  0.00    -0.221 OA
ATOM     16  C   UNL     1      32.542  12.736   2.694  0.00  0.00    +0.155 C 
BRANCH  16  17
ATOM     17  N   UNL     1      33.519  12.302   1.700  0.00  0.00    -0.202 NA
ATOM     18  C   UNL     1      34.810  12.685   1.526  0.00  0.00    +0.242 C 
ATOM     19  C   UNL     1      35.682  11.866   0.611  0.00  0.00    +0.096 C 
ATOM     20  O   UNL     1      35.232  13.679   2.113  0.00  0.00    -0.273 OA
ENDBRANCH  16  17
BRANCH  12  21
ATOM     21  C   UNL     1      29.011  11.330   3.315  0.00  0.00    +0.391 C 
ATOM     22  O   UNL     1      29.087  10.346   4.232  0.00  0.00    -0.243 OA
ATOM     23  O   UNL     1      28.308  11.859   2.306  0.00  0.00    -0.243 OA
ENDBRANCH  12  21
ENDBRANCH   8  10
ENDBRANCH   6   8
ENDBRANCH   5   6
ENDBRANCH   2   5
BRANCH   1  24
ATOM     24  O   UNL     1      27.377  16.812  -1.738  0.00  0.00    -0.450 OA
BRANCH  24  25
ATOM     25  C   UNL     1      27.061  17.297  -3.022  0.00  0.00    +0.240 C 
BRANCH  25  26
ATOM     26  C   UNL     1      25.926  16.593  -3.789  0.00  0.00    +0.100 C 
BRANCH  26  28
ATOM     27  N   UNL     1      24.057  15.533  -2.567  0.00  0.00    -0.134 NA
ATOM     28  C   UNL     1      25.364  15.500  -2.975  0.00  0.00    +0.086 A 
ATOM     29  C   UNL     1      25.951  14.343  -2.515  0.00  0.00    +0.133 A 
ATOM     30  N   UNL     1      24.945  13.709  -1.852  0.00  0.00    -0.250 N 
ATOM     31  N   UNL     1      23.811  14.430  -1.874  0.00  0.00    -0.065 NA
BRANCH  30  32
ATOM     32  C   UNL     1      24.963  12.408  -1.214  0.00  0.00    +0.160 C 
BRANCH  32  33
ATOM     33  C   UNL     1      23.556  12.022  -0.737  0.00  0.00    +0.107 C 
BRANCH  33  34
ATOM     34  N   UNL     1      23.485  11.282   0.547  0.00  0.00    -0.301 NA
BRANCH  34  35
ATOM     35  C   UNL     1      22.213  11.618   1.221  0.00  0.00    +0.081 C 
ATOM     36  C   UNL     1      21.116  12.137   0.296  0.00  0.00    +0.020 C 
ENDBRANCH  34  35
BRANCH  34  37
ATOM     37  C   UNL     1      24.669  11.481   1.403  0.00  0.00    +0.081 C 
ATOM     38  C   UNL     1      24.715  10.678   2.700  0.00  0.00    +0.020 C 
ENDBRANCH  34  37
ENDBRANCH  33  34
ENDBRANCH  32  33
ENDBRANCH  30  32
ENDBRANCH  26  28
ENDBRANCH  25  26
ENDBRANCH  24  25
ENDBRANCH   1  24
TORSDOF 15
