REMARK VINA RESULT:    -5.828      3.436      8.711
REMARK INTER + INTRA:         -12.452
REMARK INTER:                 -10.413
REMARK INTRA:                  -2.039
REMARK UNBOUND:                -2.194
REMARK  Name = lig_assembled_14.pdb
REMARK  13 active torsions:
REMARK  status: ('A' for Active; 'I' for Inactive)
REMARK    1  A    between atoms: _2  and  _9
REMARK    2  A    between atoms: _3  and  _10
REMARK    3  A    between atoms: _6  and  _7
REMARK    4  A    between atoms: _6  and  _14
REMARK    5  A    between atoms: _9  and  _10
REMARK    6  A    between atoms: _14  and  _16
REMARK    7  A    between atoms: _15  and  _20
REMARK    8  A    between atoms: _16  and  _19
REMARK    9  A    between atoms: _24  and  _34
REMARK   10  A    between atoms: _26  and  _27
REMARK   11  A    between atoms: _28  and  _30
REMARK   12  A    between atoms: _30  and  _32
REMARK   13  A    between atoms: _32  and  _34
REMARK                            x       y       z     vdW  Elec       q    Type
REMARK                         _______ _______ _______ _____ _____    ______ ____
ROOT
ATOM      1  C   UNL     1      28.483  16.962  -0.714  0.00  0.00    +0.400 C 
ATOM      2  N   UNL     1      27.483  16.531  -1.553  0.00  0.00    -0.278 N 
ATOM      3  H   UNL     1      26.685  17.215  -1.360  0.00  0.00    +0.152 HD
ATOM      4  O   UNL     1      28.329  18.034  -0.133  0.00  0.00    -0.226 OA
ENDROOT
BRANCH   2   5
ATOM      5  C   UNL     1      27.039  15.588  -2.576  0.00  0.00    +0.152 C 
BRANCH   5   6
ATOM      6  C   UNL     1      26.230  14.374  -2.076  0.00  0.00    +0.193 C 
ATOM      7  O   UNL     1      25.520  13.848  -3.220  0.00  0.00    -0.219 OA
BRANCH   6   8
ATOM      8  C   UNL     1      27.019  13.166  -1.525  0.00  0.00    +0.212 C 
ATOM      9  O   UNL     1      28.426  13.338  -1.759  0.00  0.00    -0.218 OA
BRANCH   8  10
ATOM     10  C   UNL     1      26.791  12.923   0.016  0.00  0.00    +0.171 C 
ATOM     11  O   UNL     1      27.950  12.413   0.667  0.00  0.00    -0.343 OA
ATOM     12  C   UNL     1      27.959  11.884   1.960  0.00  0.00    +0.220 C 
ATOM     13  C   UNL     1      26.860  10.824   2.150  0.00  0.00    +0.076 C 
ATOM     14  C   UNL     1      25.527  11.458   1.720  0.00  0.00    +0.177 C 
ATOM     15  O   UNL     1      24.468  10.531   1.914  0.00  0.00    -0.221 OA
ATOM     16  C   UNL     1      25.608  11.923   0.232  0.00  0.00    +0.155 C 
BRANCH  16  17
ATOM     17  N   UNL     1      24.341  12.519  -0.183  0.00  0.00    -0.202 NA
ATOM     18  C   UNL     1      23.374  12.024  -0.996  0.00  0.00    +0.242 C 
ATOM     19  C   UNL     1      22.037  12.718  -1.022  0.00  0.00    +0.096 C 
ATOM     20  O   UNL     1      23.607  11.031  -1.682  0.00  0.00    -0.273 OA
ENDBRANCH  16  17
BRANCH  12  21
ATOM     21  C   UNL     1      27.905  13.016   3.123  0.00  0.00    +0.391 C 
ATOM     22  O   UNL     1      27.773  12.327   4.273  0.00  0.00    -0.243 OA
ATOM     23  O   UNL     1      28.307  14.156   2.549  0.00  0.00    -0.243 OA
ENDBRANCH  12  21
ENDBRANCH   8  10
ENDBRANCH   6   8
ENDBRANCH   5   6
ENDBRANCH   2   5
BRANCH   1  24
ATOM     24  O   UNL     1      29.494  16.166  -0.591  0.00  0.00    -0.450 OA
BRANCH  24  25
ATOM     25  C   UNL     1      30.533  15.891   0.319  0.00  0.00    +0.240 C 
BRANCH  25  26
ATOM     26  C   UNL     1      31.668  14.965  -0.156  0.00  0.00    +0.100 C 
BRANCH  26  28
ATOM     27  N   UNL     1      32.902  13.010   0.726  0.00  0.00    -0.134 NA
ATOM     28  C   UNL     1      32.158  14.135   0.961  0.00  0.00    +0.086 A 
ATOM     29  C   UNL     1      31.987  14.288   2.319  0.00  0.00    +0.133 A 
ATOM     30  N   UNL     1      32.635  13.216   2.851  0.00  0.00    -0.250 N 
ATOM     31  N   UNL     1      33.193  12.455   1.894  0.00  0.00    -0.065 NA
BRANCH  30  32
ATOM     32  C   UNL     1      32.722  12.822   4.240  0.00  0.00    +0.160 C 
BRANCH  32  33
ATOM     33  C   UNL     1      31.673  11.763   4.601  0.00  0.00    +0.107 C 
BRANCH  33  34
ATOM     34  N   UNL     1      31.005  12.029   5.886  0.00  0.00    -0.301 NA
ATOM     35  C   UNL     1      30.225  10.888   6.377  0.00  0.00    +0.084 C 
ATOM     36  C   UNL     1      30.006  11.242   7.833  0.00  0.00    +0.017 C 
ATOM     37  C   UNL     1      31.314  11.888   8.250  0.00  0.00    +0.017 C 
ATOM     38  C   UNL     1      31.971  12.342   6.949  0.00  0.00    +0.084 C 
ENDBRANCH  33  34
ENDBRANCH  32  33
ENDBRANCH  30  32
ENDBRANCH  26  28
ENDBRANCH  25  26
ENDBRANCH  24  25
ENDBRANCH   1  24
TORSDOF 13
