REMARK VINA RESULT:    -5.937      1.626      3.077
REMARK INTER + INTRA:         -13.110
REMARK INTER:                 -11.804
REMARK INTRA:                  -1.307
REMARK UNBOUND:                -1.966
REMARK  Name = lig_assembled_17.pdb
REMARK  17 active torsions:
REMARK  status: ('A' for Active; 'I' for Inactive)
REMARK    1  A    between atoms: _2  and  _9
REMARK    2  A    between atoms: _3  and  _10
REMARK    3  A    between atoms: _3  and  _11
REMARK    4  A    between atoms: _3  and  _13
REMARK    5  A    between atoms: _5  and  _13
REMARK    6  A    between atoms: _6  and  _7
REMARK    7  A    between atoms: _6  and  _14
REMARK    8  A    between atoms: _9  and  _10
REMARK    9  A    between atoms: _11  and  _12
REMARK   10  A    between atoms: _14  and  _16
REMARK   11  A    between atoms: _15  and  _20
REMARK   12  A    between atoms: _16  and  _19
REMARK   13  A    between atoms: _24  and  _34
REMARK   14  A    between atoms: _26  and  _27
REMARK   15  A    between atoms: _28  and  _30
REMARK   16  A    between atoms: _30  and  _32
REMARK   17  A    between atoms: _32  and  _34
REMARK                            x       y       z     vdW  Elec       q    Type
REMARK                         _______ _______ _______ _____ _____    ______ ____
ROOT
ATOM      1  C   UNL     1      27.949  17.470  -0.860  0.00  0.00    +0.400 C 
ATOM      2  N   UNL     1      28.838  16.718  -0.129  0.00  0.00    -0.278 N 
ATOM      3  H   UNL     1      29.041  17.332   0.721  0.00  0.00    +0.152 HD
ATOM      4  O   UNL     1      27.484  18.482  -0.342  0.00  0.00    -0.226 OA
ENDROOT
BRANCH   2   5
ATOM      5  C   UNL     1      29.600  15.479   0.009  0.00  0.00    +0.152 C 
BRANCH   5   6
ATOM      6  C   UNL     1      31.115  15.637   0.255  0.00  0.00    +0.193 C 
ATOM      7  O   UNL     1      31.290  15.799   1.679  0.00  0.00    -0.219 OA
BRANCH   6   8
ATOM      8  C   UNL     1      32.027  14.446  -0.113  0.00  0.00    +0.212 C 
ATOM      9  O   UNL     1      33.104  14.882  -0.959  0.00  0.00    -0.218 OA
BRANCH   8  10
ATOM     10  C   UNL     1      32.636  13.715   1.143  0.00  0.00    +0.171 C 
ATOM     11  O   UNL     1      34.054  13.598   1.075  0.00  0.00    -0.343 OA
ATOM     12  C   UNL     1      34.820  12.792   1.920  0.00  0.00    +0.220 C 
ATOM     13  C   UNL     1      34.273  11.355   1.987  0.00  0.00    +0.076 C 
ATOM     14  C   UNL     1      32.782  11.443   2.353  0.00  0.00    +0.177 C 
ATOM     15  O   UNL     1      32.236  10.137   2.467  0.00  0.00    -0.221 OA
ATOM     16  C   UNL     1      32.017  12.286   1.286  0.00  0.00    +0.155 C 
BRANCH  16  17
ATOM     17  N   UNL     1      30.598  12.367   1.626  0.00  0.00    -0.202 NA
ATOM     18  C   UNL     1      30.000  12.857   2.742  0.00  0.00    +0.242 C 
ATOM     19  C   UNL     1      28.512  13.090   2.711  0.00  0.00    +0.096 C 
ATOM     20  O   UNL     1      30.677  13.097   3.739  0.00  0.00    -0.273 OA
ENDBRANCH  16  17
BRANCH  12  21
ATOM     21  C   UNL     1      35.026  13.422   3.403  0.00  0.00    +0.391 C 
ATOM     22  O   UNL     1      35.592  12.435   4.125  0.00  0.00    -0.243 OA
ATOM     23  O   UNL     1      34.844  14.742   3.273  0.00  0.00    -0.243 OA
ENDBRANCH  12  21
ENDBRANCH   8  10
ENDBRANCH   6   8
ENDBRANCH   5   6
ENDBRANCH   2   5
BRANCH   1  24
ATOM     24  O   UNL     1      27.709  17.046  -2.057  0.00  0.00    -0.450 OA
BRANCH  24  25
ATOM     25  C   UNL     1      26.798  17.272  -3.108  0.00  0.00    +0.240 C 
BRANCH  25  26
ATOM     26  C   UNL     1      26.509  16.098  -4.063  0.00  0.00    +0.100 C 
BRANCH  26  28
ATOM     27  N   UNL     1      24.257  15.859  -3.072  0.00  0.00    -0.134 NA
ATOM     28  C   UNL     1      25.405  15.275  -3.538  0.00  0.00    +0.086 A 
ATOM     29  C   UNL     1      25.293  13.907  -3.425  0.00  0.00    +0.133 A 
ATOM     30  N   UNL     1      24.049  13.725  -2.904  0.00  0.00    -0.250 N 
ATOM     31  N   UNL     1      23.432  14.898  -2.682  0.00  0.00    -0.065 NA
BRANCH  30  32
ATOM     32  C   UNL     1      23.357  12.481  -2.631  0.00  0.00    +0.160 C 
BRANCH  32  33
ATOM     33  C   UNL     1      23.484  12.107  -1.147  0.00  0.00    +0.107 C 
BRANCH  33  34
ATOM     34  N   UNL     1      22.270  12.311  -0.319  0.00  0.00    -0.301 NA
BRANCH  34  35
ATOM     35  C   UNL     1      22.204  11.242   0.700  0.00  0.00    +0.081 C 
ATOM     36  C   UNL     1      21.621  11.671   2.043  0.00  0.00    +0.020 C 
ENDBRANCH  34  35
BRANCH  34  37
ATOM     37  C   UNL     1      21.035  12.438  -1.113  0.00  0.00    +0.081 C 
ATOM     38  C   UNL     1      20.267  13.749  -0.975  0.00  0.00    +0.020 C 
ENDBRANCH  34  37
ENDBRANCH  33  34
ENDBRANCH  32  33
ENDBRANCH  30  32
ENDBRANCH  26  28
ENDBRANCH  25  26
ENDBRANCH  24  25
ENDBRANCH   1  24
TORSDOF 15
