REMARK VINA RESULT:    -8.151      1.408      2.920
REMARK INTER + INTRA:         -15.155
REMARK INTER:                 -13.619
REMARK INTRA:                  -1.536
REMARK UNBOUND:                -1.762
REMARK  Name = lig_assembled_25.pdb
REMARK  11 active torsions:
REMARK  status: ('A' for Active; 'I' for Inactive)
REMARK    1  A    between atoms: _2  and  _8
REMARK    2  A    between atoms: _5  and  _6
REMARK    3  A    between atoms: _5  and  _20
REMARK    4  A    between atoms: _20  and  _22
REMARK    5  A    between atoms: _21  and  _26
REMARK    6  A    between atoms: _22  and  _25
REMARK    7  A    between atoms: _30  and  _40
REMARK    8  A    between atoms: _32  and  _33
REMARK    9  A    between atoms: _34  and  _36
REMARK   10  A    between atoms: _36  and  _38
REMARK   11  A    between atoms: _38  and  _40
REMARK                            x       y       z     vdW  Elec       q    Type
REMARK                         _______ _______ _______ _____ _____    ______ ____
ROOT
ATOM      1  C   UNL     1      28.025  16.945  -0.602  0.00  0.00    +0.400 C 
ATOM      2  N   UNL     1      28.498  15.980   0.256  0.00  0.00    -0.278 N 
ATOM      3  H   UNL     1      28.937  16.547   1.049  0.00  0.00    +0.152 HD
ATOM      4  O   UNL     1      28.035  18.113  -0.222  0.00  0.00    -0.226 OA
ENDROOT
BRANCH   1   5
ATOM      5  O   UNL     1      27.638  16.523  -1.760  0.00  0.00    -0.450 OA
BRANCH   5   6
ATOM      6  C   UNL     1      27.273  17.040  -3.019  0.00  0.00    +0.240 C 
BRANCH   6   7
ATOM      7  C   UNL     1      25.770  17.117  -3.348  0.00  0.00    +0.100 C 
BRANCH   7   9
ATOM      8  N   UNL     1      25.810  14.699  -3.853  0.00  0.00    -0.134 NA
ATOM      9  C   UNL     1      25.164  15.773  -3.302  0.00  0.00    +0.086 A 
ATOM     10  C   UNL     1      23.957  15.356  -2.784  0.00  0.00    +0.134 A 
ATOM     11  N   UNL     1      23.917  14.019  -3.065  0.00  0.00    -0.240 N 
ATOM     12  N   UNL     1      25.044  13.629  -3.701  0.00  0.00    -0.065 NA
BRANCH  11  13
ATOM     13  C   UNL     1      22.850  13.053  -2.859  0.00  0.00    +0.170 C 
ATOM     14  C   UNL     1      21.471  13.646  -3.118  0.00  0.00    -0.011 A 
ATOM     15  C   UNL     1      20.653  13.475  -1.980  0.00  0.00    -0.012 A 
ATOM     16  C   UNL     1      21.417  12.808  -0.945  0.00  0.00    -0.012 A 
ATOM     17  C   UNL     1      21.041  12.395   0.322  0.00  0.00    +0.009 A 
ATOM     18  C   UNL     1      21.986  11.736   1.114  0.00  0.00    +0.001 A 
ATOM     19  C   UNL     1      23.287  11.501   0.639  0.00  0.00    +0.000 A 
ATOM     20  C   UNL     1      23.670  11.917  -0.638  0.00  0.00    +0.006 A 
ATOM     21  C   UNL     1      19.339  13.916  -1.987  0.00  0.00    +0.009 A 
ATOM     22  C   UNL     1      18.851  14.529  -3.145  0.00  0.00    +0.001 A 
ATOM     23  C   UNL     1      19.668  14.694  -4.275  0.00  0.00    +0.000 A 
ATOM     24  C   UNL     1      20.990  14.248  -4.272  0.00  0.00    +0.006 A 
ATOM     25  C   UNL     1      22.728  12.571  -1.420  0.00  0.00    -0.011 A 
ENDBRANCH  11  13
ENDBRANCH   7   9
ENDBRANCH   6   7
ENDBRANCH   5   6
ENDBRANCH   1   5
BRANCH   2  26
ATOM     26  C   UNL     1      28.653  14.562   0.570  0.00  0.00    +0.152 C 
BRANCH  26  27
ATOM     27  C   UNL     1      30.091  14.083   0.859  0.00  0.00    +0.193 C 
ATOM     28  O   UNL     1      30.006  12.674   1.165  0.00  0.00    -0.219 OA
BRANCH  27  29
ATOM     29  C   UNL     1      31.118  14.167  -0.291  0.00  0.00    +0.212 C 
ATOM     30  O   UNL     1      31.508  15.531  -0.517  0.00  0.00    -0.218 OA
BRANCH  29  31
ATOM     31  C   UNL     1      32.415  13.308  -0.034  0.00  0.00    +0.171 C 
ATOM     32  O   UNL     1      33.063  13.646   1.188  0.00  0.00    -0.343 OA
ATOM     33  C   UNL     1      34.345  13.222   1.543  0.00  0.00    +0.220 C 
ATOM     34  C   UNL     1      35.367  13.497   0.426  0.00  0.00    +0.076 C 
ATOM     35  C   UNL     1      34.815  12.876  -0.868  0.00  0.00    +0.177 C 
ATOM     36  O   UNL     1      35.743  13.067  -1.927  0.00  0.00    -0.221 OA
ATOM     37  C   UNL     1      33.426  13.497  -1.212  0.00  0.00    +0.155 C 
BRANCH  37  38
ATOM     38  N   UNL     1      32.902  12.914  -2.445  0.00  0.00    -0.202 NA
ATOM     39  C   UNL     1      33.010  13.351  -3.726  0.00  0.00    +0.242 C 
ATOM     40  C   UNL     1      32.630  12.408  -4.837  0.00  0.00    +0.096 C 
ATOM     41  O   UNL     1      33.412  14.491  -3.947  0.00  0.00    -0.273 OA
ENDBRANCH  37  38
BRANCH  33  42
ATOM     42  C   UNL     1      34.402  11.676   2.037  0.00  0.00    +0.391 C 
ATOM     43  O   UNL     1      33.141  11.384   2.410  0.00  0.00    -0.243 OA
ATOM     44  O   UNL     1      35.577  11.195   1.613  0.00  0.00    -0.243 OA
ENDBRANCH  33  42
ENDBRANCH  29  31
ENDBRANCH  27  29
ENDBRANCH  26  27
ENDBRANCH   2  26
TORSDOF 11
