REMARK VINA RESULT:    -6.466      1.364      3.595
REMARK INTER + INTRA:         -13.944
REMARK INTER:                 -12.551
REMARK INTRA:                  -1.393
REMARK UNBOUND:                -1.808
REMARK  Name = lig_assembled_43.pdb
REMARK  15 active torsions:
REMARK  status: ('A' for Active; 'I' for Inactive)
REMARK    1  A    between atoms: _2  and  _8
REMARK    2  A    between atoms: _5  and  _6
REMARK    3  A    between atoms: _5  and  _13
REMARK    4  A    between atoms: _8  and  _9
REMARK    5  A    between atoms: _9  and  _10
REMARK    6  A    between atoms: _10  and  _11
REMARK    7  A    between atoms: _11  and  _12
REMARK    8  A    between atoms: _13  and  _15
REMARK    9  A    between atoms: _14  and  _19
REMARK   10  A    between atoms: _15  and  _18
REMARK   11  A    between atoms: _23  and  _33
REMARK   12  A    between atoms: _25  and  _26
REMARK   13  A    between atoms: _27  and  _29
REMARK   14  A    between atoms: _29  and  _31
REMARK   15  A    between atoms: _31  and  _33
REMARK                            x       y       z     vdW  Elec       q    Type
REMARK                         _______ _______ _______ _____ _____    ______ ____
ROOT
ATOM      1  C   UNL     1      28.876  15.053   0.155  0.00  0.00    +0.152 C 
ENDROOT
BRANCH   1   3
ATOM      2  C   UNL     1      27.849  17.402  -0.778  0.00  0.00    +0.400 C 
ATOM      3  N   UNL     1      28.393  16.425   0.021  0.00  0.00    -0.278 N 
ATOM      4  H   UNL     1      28.486  16.906   0.971  0.00  0.00    +0.152 HD
ATOM      5  O   UNL     1      27.452  18.434  -0.243  0.00  0.00    -0.226 OA
BRANCH   2   6
ATOM      6  O   UNL     1      27.836  17.146  -2.045  0.00  0.00    -0.450 OA
BRANCH   6   7
ATOM      7  C   UNL     1      27.027  17.381  -3.175  0.00  0.00    +0.240 C 
BRANCH   7   8
ATOM      8  C   UNL     1      26.532  16.154  -3.962  0.00  0.00    +0.100 C 
BRANCH   8  10
ATOM      9  N   UNL     1      25.856  14.338  -2.421  0.00  0.00    -0.134 NA
ATOM     10  C   UNL     1      25.514  15.423  -3.185  0.00  0.00    +0.086 A 
ATOM     11  C   UNL     1      24.159  15.640  -3.077  0.00  0.00    +0.133 A 
ATOM     12  N   UNL     1      23.736  14.653  -2.239  0.00  0.00    -0.251 N 
ATOM     13  N   UNL     1      24.755  13.872  -1.845  0.00  0.00    -0.065 NA
BRANCH  12  14
ATOM     14  C   UNL     1      22.385  14.374  -1.800  0.00  0.00    +0.145 C 
BRANCH  14  15
ATOM     15  C   UNL     1      22.007  12.917  -2.049  0.00  0.00    +0.024 C 
BRANCH  15  16
ATOM     16  C   UNL     1      20.954  12.419  -1.057  0.00  0.00    +0.006 C 
BRANCH  16  17
ATOM     17  C   UNL     1      21.534  11.319  -0.165  0.00  0.00    +0.026 C 
BRANCH  17  18
ATOM     18  C   UNL     1      21.659  11.762   1.263  0.00  0.00    -0.034 C 
ATOM     19  C   UNL     1      21.954  10.937   2.277  0.00  0.00    +0.004 C 
ENDBRANCH  17  18
ENDBRANCH  16  17
ENDBRANCH  15  16
ENDBRANCH  14  15
ENDBRANCH  12  14
ENDBRANCH   8  10
ENDBRANCH   7   8
ENDBRANCH   6   7
ENDBRANCH   2   6
ENDBRANCH   1   3
BRANCH   1  20
ATOM     20  C   UNL     1      30.214  14.732  -0.543  0.00  0.00    +0.193 C 
ATOM     21  O   UNL     1      30.961  15.967  -0.596  0.00  0.00    -0.219 OA
BRANCH  20  22
ATOM     22  C   UNL     1      31.164  13.736   0.156  0.00  0.00    +0.212 C 
ATOM     23  O   UNL     1      30.531  12.454   0.300  0.00  0.00    -0.218 OA
BRANCH  22  24
ATOM     24  C   UNL     1      32.532  13.539  -0.604  0.00  0.00    +0.171 C 
ATOM     25  O   UNL     1      32.387  12.792  -1.807  0.00  0.00    -0.343 OA
ATOM     26  C   UNL     1      33.453  12.268  -2.542  0.00  0.00    +0.220 C 
ATOM     27  C   UNL     1      34.419  11.465  -1.652  0.00  0.00    +0.076 C 
ATOM     28  C   UNL     1      34.825  12.370  -0.477  0.00  0.00    +0.177 C 
ATOM     29  O   UNL     1      35.752  11.689   0.357  0.00  0.00    -0.221 OA
ATOM     30  C   UNL     1      33.561  12.813   0.323  0.00  0.00    +0.155 C 
BRANCH  30  31
ATOM     31  N   UNL     1      33.944  13.667   1.444  0.00  0.00    -0.202 NA
ATOM     32  C   UNL     1      33.841  13.445   2.779  0.00  0.00    +0.242 C 
ATOM     33  C   UNL     1      34.581  14.364   3.716  0.00  0.00    +0.096 C 
ATOM     34  O   UNL     1      33.155  12.510   3.188  0.00  0.00    -0.273 OA
ENDBRANCH  30  31
BRANCH  26  35
ATOM     35  C   UNL     1      34.240  13.381  -3.425  0.00  0.00    +0.391 C 
ATOM     36  O   UNL     1      35.398  12.789  -3.778  0.00  0.00    -0.243 OA
ATOM     37  O   UNL     1      33.338  14.326  -3.718  0.00  0.00    -0.243 OA
ENDBRANCH  26  35
ENDBRANCH  22  24
ENDBRANCH  20  22
ENDBRANCH   1  20
TORSDOF 15
