REMARK VINA RESULT:    -7.173      1.742      2.408
REMARK INTER + INTRA:         -13.919
REMARK INTER:                 -11.692
REMARK INTRA:                  -2.226
REMARK UNBOUND:                -2.133
REMARK  Name = lig_assembled_7.pdb
REMARK  14 active torsions:
REMARK  status: ('A' for Active; 'I' for Inactive)
REMARK    1  A    between atoms: _2  and  _8
REMARK    2  A    between atoms: _4  and  _15
REMARK    3  A    between atoms: _5  and  _6
REMARK    4  A    between atoms: _5  and  _16
REMARK    5  A    between atoms: _9  and  _10
REMARK    6  A    between atoms: _12  and  _13
REMARK    7  A    between atoms: _16  and  _18
REMARK    8  A    between atoms: _17  and  _22
REMARK    9  A    between atoms: _18  and  _21
REMARK   10  A    between atoms: _26  and  _36
REMARK   11  A    between atoms: _28  and  _29
REMARK   12  A    between atoms: _30  and  _32
REMARK   13  A    between atoms: _32  and  _34
REMARK   14  A    between atoms: _34  and  _36
REMARK                            x       y       z     vdW  Elec       q    Type
REMARK                         _______ _______ _______ _____ _____    ______ ____
ROOT
ATOM      1  C   UNL     1      28.224  16.790  -0.799  0.00  0.00    +0.400 C 
ATOM      2  N   UNL     1      28.453  15.545  -0.262  0.00  0.00    -0.278 N 
ATOM      3  H   UNL     1      28.931  15.760   0.669  0.00  0.00    +0.152 HD
ATOM      4  O   UNL     1      28.419  17.772  -0.087  0.00  0.00    -0.226 OA
ENDROOT
BRANCH   1   5
ATOM      5  O   UNL     1      27.848  16.806  -2.035  0.00  0.00    -0.450 OA
BRANCH   5   6
ATOM      6  C   UNL     1      26.863  17.405  -2.844  0.00  0.00    +0.240 C 
BRANCH   6   7
ATOM      7  C   UNL     1      26.403  16.632  -4.095  0.00  0.00    +0.100 C 
BRANCH   7   9
ATOM      8  N   UNL     1      24.996  14.684  -4.643  0.00  0.00    -0.134 NA
ATOM      9  C   UNL     1      25.602  15.458  -3.704  0.00  0.00    +0.086 A 
ATOM     10  C   UNL     1      25.326  14.938  -2.453  0.00  0.00    +0.139 A 
ATOM     11  N   UNL     1      24.497  13.860  -2.681  0.00  0.00    -0.219 N 
ATOM     12  N   UNL     1      24.357  13.707  -4.022  0.00  0.00    -0.061 NA
BRANCH  11  13
ATOM     13  C   UNL     1      23.859  12.985  -1.743  0.00  0.00    +0.073 A 
ATOM     14  C   UNL     1      22.534  13.279  -1.302  0.00  0.00    -0.024 A 
ATOM     15  C   UNL     1      21.896  12.422  -0.378  0.00  0.00    +0.008 A 
ATOM     16  C   UNL     1      22.526  11.281   0.110  0.00  0.00    -0.050 A 
ATOM     17  C   UNL     1      21.818  10.390   1.088  0.00  0.00    +0.044 C 
ATOM     18  C   UNL     1      23.817  10.996  -0.325  0.00  0.00    +0.008 A 
ATOM     19  C   UNL     1      21.705  14.446  -1.792  0.00  0.00    +0.046 C 
ATOM     20  C   UNL     1      24.511  11.835  -1.228  0.00  0.00    -0.024 A 
ATOM     21  C   UNL     1      25.939  11.414  -1.470  0.00  0.00    +0.046 C 
ENDBRANCH  11  13
ENDBRANCH   7   9
ENDBRANCH   6   7
ENDBRANCH   5   6
ENDBRANCH   1   5
BRANCH   2  22
ATOM     22  C   UNL     1      28.326  14.095  -0.385  0.00  0.00    +0.152 C 
BRANCH  22  23
ATOM     23  C   UNL     1      28.028  13.326   0.919  0.00  0.00    +0.193 C 
ATOM     24  O   UNL     1      28.548  11.990   0.741  0.00  0.00    -0.219 OA
BRANCH  23  25
ATOM     25  C   UNL     1      28.697  13.831   2.216  0.00  0.00    +0.212 C 
ATOM     26  O   UNL     1      27.719  13.993   3.255  0.00  0.00    -0.218 OA
BRANCH  25  27
ATOM     27  C   UNL     1      29.838  12.878   2.742  0.00  0.00    +0.171 C 
ATOM     28  O   UNL     1      29.626  12.462   4.087  0.00  0.00    -0.343 OA
ATOM     29  C   UNL     1      30.587  11.823   4.874  0.00  0.00    +0.220 C 
ATOM     30  C   UNL     1      31.927  12.580   4.866  0.00  0.00    +0.076 C 
ATOM     31  C   UNL     1      32.329  12.790   3.397  0.00  0.00    +0.177 C 
ATOM     32  O   UNL     1      33.585  13.453   3.332  0.00  0.00    -0.221 OA
ATOM     33  C   UNL     1      31.224  13.596   2.646  0.00  0.00    +0.155 C 
BRANCH  33  34
ATOM     34  N   UNL     1      31.606  13.805   1.252  0.00  0.00    -0.202 NA
ATOM     35  C   UNL     1      31.695  14.956   0.539  0.00  0.00    +0.242 C 
ATOM     36  C   UNL     1      32.396  14.921  -0.793  0.00  0.00    +0.096 C 
ATOM     37  O   UNL     1      31.208  15.990   0.993  0.00  0.00    -0.273 OA
ENDBRANCH  33  34
BRANCH  29  38
ATOM     38  C   UNL     1      30.786  10.253   4.506  0.00  0.00    +0.391 C 
ATOM     39  O   UNL     1      31.930   9.894   5.120  0.00  0.00    -0.243 OA
ATOM     40  O   UNL     1      29.616   9.840   4.002  0.00  0.00    -0.243 OA
ENDBRANCH  29  38
ENDBRANCH  25  27
ENDBRANCH  23  25
ENDBRANCH  22  23
ENDBRANCH   2  22
TORSDOF 11
