REMARK VINA RESULT:    -5.871      2.794      4.237
REMARK INTER + INTRA:         -12.911
REMARK INTER:                 -10.990
REMARK INTRA:                  -1.921
REMARK UNBOUND:                -2.235
REMARK  Name = lig_assembled_50.pdb
REMARK  15 active torsions:
REMARK  status: ('A' for Active; 'I' for Inactive)
REMARK    1  A    between atoms: _2  and  _8
REMARK    2  A    between atoms: _4  and  _9
REMARK    3  A    between atoms: _4  and  _10
REMARK    4  A    between atoms: _5  and  _6
REMARK    5  A    between atoms: _5  and  _12
REMARK    6  A    between atoms: _8  and  _9
REMARK    7  A    between atoms: _9  and  _11
REMARK    8  A    between atoms: _12  and  _14
REMARK    9  A    between atoms: _13  and  _18
REMARK   10  A    between atoms: _14  and  _17
REMARK   11  A    between atoms: _22  and  _32
REMARK   12  A    between atoms: _24  and  _25
REMARK   13  A    between atoms: _26  and  _28
REMARK   14  A    between atoms: _28  and  _30
REMARK   15  A    between atoms: _30  and  _32
REMARK                            x       y       z     vdW  Elec       q    Type
REMARK                         _______ _______ _______ _____ _____    ______ ____
ROOT
ATOM      1  C   UNL     1      27.480  13.055   2.374  0.00  0.00    +0.400 C 
ATOM      2  N   UNL     1      28.350  14.040   1.967  0.00  0.00    -0.278 N 
ATOM      3  H   UNL     1      28.823  14.343   2.876  0.00  0.00    +0.152 HD
ATOM      4  O   UNL     1      27.566  12.648   3.530  0.00  0.00    -0.226 OA
ENDROOT
BRANCH   2   5
ATOM      5  C   UNL     1      28.913  14.829   0.875  0.00  0.00    +0.152 C 
BRANCH   5   6
ATOM      6  C   UNL     1      30.308  14.399   0.375  0.00  0.00    +0.193 C 
ATOM      7  O   UNL     1      30.559  15.137  -0.841  0.00  0.00    -0.219 OA
BRANCH   6   8
ATOM      8  C   UNL     1      31.520  14.717   1.277  0.00  0.00    +0.212 C 
ATOM      9  O   UNL     1      31.233  15.841   2.126  0.00  0.00    -0.218 OA
BRANCH   8  10
ATOM     10  C   UNL     1      31.962  13.503   2.180  0.00  0.00    +0.171 C 
ATOM     11  O   UNL     1      31.030  13.226   3.220  0.00  0.00    -0.343 OA
ATOM     12  C   UNL     1      31.282  12.376   4.299  0.00  0.00    +0.220 C 
ATOM     13  C   UNL     1      32.611  12.717   4.995  0.00  0.00    +0.076 C 
ATOM     14  C   UNL     1      33.707  12.737   3.917  0.00  0.00    +0.177 C 
ATOM     15  O   UNL     1      34.966  13.010   4.515  0.00  0.00    -0.221 OA
ATOM     16  C   UNL     1      33.361  13.790   2.819  0.00  0.00    +0.155 C 
BRANCH  16  17
ATOM     17  N   UNL     1      34.403  13.817   1.796  0.00  0.00    -0.202 NA
ATOM     18  C   UNL     1      34.727  12.887   0.862  0.00  0.00    +0.242 C 
ATOM     19  C   UNL     1      35.649  13.290  -0.259  0.00  0.00    +0.096 C 
ATOM     20  O   UNL     1      34.265  11.751   0.951  0.00  0.00    -0.273 OA
ENDBRANCH  16  17
BRANCH  12  21
ATOM     21  C   UNL     1      31.197  10.799   3.915  0.00  0.00    +0.391 C 
ATOM     22  O   UNL     1      31.801  10.160   4.935  0.00  0.00    -0.243 OA
ATOM     23  O   UNL     1      30.317  10.710   2.910  0.00  0.00    -0.243 OA
ENDBRANCH  12  21
ENDBRANCH   8  10
ENDBRANCH   6   8
ENDBRANCH   5   6
ENDBRANCH   2   5
BRANCH   1  24
ATOM     24  O   UNL     1      26.620  12.668   1.490  0.00  0.00    -0.450 OA
BRANCH  24  25
ATOM     25  C   UNL     1      26.586  11.969   0.268  0.00  0.00    +0.240 C 
BRANCH  25  26
ATOM     26  C   UNL     1      25.295  12.063  -0.569  0.00  0.00    +0.100 C 
BRANCH  26  28
ATOM     27  N   UNL     1      24.292  14.048  -1.660  0.00  0.00    -0.134 NA
ATOM     28  C   UNL     1      25.365  13.210  -1.496  0.00  0.00    +0.086 A 
ATOM     29  C   UNL     1      26.403  13.644  -2.295  0.00  0.00    +0.133 A 
ATOM     30  N   UNL     1      25.897  14.739  -2.921  0.00  0.00    -0.249 N 
ATOM     31  N   UNL     1      24.634  14.990  -2.526  0.00  0.00    -0.065 NA
BRANCH  30  32
ATOM     32  C   UNL     1      26.534  15.586  -3.902  0.00  0.00    +0.178 C 
BRANCH  32  33
ATOM     33  C   UNL     1      26.782  17.020  -3.421  0.00  0.00    +0.161 C 
BRANCH  33  34
ATOM     34  O   UNL     1      25.622  17.850  -3.535  0.00  0.00    -0.388 OA
ATOM     35  H   UNL     1      25.886  18.778  -3.372  0.00  0.00    +0.210 HD
ENDBRANCH  33  34
BRANCH  33  36
ATOM     36  C   UNL     1      27.339  17.101  -1.993  0.00  0.00    +0.189 C 
BRANCH  36  37
ATOM     37  O   UNL     1      28.631  17.707  -1.974  0.00  0.00    -0.392 OA
ATOM     38  H   UNL     1      28.676  18.302  -1.201  0.00  0.00    +0.210 HD
ENDBRANCH  36  37
ENDBRANCH  33  36
ENDBRANCH  32  33
ENDBRANCH  30  32
ENDBRANCH  26  28
ENDBRANCH  25  26
ENDBRANCH  24  25
ENDBRANCH   1  24
TORSDOF 15
