REMARK VINA RESULT:    -7.009      4.404      9.943
REMARK INTER + INTRA:         -12.581
REMARK INTER:                 -10.814
REMARK INTRA:                  -1.767
REMARK UNBOUND:                -1.064
REMARK  Name = lig_assembled_27.pdb
REMARK  11 active torsions:
REMARK  status: ('A' for Active; 'I' for Inactive)
REMARK    1  A    between atoms: _2  and  _8
REMARK    2  A    between atoms: _5  and  _6
REMARK    3  A    between atoms: _5  and  _13
REMARK    4  A    between atoms: _13  and  _15
REMARK    5  A    between atoms: _14  and  _19
REMARK    6  A    between atoms: _15  and  _18
REMARK    7  A    between atoms: _23  and  _33
REMARK    8  A    between atoms: _25  and  _26
REMARK    9  A    between atoms: _27  and  _29
REMARK   10  A    between atoms: _29  and  _31
REMARK   11  A    between atoms: _31  and  _33
REMARK                            x       y       z     vdW  Elec       q    Type
REMARK                         _______ _______ _______ _____ _____    ______ ____
ROOT
ATOM      1  C   UNL     1      26.710  16.722  -3.163  0.00  0.00    +0.400 C 
ATOM      2  N   UNL     1      26.625  15.352  -3.242  0.00  0.00    -0.278 N 
ATOM      3  H   UNL     1      25.674  15.190  -3.703  0.00  0.00    +0.152 HD
ATOM      4  O   UNL     1      25.860  17.391  -3.747  0.00  0.00    -0.226 OA
ENDROOT
BRANCH   1   5
ATOM      5  O   UNL     1      27.678  17.182  -2.440  0.00  0.00    -0.450 OA
BRANCH   5   6
ATOM      6  C   UNL     1      27.901  17.665  -1.135  0.00  0.00    +0.240 C 
BRANCH   6   7
ATOM      7  C   UNL     1      29.358  17.719  -0.637  0.00  0.00    +0.100 C 
BRANCH   7   9
ATOM      8  N   UNL     1      28.893  15.366  -0.027  0.00  0.00    -0.134 NA
ATOM      9  C   UNL     1      29.728  16.446   0.006  0.00  0.00    +0.086 A 
ATOM     10  C   UNL     1      30.868  16.109   0.699  0.00  0.00    +0.139 A 
ATOM     11  N   UNL     1      30.688  14.796   1.068  0.00  0.00    -0.220 N 
ATOM     12  N   UNL     1      29.482  14.369   0.619  0.00  0.00    -0.061 NA
BRANCH  11  13
ATOM     13  C   UNL     1      31.564  13.948   1.794  0.00  0.00    +0.068 A 
ATOM     14  C   UNL     1      31.563  12.567   1.540  0.00  0.00    +0.028 A 
ATOM     15  C   UNL     1      32.419  11.721   2.251  0.00  0.00    +0.003 A 
ATOM     16  C   UNL     1      33.277  12.246   3.218  0.00  0.00    +0.020 A 
ATOM     17  C   UNL     1      33.278  13.617   3.467  0.00  0.00    +0.043 A 
ATOM     18 CL   UNL     1      34.339  14.265   4.659  0.00  0.00    -0.083 Cl
ATOM     19  C   UNL     1      32.430  14.473   2.763  0.00  0.00    +0.047 A 
ENDBRANCH  11  13
ENDBRANCH   7   9
ENDBRANCH   6   7
ENDBRANCH   5   6
ENDBRANCH   1   5
BRANCH   2  20
ATOM     20  C   UNL     1      27.242  14.051  -2.999  0.00  0.00    +0.152 C 
BRANCH  20  21
ATOM     21  C   UNL     1      26.343  12.819  -3.227  0.00  0.00    +0.193 C 
ATOM     22  O   UNL     1      27.182  11.655  -3.059  0.00  0.00    -0.219 OA
BRANCH  21  23
ATOM     23  C   UNL     1      25.173  12.596  -2.244  0.00  0.00    +0.212 C 
ATOM     24  O   UNL     1      25.416  13.288  -1.009  0.00  0.00    -0.218 OA
BRANCH  23  25
ATOM     25  C   UNL     1      23.779  13.060  -2.816  0.00  0.00    +0.171 C 
ATOM     26  O   UNL     1      23.831  14.358  -3.399  0.00  0.00    -0.343 OA
ATOM     27  C   UNL     1      22.708  15.107  -3.757  0.00  0.00    +0.220 C 
ATOM     28  C   UNL     1      21.690  15.194  -2.607  0.00  0.00    +0.076 C 
ATOM     29  C   UNL     1      21.390  13.759  -2.145  0.00  0.00    +0.177 C 
ATOM     30  O   UNL     1      20.421  13.780  -1.106  0.00  0.00    -0.221 OA
ATOM     31  C   UNL     1      22.705  13.059  -1.679  0.00  0.00    +0.155 C 
BRANCH  31  32
ATOM     32  N   UNL     1      22.423  11.697  -1.233  0.00  0.00    -0.202 NA
ATOM     33  C   UNL     1      22.538  11.148   0.003  0.00  0.00    +0.242 C 
ATOM     34  C   UNL     1      21.903   9.805   0.252  0.00  0.00    +0.096 C 
ATOM     35  O   UNL     1      23.150  11.752   0.882  0.00  0.00    -0.273 OA
ENDBRANCH  31  32
BRANCH  27  36
ATOM     36  C   UNL     1      22.010  14.607  -5.136  0.00  0.00    +0.391 C 
ATOM     37  O   UNL     1      22.756  13.561  -5.544  0.00  0.00    -0.243 OA
ATOM     38  O   UNL     1      20.815  15.208  -5.185  0.00  0.00    -0.243 OA
ENDBRANCH  27  36
ENDBRANCH  23  25
ENDBRANCH  21  23
ENDBRANCH  20  21
ENDBRANCH   2  20
TORSDOF 11
