REMARK VINA RESULT:    -6.645      1.845      4.005
REMARK INTER + INTRA:         -12.417
REMARK INTER:                 -10.918
REMARK INTRA:                  -1.499
REMARK UNBOUND:                -1.499
REMARK  Name = lig_assembled_15.pdb
REMARK  11 active torsions:
REMARK  status: ('A' for Active; 'I' for Inactive)
REMARK    1  A    between atoms: _2  and  _8
REMARK    2  A    between atoms: _5  and  _6
REMARK    3  A    between atoms: _5  and  _13
REMARK    4  A    between atoms: _13  and  _15
REMARK    5  A    between atoms: _14  and  _19
REMARK    6  A    between atoms: _15  and  _18
REMARK    7  A    between atoms: _23  and  _33
REMARK    8  A    between atoms: _25  and  _26
REMARK    9  A    between atoms: _27  and  _29
REMARK   10  A    between atoms: _29  and  _31
REMARK   11  A    between atoms: _31  and  _33
REMARK                            x       y       z     vdW  Elec       q    Type
REMARK                         _______ _______ _______ _____ _____    ______ ____
ROOT
ATOM      1  C   UNL     1      27.390  14.375  -1.938  0.00  0.00    +0.400 C 
ATOM      2  N   UNL     1      28.225  15.095  -1.118  0.00  0.00    -0.278 N 
ATOM      3  H   UNL     1      28.920  14.363  -0.767  0.00  0.00    +0.152 HD
ATOM      4  O   UNL     1      27.703  13.219  -2.213  0.00  0.00    -0.226 OA
ENDROOT
BRANCH   1   5
ATOM      5  O   UNL     1      26.319  14.987  -2.324  0.00  0.00    -0.450 OA
BRANCH   5   6
ATOM      6  C   UNL     1      25.186  14.754  -3.128  0.00  0.00    +0.240 C 
BRANCH   6   7
ATOM      7  C   UNL     1      23.841  15.331  -2.645  0.00  0.00    +0.100 C 
BRANCH   7   9
ATOM      8  N   UNL     1      21.753  14.394  -1.706  0.00  0.00    -0.134 NA
ATOM      9  C   UNL     1      23.109  14.328  -1.850  0.00  0.00    +0.086 A 
ATOM     10  C   UNL     1      23.580  13.228  -1.170  0.00  0.00    +0.139 A 
ATOM     11  N   UNL     1      22.460  12.628  -0.643  0.00  0.00    -0.220 N 
ATOM     12  N   UNL     1      21.367  13.363  -0.967  0.00  0.00    -0.061 NA
BRANCH  11  13
ATOM     13  C   UNL     1      22.364  11.423   0.101  0.00  0.00    +0.067 A 
ATOM     14  C   UNL     1      22.363  10.178  -0.543  0.00  0.00    +0.029 A 
ATOM     15  C   UNL     1      22.228   9.003   0.202  0.00  0.00    +0.017 A 
ATOM     16  C   UNL     1      22.096   9.069   1.588  0.00  0.00    +0.018 A 
ATOM     17 BR   UNL     1      21.885   7.479   2.587  0.00  0.00    -0.050 Br
ATOM     18  C   UNL     1      22.111  10.300   2.240  0.00  0.00    +0.017 A 
ATOM     19  C   UNL     1      22.247  11.477   1.500  0.00  0.00    +0.029 A 
ENDBRANCH  11  13
ENDBRANCH   7   9
ENDBRANCH   6   7
ENDBRANCH   5   6
ENDBRANCH   1   5
BRANCH   2  20
ATOM     20  C   UNL     1      28.589  16.385  -0.536  0.00  0.00    +0.152 C 
BRANCH  20  21
ATOM     21  C   UNL     1      30.084  16.587  -0.213  0.00  0.00    +0.193 C 
ATOM     22  O   UNL     1      30.183  17.813   0.545  0.00  0.00    -0.219 OA
BRANCH  21  23
ATOM     23  C   UNL     1      30.774  15.528   0.675  0.00  0.00    +0.212 C 
ATOM     24  O   UNL     1      29.793  14.720   1.346  0.00  0.00    -0.218 OA
BRANCH  23  25
ATOM     25  C   UNL     1      31.745  14.579  -0.125  0.00  0.00    +0.171 C 
ATOM     26  O   UNL     1      31.114  13.967  -1.245  0.00  0.00    -0.343 OA
ATOM     27  C   UNL     1      31.659  12.908  -1.976  0.00  0.00    +0.220 C 
ATOM     28  C   UNL     1      32.117  11.759  -1.060  0.00  0.00    +0.076 C 
ATOM     29  C   UNL     1      33.050  12.360   0.004  0.00  0.00    +0.177 C 
ATOM     30  O   UNL     1      33.536  11.331   0.855  0.00  0.00    -0.221 OA
ATOM     31  C   UNL     1      32.301  13.461   0.816  0.00  0.00    +0.155 C 
BRANCH  31  32
ATOM     32  N   UNL     1      33.183  14.029   1.833  0.00  0.00    -0.202 NA
ATOM     33  C   UNL     1      33.136  13.914   3.185  0.00  0.00    +0.242 C 
ATOM     34  C   UNL     1      34.336  14.355   3.982  0.00  0.00    +0.096 C 
ATOM     35  O   UNL     1      32.129  13.455   3.721  0.00  0.00    -0.273 OA
ENDBRANCH  31  32
BRANCH  27  36
ATOM     36  C   UNL     1      32.838  13.365  -2.995  0.00  0.00    +0.391 C 
ATOM     37  O   UNL     1      33.186  14.602  -2.592  0.00  0.00    -0.243 OA
ATOM     38  O   UNL     1      33.220  12.256  -3.640  0.00  0.00    -0.243 OA
ENDBRANCH  27  36
ENDBRANCH  23  25
ENDBRANCH  21  23
ENDBRANCH  20  21
ENDBRANCH   2  20
TORSDOF 11
