REMARK VINA RESULT:    -6.894      2.529      6.275
REMARK INTER + INTRA:         -13.921
REMARK INTER:                 -11.058
REMARK INTRA:                  -2.863
REMARK UNBOUND:                -1.585
REMARK  Name = lig_assembled_16.pdb
REMARK  14 active torsions:
REMARK  status: ('A' for Active; 'I' for Inactive)
REMARK    1  A    between atoms: _2  and  _8
REMARK    2  A    between atoms: _5  and  _6
REMARK    3  A    between atoms: _5  and  _17
REMARK    4  A    between atoms: _8  and  _9
REMARK    5  A    between atoms: _12  and  _13
REMARK    6  A    between atoms: _13  and  _15
REMARK    7  A    between atoms: _17  and  _19
REMARK    8  A    between atoms: _18  and  _23
REMARK    9  A    between atoms: _19  and  _22
REMARK   10  A    between atoms: _27  and  _37
REMARK   11  A    between atoms: _29  and  _30
REMARK   12  A    between atoms: _31  and  _33
REMARK   13  A    between atoms: _33  and  _35
REMARK   14  A    between atoms: _35  and  _37
REMARK                            x       y       z     vdW  Elec       q    Type
REMARK                         _______ _______ _______ _____ _____    ______ ____
ROOT
ATOM      1  C   UNL     1      24.143  11.270  -0.039  0.00  0.00    +0.400 C 
ATOM      2  N   UNL     1      25.196  11.112   0.831  0.00  0.00    -0.278 N 
ATOM      3  H   UNL     1      24.936  11.745   1.652  0.00  0.00    +0.152 HD
ATOM      4  O   UNL     1      23.153  11.882   0.355  0.00  0.00    -0.226 OA
ENDROOT
BRANCH   2   5
ATOM      5  C   UNL     1      26.473  10.472   1.135  0.00  0.00    +0.152 C 
BRANCH   5   6
ATOM      6  C   UNL     1      27.669  10.888   0.254  0.00  0.00    +0.193 C 
ATOM      7  O   UNL     1      27.387  10.414  -1.081  0.00  0.00    -0.219 OA
BRANCH   6   8
ATOM      8  C   UNL     1      27.936  12.399   0.078  0.00  0.00    +0.212 C 
ATOM      9  O   UNL     1      27.030  13.166   0.888  0.00  0.00    -0.218 OA
BRANCH   8  10
ATOM     10  C   UNL     1      29.412  12.818   0.438  0.00  0.00    +0.171 C 
ATOM     11  O   UNL     1      29.465  13.942   1.311  0.00  0.00    -0.343 OA
ATOM     12  C   UNL     1      30.625  14.667   1.594  0.00  0.00    +0.220 C 
ATOM     13  C   UNL     1      31.362  15.087   0.310  0.00  0.00    +0.076 C 
ATOM     14  C   UNL     1      31.580  13.819  -0.533  0.00  0.00    +0.177 C 
ATOM     15  O   UNL     1      32.295  14.146  -1.717  0.00  0.00    -0.221 OA
ATOM     16  C   UNL     1      30.209  13.152  -0.865  0.00  0.00    +0.155 C 
BRANCH  16  17
ATOM     17  N   UNL     1      30.411  11.952  -1.672  0.00  0.00    -0.202 NA
ATOM     18  C   UNL     1      30.033  11.692  -2.950  0.00  0.00    +0.242 C 
ATOM     19  C   UNL     1      30.625  10.490  -3.640  0.00  0.00    +0.096 C 
ATOM     20  O   UNL     1      29.229  12.434  -3.509  0.00  0.00    -0.273 OA
ENDBRANCH  16  17
BRANCH  12  21
ATOM     21  C   UNL     1      31.620  13.916   2.635  0.00  0.00    +0.391 C 
ATOM     22  O   UNL     1      32.732  14.675   2.663  0.00  0.00    -0.243 OA
ATOM     23  O   UNL     1      30.867  13.021   3.286  0.00  0.00    -0.243 OA
ENDBRANCH  12  21
ENDBRANCH   8  10
ENDBRANCH   6   8
ENDBRANCH   5   6
ENDBRANCH   2   5
BRANCH   1  24
ATOM     24  O   UNL     1      24.314  10.776  -1.221  0.00  0.00    -0.450 OA
BRANCH  24  25
ATOM     25  C   UNL     1      23.609  10.013  -2.172  0.00  0.00    +0.240 C 
BRANCH  25  26
ATOM     26  C   UNL     1      23.029  10.756  -3.391  0.00  0.00    +0.100 C 
BRANCH  26  28
ATOM     27  N   UNL     1      25.141  11.329  -4.553  0.00  0.00    -0.134 NA
ATOM     28  C   UNL     1      24.004  11.735  -3.903  0.00  0.00    +0.086 A 
ATOM     29  C   UNL     1      23.973  13.111  -3.869  0.00  0.00    +0.134 A 
ATOM     30  N   UNL     1      25.065  13.479  -4.595  0.00  0.00    -0.247 N 
ATOM     31  N   UNL     1      25.795  12.408  -4.960  0.00  0.00    -0.065 NA
BRANCH  30  32
ATOM     32  C   UNL     1      25.460  14.813  -4.998  0.00  0.00    +0.180 C 
BRANCH  32  33
ATOM     33  C   UNL     1      26.154  15.545  -3.872  0.00  0.00    -0.026 A 
ATOM     34  C   UNL     1      26.830  14.838  -2.869  0.00  0.00    +0.006 A 
ATOM     35  C   UNL     1      27.502  15.522  -1.851  0.00  0.00    +0.015 A 
ATOM     36  C   UNL     1      27.496  16.918  -1.815  0.00  0.00    +0.059 A 
ATOM     37  C   UNL     1      26.805  17.637  -2.802  0.00  0.00    +0.015 A 
ATOM     38  C   UNL     1      26.129  16.949  -3.815  0.00  0.00    +0.006 A 
BRANCH  36  39
ATOM     39  C   UNL     1      28.289  17.595  -0.753  0.00  0.00    +0.337 C 
ATOM     40  O   UNL     1      29.494  17.754  -0.836  0.00  0.00    -0.245 OA
BRANCH  39  41
ATOM     41  O   UNL     1      27.564  17.981   0.314  0.00  0.00    -0.477 OA
ATOM     42  H   UNL     1      26.604  17.827   0.243  0.00  0.00    +0.295 HD
ENDBRANCH  39  41
ENDBRANCH  36  39
ENDBRANCH  32  33
ENDBRANCH  30  32
ENDBRANCH  26  28
ENDBRANCH  25  26
ENDBRANCH  24  25
ENDBRANCH   1  24
TORSDOF 14
