REMARK VINA RESULT:    -6.790      1.702      3.237
REMARK INTER + INTRA:         -13.409
REMARK INTER:                 -11.929
REMARK INTRA:                  -1.480
REMARK UNBOUND:                -1.658
REMARK  Name = lig_assembled_60.pdb
REMARK  13 active torsions:
REMARK  status: ('A' for Active; 'I' for Inactive)
REMARK    1  A    between atoms: _2  and  _9
REMARK    2  A    between atoms: _3  and  _44
REMARK    3  A    between atoms: _6  and  _7
REMARK    4  A    between atoms: _6  and  _16
REMARK    5  A    between atoms: _12  and  _44
REMARK    6  A    between atoms: _16  and  _18
REMARK    7  A    between atoms: _17  and  _22
REMARK    8  A    between atoms: _18  and  _21
REMARK    9  A    between atoms: _26  and  _36
REMARK   10  A    between atoms: _28  and  _29
REMARK   11  A    between atoms: _30  and  _32
REMARK   12  A    between atoms: _32  and  _34
REMARK   13  A    between atoms: _34  and  _36
REMARK                            x       y       z     vdW  Elec       q    Type
REMARK                         _______ _______ _______ _____ _____    ______ ____
ROOT
ATOM      1  C   UNL     1      28.016  17.499  -0.900  0.00  0.00    +0.400 C 
ATOM      2  N   UNL     1      28.959  16.793  -0.191  0.00  0.00    -0.278 N 
ATOM      3  H   UNL     1      29.108  17.390   0.683  0.00  0.00    +0.152 HD
ATOM      4  O   UNL     1      27.469  18.451  -0.349  0.00  0.00    -0.226 OA
ENDROOT
BRANCH   2   5
ATOM      5  C   UNL     1      29.817  15.615  -0.091  0.00  0.00    +0.152 C 
BRANCH   5   6
ATOM      6  C   UNL     1      29.097  14.252  -0.053  0.00  0.00    +0.193 C 
ATOM      7  O   UNL     1      28.794  13.903  -1.422  0.00  0.00    -0.219 OA
BRANCH   6   8
ATOM      8  C   UNL     1      29.889  13.040   0.487  0.00  0.00    +0.212 C 
ATOM      9  O   UNL     1      29.548  11.851  -0.244  0.00  0.00    -0.218 OA
BRANCH   8  10
ATOM     10  C   UNL     1      31.451  13.238   0.427  0.00  0.00    +0.171 C 
ATOM     11  O   UNL     1      31.978  13.049  -0.882  0.00  0.00    -0.343 OA
ATOM     12  C   UNL     1      33.338  12.925  -1.174  0.00  0.00    +0.220 C 
ATOM     13  C   UNL     1      34.019  11.872  -0.282  0.00  0.00    +0.076 C 
ATOM     14  C   UNL     1      33.701  12.229   1.179  0.00  0.00    +0.177 C 
ATOM     15  O   UNL     1      34.342  11.308   2.050  0.00  0.00    -0.221 OA
ATOM     16  C   UNL     1      32.157  12.243   1.405  0.00  0.00    +0.155 C 
BRANCH  16  17
ATOM     17  N   UNL     1      31.851  12.575   2.794  0.00  0.00    -0.202 NA
ATOM     18  C   UNL     1      31.192  11.851   3.735  0.00  0.00    +0.242 C 
ATOM     19  C   UNL     1      31.272  12.301   5.170  0.00  0.00    +0.096 C 
ATOM     20  O   UNL     1      30.553  10.855   3.398  0.00  0.00    -0.273 OA
ENDBRANCH  16  17
BRANCH  12  21
ATOM     21  C   UNL     1      34.138  14.338  -1.147  0.00  0.00    +0.391 C 
ATOM     22  O   UNL     1      33.186  15.279  -1.305  0.00  0.00    -0.243 OA
ATOM     23  O   UNL     1      35.363  14.061  -0.685  0.00  0.00    -0.243 OA
ENDBRANCH  12  21
ENDBRANCH   8  10
ENDBRANCH   6   8
ENDBRANCH   5   6
ENDBRANCH   2   5
BRANCH   1  24
ATOM     24  O   UNL     1      27.815  17.101  -2.114  0.00  0.00    -0.450 OA
BRANCH  24  25
ATOM     25  C   UNL     1      26.979  17.394  -3.209  0.00  0.00    +0.240 C 
BRANCH  25  26
ATOM     26  C   UNL     1      26.385  16.204  -3.987  0.00  0.00    +0.100 C 
BRANCH  26  28
ATOM     27  N   UNL     1      24.096  15.804  -3.131  0.00  0.00    -0.134 NA
ATOM     28  C   UNL     1      25.420  15.472  -3.145  0.00  0.00    +0.086 A 
ATOM     29  C   UNL     1      25.627  14.409  -2.298  0.00  0.00    +0.139 A 
ATOM     30  N   UNL     1      24.379  14.095  -1.811  0.00  0.00    -0.220 N 
ATOM     31  N   UNL     1      23.471  14.970  -2.310  0.00  0.00    -0.061 NA
BRANCH  30  32
ATOM     32  C   UNL     1      24.005  13.024  -0.958  0.00  0.00    +0.067 A 
ATOM     33  C   UNL     1      22.651  12.712  -0.754  0.00  0.00    +0.030 A 
ATOM     34  C   UNL     1      22.293  11.701   0.140  0.00  0.00    +0.030 A 
ATOM     35  C   UNL     1      23.285  10.993   0.822  0.00  0.00    +0.105 A 
ATOM     36  C   UNL     1      24.638  11.283   0.615  0.00  0.00    +0.030 A 
ATOM     37  C   UNL     1      24.996  12.295  -0.281  0.00  0.00    +0.030 A 
BRANCH  35  38
ATOM     38  S   UNL     1      22.816   9.770   2.010  0.00  0.00    +0.056 S 
ATOM     39  O   UNL     1      24.002   9.178   2.580  0.00  0.00    -0.153 OA
ATOM     40  O   UNL     1      21.740  10.291   2.823  0.00  0.00    -0.153 OA
BRANCH  38  41
ATOM     41  N   UNL     1      22.130   8.591   1.034  0.00  0.00    -0.204 NA
ATOM     42  H   UNL     1      22.423   8.729   0.067  0.00  0.00    +0.144 HD
ATOM     43  H   UNL     1      21.117   8.586   1.161  0.00  0.00    +0.144 HD
ENDBRANCH  38  41
ENDBRANCH  35  38
ENDBRANCH  30  32
ENDBRANCH  26  28
ENDBRANCH  25  26
ENDBRANCH  24  25
ENDBRANCH   1  24
TORSDOF 13
