REMARK VINA RESULT:    -7.420      1.897      3.935
REMARK INTER + INTRA:         -13.826
REMARK INTER:                 -12.025
REMARK INTRA:                  -1.802
REMARK UNBOUND:                -1.202
REMARK  Name = lig_assembled_38.pdb
REMARK  12 active torsions:
REMARK  status: ('A' for Active; 'I' for Inactive)
REMARK    1  A    between atoms: _2  and  _8
REMARK    2  A    between atoms: _5  and  _6
REMARK    3  A    between atoms: _5  and  _14
REMARK    4  A    between atoms: _8  and  _9
REMARK    5  A    between atoms: _14  and  _16
REMARK    6  A    between atoms: _15  and  _20
REMARK    7  A    between atoms: _16  and  _19
REMARK    8  A    between atoms: _24  and  _34
REMARK    9  A    between atoms: _26  and  _27
REMARK   10  A    between atoms: _28  and  _30
REMARK   11  A    between atoms: _30  and  _32
REMARK   12  A    between atoms: _32  and  _34
REMARK                            x       y       z     vdW  Elec       q    Type
REMARK                         _______ _______ _______ _____ _____    ______ ____
ROOT
ATOM      1  C   UNL     1      27.588  14.124  -1.941  0.00  0.00    +0.400 C 
ATOM      2  N   UNL     1      28.434  14.919  -1.204  0.00  0.00    -0.278 N 
ATOM      3  H   UNL     1      29.296  14.302  -1.067  0.00  0.00    +0.152 HD
ATOM      4  O   UNL     1      28.031  13.072  -2.396  0.00  0.00    -0.226 OA
ENDROOT
BRANCH   2   5
ATOM      5  C   UNL     1      28.683  16.202  -0.553  0.00  0.00    +0.152 C 
BRANCH   5   6
ATOM      6  C   UNL     1      30.148  16.496  -0.169  0.00  0.00    +0.193 C 
ATOM      7  O   UNL     1      30.143  17.744   0.559  0.00  0.00    -0.219 OA
BRANCH   6   8
ATOM      8  C   UNL     1      30.853  15.500   0.778  0.00  0.00    +0.212 C 
ATOM      9  O   UNL     1      29.886  14.672   1.445  0.00  0.00    -0.218 OA
BRANCH   8  10
ATOM     10  C   UNL     1      31.893  14.570   0.044  0.00  0.00    +0.171 C 
ATOM     11  O   UNL     1      31.363  13.985  -1.141  0.00  0.00    -0.343 OA
ATOM     12  C   UNL     1      31.971  12.944  -1.846  0.00  0.00    +0.220 C 
ATOM     13  C   UNL     1      32.348  11.773  -0.921  0.00  0.00    +0.076 C 
ATOM     14  C   UNL     1      33.184  12.347   0.235  0.00  0.00    +0.177 C 
ATOM     15  O   UNL     1      33.593  11.298   1.101  0.00  0.00    -0.221 OA
ATOM     16  C   UNL     1      32.365  13.430   1.004  0.00  0.00    +0.155 C 
BRANCH  16  17
ATOM     17  N   UNL     1      33.152  13.973   2.108  0.00  0.00    -0.202 NA
ATOM     18  C   UNL     1      33.023  13.777   3.445  0.00  0.00    +0.242 C 
ATOM     19  C   UNL     1      34.148  14.219   4.345  0.00  0.00    +0.096 C 
ATOM     20  O   UNL     1      32.004  13.249   3.886  0.00  0.00    -0.273 OA
ENDBRANCH  16  17
BRANCH  12  21
ATOM     21  C   UNL     1      33.235  13.424  -2.747  0.00  0.00    +0.391 C 
ATOM     22  O   UNL     1      33.608  12.328  -3.435  0.00  0.00    -0.243 OA
ATOM     23  O   UNL     1      33.237  14.762  -2.697  0.00  0.00    -0.243 OA
ENDBRANCH  12  21
ENDBRANCH   8  10
ENDBRANCH   6   8
ENDBRANCH   5   6
ENDBRANCH   2   5
BRANCH   1  24
ATOM     24  O   UNL     1      26.376  14.555  -2.059  0.00  0.00    -0.450 OA
BRANCH  24  25
ATOM     25  C   UNL     1      25.659  15.550  -2.752  0.00  0.00    +0.240 C 
BRANCH  25  26
ATOM     26  C   UNL     1      24.604  15.084  -3.774  0.00  0.00    +0.100 C 
BRANCH  26  28
ATOM     27  N   UNL     1      22.142  15.356  -3.759  0.00  0.00    -0.134 NA
ATOM     28  C   UNL     1      23.284  14.946  -3.125  0.00  0.00    +0.086 A 
ATOM     29  C   UNL     1      22.953  14.404  -1.904  0.00  0.00    +0.134 A 
ATOM     30  N   UNL     1      21.589  14.461  -1.877  0.00  0.00    -0.247 N 
ATOM     31  N   UNL     1      21.108  15.047  -2.989  0.00  0.00    -0.065 NA
BRANCH  30  32
ATOM     32  C   UNL     1      20.692  13.781  -0.960  0.00  0.00    +0.180 C 
BRANCH  32  33
ATOM     33  C   UNL     1      21.079  12.348  -0.692  0.00  0.00    -0.025 A 
ATOM     34  C   UNL     1      21.145  11.411  -1.734  0.00  0.00    +0.005 A 
ATOM     35  C   UNL     1      21.591  10.108  -1.493  0.00  0.00    +0.001 A 
ATOM     36  C   UNL     1      21.976   9.726  -0.210  0.00  0.00    +0.015 A 
ATOM     37  C   UNL     1      21.903  10.646   0.833  0.00  0.00    +0.018 A 
ATOM     38 BR   UNL     1      22.434  10.135   2.575  0.00  0.00    -0.050 Br
ATOM     39  C   UNL     1      21.460  11.949   0.601  0.00  0.00    +0.020 A 
ENDBRANCH  32  33
ENDBRANCH  30  32
ENDBRANCH  26  28
ENDBRANCH  25  26
ENDBRANCH  24  25
ENDBRANCH   1  24
TORSDOF 12
