REMARK VINA RESULT:    -6.261      1.392      1.980
REMARK INTER + INTRA:         -13.559
REMARK INTER:                 -12.200
REMARK INTRA:                  -1.358
REMARK UNBOUND:                -1.808
REMARK  Name = lig_assembled_43.pdb
REMARK  15 active torsions:
REMARK  status: ('A' for Active; 'I' for Inactive)
REMARK    1  A    between atoms: _2  and  _8
REMARK    2  A    between atoms: _5  and  _6
REMARK    3  A    between atoms: _5  and  _13
REMARK    4  A    between atoms: _8  and  _9
REMARK    5  A    between atoms: _9  and  _10
REMARK    6  A    between atoms: _10  and  _11
REMARK    7  A    between atoms: _11  and  _12
REMARK    8  A    between atoms: _13  and  _15
REMARK    9  A    between atoms: _14  and  _19
REMARK   10  A    between atoms: _15  and  _18
REMARK   11  A    between atoms: _23  and  _33
REMARK   12  A    between atoms: _25  and  _26
REMARK   13  A    between atoms: _27  and  _29
REMARK   14  A    between atoms: _29  and  _31
REMARK   15  A    between atoms: _31  and  _33
REMARK                            x       y       z     vdW  Elec       q    Type
REMARK                         _______ _______ _______ _____ _____    ______ ____
ROOT
ATOM      1  C   UNL     1      28.310  14.634  -0.803  0.00  0.00    +0.152 C 
ENDROOT
BRANCH   1   3
ATOM      2  C   UNL     1      27.657  17.212  -1.413  0.00  0.00    +0.400 C 
ATOM      3  N   UNL     1      28.103  16.079  -0.773  0.00  0.00    -0.278 N 
ATOM      4  H   UNL     1      28.434  16.445   0.175  0.00  0.00    +0.152 HD
ATOM      5  O   UNL     1      27.564  18.248  -0.759  0.00  0.00    -0.226 OA
BRANCH   2   6
ATOM      6  O   UNL     1      27.402  17.080  -2.673  0.00  0.00    -0.450 OA
BRANCH   6   7
ATOM      7  C   UNL     1      26.321  17.220  -3.565  0.00  0.00    +0.240 C 
BRANCH   7   8
ATOM      8  C   UNL     1      25.788  15.943  -4.242  0.00  0.00    +0.100 C 
BRANCH   8  10
ATOM      9  N   UNL     1      24.875  14.724  -2.290  0.00  0.00    -0.134 NA
ATOM     10  C   UNL     1      24.661  15.387  -3.471  0.00  0.00    +0.086 A 
ATOM     11  C   UNL     1      23.311  15.405  -3.738  0.00  0.00    +0.133 A 
ATOM     12  N   UNL     1      22.761  14.732  -2.689  0.00  0.00    -0.251 N 
ATOM     13  N   UNL     1      23.700  14.325  -1.820  0.00  0.00    -0.065 NA
BRANCH  12  14
ATOM     14  C   UNL     1      21.366  14.415  -2.466  0.00  0.00    +0.145 C 
BRANCH  14  15
ATOM     15  C   UNL     1      21.140  13.850  -1.067  0.00  0.00    +0.024 C 
BRANCH  15  16
ATOM     16  C   UNL     1      20.927  12.335  -1.086  0.00  0.00    +0.006 C 
BRANCH  16  17
ATOM     17  C   UNL     1      21.933  11.641  -0.164  0.00  0.00    +0.026 C 
BRANCH  17  18
ATOM     18  C   UNL     1      21.557  11.778   1.282  0.00  0.00    -0.034 C 
ATOM     19  C   UNL     1      21.931  10.913   2.235  0.00  0.00    +0.004 C 
ENDBRANCH  17  18
ENDBRANCH  16  17
ENDBRANCH  15  16
ENDBRANCH  14  15
ENDBRANCH  12  14
ENDBRANCH   8  10
ENDBRANCH   7   8
ENDBRANCH   6   7
ENDBRANCH   2   6
ENDBRANCH   1   3
BRANCH   1  20
ATOM     20  C   UNL     1      28.957  14.014   0.453  0.00  0.00    +0.193 C 
ATOM     21  O   UNL     1      27.935  13.981   1.473  0.00  0.00    -0.219 OA
BRANCH  20  22
ATOM     22  C   UNL     1      29.453  12.554   0.355  0.00  0.00    +0.212 C 
ATOM     23  O   UNL     1      29.898  12.264  -0.979  0.00  0.00    -0.218 OA
BRANCH  22  24
ATOM     24  C   UNL     1      30.621  12.223   1.360  0.00  0.00    +0.171 C 
ATOM     25  O   UNL     1      30.151  11.940   2.674  0.00  0.00    -0.343 OA
ATOM     26  C   UNL     1      30.968  11.855   3.803  0.00  0.00    +0.220 C 
ATOM     27  C   UNL     1      31.890  13.080   3.933  0.00  0.00    +0.076 C 
ATOM     28  C   UNL     1      32.641  13.238   2.601  0.00  0.00    +0.177 C 
ATOM     29  O   UNL     1      33.538  14.336   2.681  0.00  0.00    -0.221 OA
ATOM     30  C   UNL     1      31.625  13.421   1.430  0.00  0.00    +0.155 C 
BRANCH  30  31
ATOM     31  N   UNL     1      32.335  13.578   0.163  0.00  0.00    -0.202 NA
ATOM     32  C   UNL     1      32.469  14.675  -0.626  0.00  0.00    +0.242 C 
ATOM     33  C   UNL     1      33.497  14.642  -1.726  0.00  0.00    +0.096 C 
ATOM     34  O   UNL     1      31.759  15.658  -0.426  0.00  0.00    -0.273 OA
ENDBRANCH  30  31
BRANCH  26  35
ATOM     35  C   UNL     1      31.806  10.466   3.892  0.00  0.00    +0.391 C 
ATOM     36  O   UNL     1      32.771  10.700   4.803  0.00  0.00    -0.243 OA
ATOM     37  O   UNL     1      31.059   9.543   3.274  0.00  0.00    -0.243 OA
ENDBRANCH  26  35
ENDBRANCH  22  24
ENDBRANCH  20  22
ENDBRANCH   1  20
TORSDOF 15
