REMARK VINA RESULT:    -7.003      1.482      2.040
REMARK INTER + INTRA:         -13.675
REMARK INTER:                 -12.196
REMARK INTRA:                  -1.479
REMARK UNBOUND:                -2.168
REMARK  Name = lig_assembled_86.pdb
REMARK  12 active torsions:
REMARK  status: ('A' for Active; 'I' for Inactive)
REMARK    1  A    between atoms: _2  and  _9
REMARK    2  A    between atoms: _3  and  _12
REMARK    3  A    between atoms: _6  and  _7
REMARK    4  A    between atoms: _6  and  _16
REMARK    5  A    between atoms: _16  and  _18
REMARK    6  A    between atoms: _17  and  _22
REMARK    7  A    between atoms: _18  and  _21
REMARK    8  A    between atoms: _26  and  _36
REMARK    9  A    between atoms: _28  and  _29
REMARK   10  A    between atoms: _30  and  _32
REMARK   11  A    between atoms: _32  and  _34
REMARK   12  A    between atoms: _34  and  _36
REMARK                            x       y       z     vdW  Elec       q    Type
REMARK                         _______ _______ _______ _____ _____    ______ ____
ROOT
ATOM      1  C   UNL     1      28.922  17.024  -0.459  0.00  0.00    +0.400 C 
ATOM      2  N   UNL     1      29.376  15.941   0.256  0.00  0.00    -0.278 N 
ATOM      3  H   UNL     1      30.080  16.370   0.936  0.00  0.00    +0.152 HD
ATOM      4  O   UNL     1      29.241  18.146  -0.074  0.00  0.00    -0.226 OA
ENDROOT
BRANCH   1   5
ATOM      5  O   UNL     1      28.214  16.748  -1.505  0.00  0.00    -0.450 OA
BRANCH   5   6
ATOM      6  C   UNL     1      27.115  17.265  -2.217  0.00  0.00    +0.240 C 
BRANCH   6   7
ATOM      7  C   UNL     1      27.092  17.052  -3.743  0.00  0.00    +0.100 C 
BRANCH   7   9
ATOM      8  N   UNL     1      25.926  15.556  -5.341  0.00  0.00    -0.134 NA
ATOM      9  C   UNL     1      25.968  16.174  -4.118  0.00  0.00    +0.086 A 
ATOM     10  C   UNL     1      24.853  15.815  -3.398  0.00  0.00    +0.134 A 
ATOM     11  N   UNL     1      24.193  14.952  -4.219  0.00  0.00    -0.248 N 
ATOM     12  N   UNL     1      24.823  14.821  -5.399  0.00  0.00    -0.065 NA
BRANCH  11  13
ATOM     13  C   UNL     1      22.969  14.220  -3.929  0.00  0.00    +0.112 C 
ATOM     14  C   UNL     1      22.256  14.764  -2.674  0.00  0.00    +0.045 C 
ATOM     15  C   UNL     1      20.748  14.970  -2.834  0.00  0.00    +0.059 C 
ATOM     16  C   UNL     1      20.445  16.235  -3.646  0.00  0.00    +0.020 C 
ATOM     17  C   UNL     1      20.295  15.742  -5.083  0.00  0.00    +0.020 C 
ATOM     18  C   UNL     1      20.603  14.245  -5.010  0.00  0.00    +0.059 C 
ATOM     19  N   UNL     1      20.121  13.940  -3.663  0.00  0.00    -0.299 NA
ATOM     20  C   UNL     1      20.267  12.567  -3.220  0.00  0.00    +0.105 C 
ATOM     21  C   UNL     1      22.103  13.975  -5.187  0.00  0.00    +0.045 C 
ENDBRANCH  11  13
ENDBRANCH   7   9
ENDBRANCH   6   7
ENDBRANCH   5   6
ENDBRANCH   1   5
BRANCH   2  22
ATOM     22  C   UNL     1      29.320  14.503   0.506  0.00  0.00    +0.152 C 
BRANCH  22  23
ATOM     23  C   UNL     1      30.214  13.621  -0.390  0.00  0.00    +0.193 C 
ATOM     24  O   UNL     1      29.785  13.842  -1.752  0.00  0.00    -0.219 OA
BRANCH  23  25
ATOM     25  C   UNL     1      31.728  13.926  -0.409  0.00  0.00    +0.212 C 
ATOM     26  O   UNL     1      31.954  15.338  -0.548  0.00  0.00    -0.218 OA
BRANCH  25  27
ATOM     27  C   UNL     1      32.484  13.419   0.878  0.00  0.00    +0.171 C 
ATOM     28  O   UNL     1      32.352  14.314   1.978  0.00  0.00    -0.343 OA
ATOM     29  C   UNL     1      33.108  14.238   3.151  0.00  0.00    +0.220 C 
ATOM     30  C   UNL     1      34.614  14.144   2.853  0.00  0.00    +0.076 C 
ATOM     31  C   UNL     1      34.820  12.977   1.873  0.00  0.00    +0.177 C 
ATOM     32  O   UNL     1      36.204  12.820   1.595  0.00  0.00    -0.221 OA
ATOM     33  C   UNL     1      34.003  13.221   0.567  0.00  0.00    +0.155 C 
BRANCH  33  34
ATOM     34  N   UNL     1      34.202  12.118  -0.369  0.00  0.00    -0.202 NA
ATOM     35  C   UNL     1      34.745  12.122  -1.613  0.00  0.00    +0.242 C 
ATOM     36  C   UNL     1      35.099  10.800  -2.243  0.00  0.00    +0.096 C 
ATOM     37  O   UNL     1      34.935  13.191  -2.190  0.00  0.00    -0.273 OA
ENDBRANCH  33  34
BRANCH  29  38
ATOM     38  C   UNL     1      32.623  13.059   4.158  0.00  0.00    +0.391 C 
ATOM     39  O   UNL     1      33.552  13.032   5.133  0.00  0.00    -0.243 OA
ATOM     40  O   UNL     1      31.361  12.775   3.815  0.00  0.00    -0.243 OA
ENDBRANCH  29  38
ENDBRANCH  25  27
ENDBRANCH  23  25
ENDBRANCH  22  23
ENDBRANCH   2  22
TORSDOF 11
