REMARK VINA RESULT:    -8.293      1.628      2.921
REMARK INTER + INTRA:         -15.393
REMARK INTER:                 -13.823
REMARK INTRA:                  -1.570
REMARK UNBOUND:                -1.768
REMARK  Name = lig_assembled_91.pdb
REMARK  11 active torsions:
REMARK  status: ('A' for Active; 'I' for Inactive)
REMARK    1  A    between atoms: _2  and  _9
REMARK    2  A    between atoms: _6  and  _7
REMARK    3  A    between atoms: _6  and  _21
REMARK    4  A    between atoms: _21  and  _23
REMARK    5  A    between atoms: _22  and  _27
REMARK    6  A    between atoms: _23  and  _26
REMARK    7  A    between atoms: _31  and  _41
REMARK    8  A    between atoms: _33  and  _34
REMARK    9  A    between atoms: _35  and  _37
REMARK   10  A    between atoms: _37  and  _39
REMARK   11  A    between atoms: _39  and  _41
REMARK                            x       y       z     vdW  Elec       q    Type
REMARK                         _______ _______ _______ _____ _____    ______ ____
ROOT
ATOM      1  C   UNL     1      28.093  17.103  -0.786  0.00  0.00    +0.400 C 
ATOM      2  N   UNL     1      28.479  15.933  -0.176  0.00  0.00    -0.278 N 
ATOM      3  H   UNL     1      28.794  16.252   0.795  0.00  0.00    +0.152 HD
ATOM      4  O   UNL     1      28.019  18.118  -0.098  0.00  0.00    -0.226 OA
ENDROOT
BRANCH   1   5
ATOM      5  O   UNL     1      27.872  17.025  -2.057  0.00  0.00    -0.450 OA
BRANCH   5   6
ATOM      6  C   UNL     1      26.899  17.414  -2.998  0.00  0.00    +0.240 C 
BRANCH   6   7
ATOM      7  C   UNL     1      26.678  16.494  -4.213  0.00  0.00    +0.100 C 
BRANCH   7   9
ATOM      8  N   UNL     1      25.274  14.553  -4.813  0.00  0.00    -0.134 NA
ATOM      9  C   UNL     1      25.517  15.611  -3.991  0.00  0.00    +0.086 A 
ATOM     10  C   UNL     1      24.551  15.644  -3.011  0.00  0.00    +0.139 A 
ATOM     11  N   UNL     1      23.695  14.600  -3.300  0.00  0.00    -0.219 N 
ATOM     12  N   UNL     1      24.176  13.946  -4.388  0.00  0.00    -0.060 NA
BRANCH  11  13
ATOM     13  C   UNL     1      22.491  14.199  -2.642  0.00  0.00    +0.085 A 
ATOM     14  C   UNL     1      22.545  13.300  -1.517  0.00  0.00    +0.026 A 
ATOM     15  C   UNL     1      21.300  12.950  -0.958  0.00  0.00    +0.074 A 
ATOM     16  C   UNL     1      21.224  12.091   0.127  0.00  0.00    +0.028 A 
ATOM     17  C   UNL     1      22.357  11.541   0.719  0.00  0.00    +0.002 A 
ATOM     18  C   UNL     1      23.600  11.883   0.228  0.00  0.00    +0.001 A 
ATOM     19  N   UNL     1      20.132  13.417  -1.395  0.00  0.00    -0.247 NA
ATOM     20  C   UNL     1      20.089  14.271  -2.417  0.00  0.00    +0.074 A 
ATOM     21  C   UNL     1      18.818  14.693  -2.792  0.00  0.00    +0.028 A 
ATOM     22  C   UNL     1      18.607  15.555  -3.864  0.00  0.00    +0.002 A 
ATOM     23  C   UNL     1      19.695  15.997  -4.590  0.00  0.00    +0.001 A 
ATOM     24  C   UNL     1      20.980  15.577  -4.229  0.00  0.00    +0.012 A 
ATOM     25  C   UNL     1      23.695  12.764  -0.856  0.00  0.00    +0.012 A 
ATOM     26  C   UNL     1      21.226  14.712  -3.114  0.00  0.00    +0.026 A 
ENDBRANCH  11  13
ENDBRANCH   7   9
ENDBRANCH   6   7
ENDBRANCH   5   6
ENDBRANCH   1   5
BRANCH   2  27
ATOM     27  C   UNL     1      28.634  14.483  -0.252  0.00  0.00    +0.152 C 
BRANCH  27  28
ATOM     28  C   UNL     1      30.022  13.969  -0.685  0.00  0.00    +0.193 C 
ATOM     29  O   UNL     1      30.946  15.065  -0.503  0.00  0.00    -0.219 OA
BRANCH  28  30
ATOM     30  C   UNL     1      30.640  12.807   0.123  0.00  0.00    +0.212 C 
ATOM     31  O   UNL     1      31.740  12.225  -0.594  0.00  0.00    -0.218 OA
BRANCH  30  32
ATOM     32  C   UNL     1      31.143  13.239   1.553  0.00  0.00    +0.171 C 
ATOM     33  O   UNL     1      32.555  13.128   1.694  0.00  0.00    -0.343 OA
ATOM     34  C   UNL     1      33.235  13.210   2.911  0.00  0.00    +0.220 C 
ATOM     35  C   UNL     1      32.624  12.275   3.970  0.00  0.00    +0.076 C 
ATOM     36  C   UNL     1      31.120  12.584   4.046  0.00  0.00    +0.177 C 
ATOM     37  O   UNL     1      30.512  11.772   5.042  0.00  0.00    -0.221 OA
ATOM     38  C   UNL     1      30.454  12.365   2.652  0.00  0.00    +0.155 C 
BRANCH  38  39
ATOM     39  N   UNL     1      29.024  12.650   2.722  0.00  0.00    -0.202 NA
ATOM     40  C   UNL     1      27.964  11.847   2.450  0.00  0.00    +0.242 C 
ATOM     41  C   UNL     1      26.594  12.297   2.887  0.00  0.00    +0.096 C 
ATOM     42  O   UNL     1      28.144  10.783   1.861  0.00  0.00    -0.273 OA
ENDBRANCH  38  39
BRANCH  34  43
ATOM     43  C   UNL     1      33.382  14.728   3.470  0.00  0.00    +0.391 C 
ATOM     44  O   UNL     1      32.382  15.413   2.882  0.00  0.00    -0.243 OA
ATOM     45  O   UNL     1      34.226  14.661   4.507  0.00  0.00    -0.243 OA
ENDBRANCH  34  43
ENDBRANCH  30  32
ENDBRANCH  28  30
ENDBRANCH  27  28
ENDBRANCH   2  27
TORSDOF 11
