REMARK VINA RESULT:    -6.310      2.514      3.964
REMARK INTER + INTRA:         -12.576
REMARK INTER:                 -10.748
REMARK INTRA:                  -1.829
REMARK UNBOUND:                -1.839
REMARK  Name = lig_assembled_61.pdb
REMARK  12 active torsions:
REMARK  status: ('A' for Active; 'I' for Inactive)
REMARK    1  A    between atoms: _2  and  _8
REMARK    2  A    between atoms: _5  and  _6
REMARK    3  A    between atoms: _5  and  _12
REMARK    4  A    between atoms: _8  and  _9
REMARK    5  A    between atoms: _12  and  _14
REMARK    6  A    between atoms: _13  and  _18
REMARK    7  A    between atoms: _14  and  _17
REMARK    8  A    between atoms: _22  and  _32
REMARK    9  A    between atoms: _24  and  _25
REMARK   10  A    between atoms: _26  and  _28
REMARK   11  A    between atoms: _28  and  _30
REMARK   12  A    between atoms: _30  and  _32
REMARK                            x       y       z     vdW  Elec       q    Type
REMARK                         _______ _______ _______ _____ _____    ______ ____
ROOT
ATOM      1  C   UNL     1      27.527  13.387  -0.276  0.00  0.00    +0.152 C 
ENDROOT
BRANCH   1   3
ATOM      2  C   UNL     1      27.084  15.358  -2.110  0.00  0.00    +0.400 C 
ATOM      3  N   UNL     1      27.514  14.647  -1.015  0.00  0.00    -0.278 N 
ATOM      4  H   UNL     1      28.086  15.363  -0.464  0.00  0.00    +0.152 HD
ATOM      5  O   UNL     1      27.266  16.573  -2.120  0.00  0.00    -0.226 OA
BRANCH   2   6
ATOM      6  O   UNL     1      26.547  14.659  -3.055  0.00  0.00    -0.450 OA
BRANCH   6   7
ATOM      7  C   UNL     1      25.273  14.387  -3.591  0.00  0.00    +0.240 C 
BRANCH   7   8
ATOM      8  C   UNL     1      24.194  15.478  -3.449  0.00  0.00    +0.100 C 
BRANCH   8  10
ATOM      9  N   UNL     1      21.777  14.953  -3.530  0.00  0.00    -0.134 NA
ATOM     10  C   UNL     1      22.968  14.916  -2.853  0.00  0.00    +0.086 A 
ATOM     11  C   UNL     1      22.775  14.303  -1.634  0.00  0.00    +0.134 A 
ATOM     12  N   UNL     1      21.436  14.046  -1.607  0.00  0.00    -0.247 N 
ATOM     13  N   UNL     1      20.847  14.399  -2.765  0.00  0.00    -0.065 NA
BRANCH  12  14
ATOM     14  C   UNL     1      20.659  13.436  -0.543  0.00  0.00    +0.180 C 
BRANCH  14  15
ATOM     15  C   UNL     1      21.243  12.118  -0.111  0.00  0.00    -0.019 A 
ATOM     16  C   UNL     1      21.528  11.024  -0.998  0.00  0.00    +0.013 A 
ATOM     17  C   UNL     1      22.021   9.918  -0.340  0.00  0.00    +0.045 A 
ATOM     18  S   UNL     1      22.161  10.183   1.341  0.00  0.00    -0.105 S 
ATOM     19  C   UNL     1      21.549  11.773   1.195  0.00  0.00    +0.050 A 
ENDBRANCH  14  15
ENDBRANCH  12  14
ENDBRANCH   8  10
ENDBRANCH   7   8
ENDBRANCH   6   7
ENDBRANCH   2   6
ENDBRANCH   1   3
BRANCH   1  20
ATOM     20  C   UNL     1      28.132  13.437   1.142  0.00  0.00    +0.193 C 
ATOM     21  O   UNL     1      27.368  12.516   1.952  0.00  0.00    -0.219 OA
BRANCH  20  22
ATOM     22  C   UNL     1      29.596  12.975   1.312  0.00  0.00    +0.212 C 
ATOM     23  O   UNL     1      29.648  11.709   1.988  0.00  0.00    -0.218 OA
BRANCH  22  24
ATOM     24  C   UNL     1      30.373  12.850  -0.054  0.00  0.00    +0.171 C 
ATOM     25  O   UNL     1      31.167  11.670  -0.126  0.00  0.00    -0.343 OA
ATOM     26  C   UNL     1      32.135  11.429  -1.105  0.00  0.00    +0.220 C 
ATOM     27  C   UNL     1      33.109  12.611  -1.247  0.00  0.00    +0.076 C 
ATOM     28  C   UNL     1      32.269  13.880  -1.465  0.00  0.00    +0.177 C 
ATOM     29  O   UNL     1      33.125  15.000  -1.642  0.00  0.00    -0.221 OA
ATOM     30  C   UNL     1      31.296  14.095  -0.264  0.00  0.00    +0.155 C 
BRANCH  30  31
ATOM     31  N   UNL     1      30.501  15.303  -0.464  0.00  0.00    -0.202 NA
ATOM     32  C   UNL     1      30.471  16.452   0.258  0.00  0.00    +0.242 C 
ATOM     33  C   UNL     1      29.780  17.652  -0.335  0.00  0.00    +0.096 C 
ATOM     34  O   UNL     1      31.003  16.487   1.366  0.00  0.00    -0.273 OA
ENDBRANCH  30  31
BRANCH  26  35
ATOM     35  C   UNL     1      31.509  10.996  -2.540  0.00  0.00    +0.391 C 
ATOM     36  O   UNL     1      32.517  11.153  -3.420  0.00  0.00    -0.243 OA
ATOM     37  O   UNL     1      30.355  10.374  -2.268  0.00  0.00    -0.243 OA
ENDBRANCH  26  35
ENDBRANCH  22  24
ENDBRANCH  20  22
ENDBRANCH   1  20
TORSDOF 12
