REMARK VINA RESULT:    -6.496      1.718      2.110
REMARK INTER + INTRA:         -12.837
REMARK INTER:                 -11.612
REMARK INTRA:                  -1.226
REMARK UNBOUND:                -2.544
REMARK  Name = lig_assembled_65.pdb
REMARK  11 active torsions:
REMARK  status: ('A' for Active; 'I' for Inactive)
REMARK    1  A    between atoms: _8  and  _14
REMARK    2  A    between atoms: _9  and  _10
REMARK    3  A    between atoms: _9  and  _15
REMARK    4  A    between atoms: _15  and  _17
REMARK    5  A    between atoms: _16  and  _21
REMARK    6  A    between atoms: _17  and  _20
REMARK    7  A    between atoms: _25  and  _35
REMARK    8  A    between atoms: _27  and  _28
REMARK    9  A    between atoms: _29  and  _31
REMARK   10  A    between atoms: _31  and  _33
REMARK   11  A    between atoms: _33  and  _35
REMARK                            x       y       z     vdW  Elec       q    Type
REMARK                         _______ _______ _______ _____ _____    ______ ____
ROOT
ATOM      1  C   UNL     1      28.910  17.002  -0.470  0.00  0.00    +0.400 C 
ATOM      2  N   UNL     1      29.283  15.896   0.258  0.00  0.00    -0.278 N 
ATOM      3  H   UNL     1      30.087  16.257   0.863  0.00  0.00    +0.152 HD
ATOM      4  O   UNL     1      29.395  18.088  -0.162  0.00  0.00    -0.226 OA
ENDROOT
BRANCH   1   5
ATOM      5  O   UNL     1      28.093  16.780  -1.446  0.00  0.00    -0.450 OA
BRANCH   5   6
ATOM      6  C   UNL     1      27.106  17.458  -2.188  0.00  0.00    +0.240 C 
BRANCH   6   7
ATOM      7  C   UNL     1      27.064  17.210  -3.708  0.00  0.00    +0.100 C 
BRANCH   7   9
ATOM      8  N   UNL     1      25.948  15.640  -5.264  0.00  0.00    -0.134 NA
ATOM      9  C   UNL     1      25.991  16.255  -4.044  0.00  0.00    +0.087 A 
ATOM     10  C   UNL     1      24.924  15.830  -3.290  0.00  0.00    +0.146 A 
ATOM     11  N   UNL     1      24.243  14.950  -4.102  0.00  0.00    -0.155 N 
ATOM     12  C   UNL     1      23.044  14.243  -3.792  0.00  0.00    +0.416 C 
ATOM     13  N   UNL     1      22.526  13.423  -4.715  0.00  0.00    +0.041 NA
ATOM     14  C   UNL     1      21.399  12.812  -4.358  0.00  0.00    +0.339 C 
ATOM     15  C   UNL     1      20.763  11.892  -5.353  0.00  0.00    +0.149 C 
ATOM     16  N   UNL     1      20.792  12.972  -3.182  0.00  0.00    +0.007 NA
ATOM     17  C   UNL     1      21.378  13.815  -2.346  0.00  0.00    +0.386 C 
ATOM     18  N   UNL     1      20.776  14.018  -1.123  0.00  0.00    -0.296 N 
ATOM     19  H   UNL     1      20.175  13.241  -0.886  0.00  0.00    +0.148 HD
ATOM     20  H   UNL     1      21.447  14.318  -0.429  0.00  0.00    +0.148 HD
ATOM     21  N   UNL     1      22.508  14.459  -2.583  0.00  0.00    -0.290 NA
ATOM     22  N   UNL     1      24.886  14.844  -5.294  0.00  0.00    -0.056 NA
ENDBRANCH   7   9
ENDBRANCH   6   7
ENDBRANCH   5   6
ENDBRANCH   1   5
BRANCH   2  23
ATOM     23  C   UNL     1      29.070  14.487   0.577  0.00  0.00    +0.152 C 
BRANCH  23  24
ATOM     24  C   UNL     1      30.335  13.660   0.884  0.00  0.00    +0.193 C 
ATOM     25  O   UNL     1      30.743  13.047  -0.359  0.00  0.00    -0.219 OA
BRANCH  24  26
ATOM     26  C   UNL     1      31.588  14.424   1.366  0.00  0.00    +0.212 C 
ATOM     27  O   UNL     1      31.210  15.546   2.179  0.00  0.00    -0.218 OA
BRANCH  26  28
ATOM     28  C   UNL     1      32.591  13.524   2.185  0.00  0.00    +0.171 C 
ATOM     29  O   UNL     1      32.685  13.912   3.552  0.00  0.00    -0.343 OA
ATOM     30  C   UNL     1      33.664  13.454   4.436  0.00  0.00    +0.220 C 
ATOM     31  C   UNL     1      35.078  13.605   3.849  0.00  0.00    +0.076 C 
ATOM     32  C   UNL     1      35.082  12.925   2.470  0.00  0.00    +0.177 C 
ATOM     33  O   UNL     1      36.381  13.002   1.899  0.00  0.00    -0.221 OA
ATOM     34  C   UNL     1      34.016  13.586   1.542  0.00  0.00    +0.155 C 
BRANCH  34  35
ATOM     35  N   UNL     1      34.021  12.948   0.229  0.00  0.00    -0.202 NA
ATOM     36  C   UNL     1      34.190  13.496  -1.002  0.00  0.00    +0.242 C 
ATOM     37  C   UNL     1      34.446  12.575  -2.166  0.00  0.00    +0.096 C 
ATOM     38  O   UNL     1      34.131  14.716  -1.136  0.00  0.00    -0.273 OA
ENDBRANCH  34  35
BRANCH  30  39
ATOM     39  C   UNL     1      33.397  11.943   4.969  0.00  0.00    +0.391 C 
ATOM     40  O   UNL     1      34.569  11.552   5.508  0.00  0.00    -0.243 OA
ATOM     41  O   UNL     1      32.070  11.772   4.949  0.00  0.00    -0.243 OA
ENDBRANCH  30  39
ENDBRANCH  26  28
ENDBRANCH  24  26
ENDBRANCH  23  24
ENDBRANCH   2  23
TORSDOF 10
