REMARK VINA RESULT:    -7.126      2.043      3.016
REMARK INTER + INTRA:         -14.007
REMARK INTER:                 -12.543
REMARK INTRA:                  -1.464
REMARK UNBOUND:                -1.466
REMARK  Name = lig_assembled_78.pdb
REMARK  13 active torsions:
REMARK  status: ('A' for Active; 'I' for Inactive)
REMARK    1  A    between atoms: _2  and  _8
REMARK    2  A    between atoms: _5  and  _6
REMARK    3  A    between atoms: _5  and  _16
REMARK    4  A    between atoms: _8  and  _44
REMARK    5  A    between atoms: _9  and  _44
REMARK    6  A    between atoms: _16  and  _18
REMARK    7  A    between atoms: _17  and  _22
REMARK    8  A    between atoms: _18  and  _21
REMARK    9  A    between atoms: _26  and  _36
REMARK   10  A    between atoms: _28  and  _29
REMARK   11  A    between atoms: _30  and  _32
REMARK   12  A    between atoms: _32  and  _34
REMARK   13  A    between atoms: _34  and  _36
REMARK                            x       y       z     vdW  Elec       q    Type
REMARK                         _______ _______ _______ _____ _____    ______ ____
ROOT
ATOM      1  C   UNL     1      28.297  17.727  -0.564  0.00  0.00    +0.400 C 
ATOM      2  N   UNL     1      29.471  17.511   0.119  0.00  0.00    -0.278 N 
ATOM      3  H   UNL     1      29.422  18.213   0.923  0.00  0.00    +0.152 HD
ATOM      4  O   UNL     1      27.455  18.459  -0.051  0.00  0.00    -0.226 OA
ENDROOT
BRANCH   2   5
ATOM      5  C   UNL     1      30.717  16.760   0.244  0.00  0.00    +0.152 C 
BRANCH   5   6
ATOM      6  C   UNL     1      30.575  15.244   0.492  0.00  0.00    +0.193 C 
ATOM      7  O   UNL     1      30.593  14.608  -0.805  0.00  0.00    -0.219 OA
BRANCH   6   8
ATOM      8  C   UNL     1      31.701  14.540   1.282  0.00  0.00    +0.212 C 
ATOM      9  O   UNL     1      31.883  15.166   2.562  0.00  0.00    -0.218 OA
BRANCH   8  10
ATOM     10  C   UNL     1      31.439  13.002   1.506  0.00  0.00    +0.171 C 
ATOM     11  O   UNL     1      30.306  12.754   2.333  0.00  0.00    -0.343 OA
ATOM     12  C   UNL     1      29.992  11.511   2.888  0.00  0.00    +0.220 C 
ATOM     13  C   UNL     1      31.198  10.890   3.614  0.00  0.00    +0.076 C 
ATOM     14  C   UNL     1      32.377  10.879   2.628  0.00  0.00    +0.177 C 
ATOM     15  O   UNL     1      33.510  10.277   3.237  0.00  0.00    -0.221 OA
ATOM     16  C   UNL     1      32.694  12.332   2.153  0.00  0.00    +0.155 C 
BRANCH  16  17
ATOM     17  N   UNL     1      33.819  12.327   1.221  0.00  0.00    -0.202 NA
ATOM     18  C   UNL     1      35.003  12.988   1.285  0.00  0.00    +0.242 C 
ATOM     19  C   UNL     1      36.104  12.577   0.343  0.00  0.00    +0.096 C 
ATOM     20  O   UNL     1      35.148  13.895   2.102  0.00  0.00    -0.273 OA
ENDBRANCH  16  17
BRANCH  12  21
ATOM     21  C   UNL     1      29.338  10.474   1.823  0.00  0.00    +0.391 C 
ATOM     22  O   UNL     1      29.299   9.292   2.468  0.00  0.00    -0.243 OA
ATOM     23  O   UNL     1      28.817  11.227   0.845  0.00  0.00    -0.243 OA
ENDBRANCH  12  21
ENDBRANCH   8  10
ENDBRANCH   6   8
ENDBRANCH   5   6
ENDBRANCH   2   5
BRANCH   1  24
ATOM     24  O   UNL     1      28.206  17.150  -1.717  0.00  0.00    -0.450 OA
BRANCH  24  25
ATOM     25  C   UNL     1      27.311  16.333  -2.435  0.00  0.00    +0.240 C 
BRANCH  25  26
ATOM     26  C   UNL     1      26.640  16.939  -3.683  0.00  0.00    +0.100 C 
BRANCH  26  28
ATOM     27  N   UNL     1      25.870  15.420  -5.483  0.00  0.00    -0.134 NA
ATOM     28  C   UNL     1      25.667  15.989  -4.254  0.00  0.00    +0.086 A 
ATOM     29  C   UNL     1      24.482  15.520  -3.733  0.00  0.00    +0.135 A 
ATOM     30  N   UNL     1      24.044  14.628  -4.663  0.00  0.00    -0.230 N 
ATOM     31  N   UNL     1      24.856  14.604  -5.734  0.00  0.00    -0.064 NA
BRANCH  30  32
ATOM     32  C   UNL     1      22.843  13.829  -4.651  0.00  0.00    +0.316 C 
BRANCH  32  33
ATOM     33  S   UNL     1      23.025  12.284  -3.800  0.00  0.00    +0.017 S 
ATOM     34  O   UNL     1      22.337  11.235  -4.527  0.00  0.00    -0.168 OA
ATOM     35  O   UNL     1      24.423  12.140  -3.428  0.00  0.00    -0.168 OA
BRANCH  33  36
ATOM     36  C   UNL     1      22.108  12.509  -2.290  0.00  0.00    +0.090 A 
ATOM     37  C   UNL     1      22.403  11.704  -1.185  0.00  0.00    +0.027 A 
ATOM     38  C   UNL     1      21.704  11.894   0.007  0.00  0.00    +0.002 A 
ATOM     39  C   UNL     1      20.734  12.893   0.096  0.00  0.00    +0.000 A 
ATOM     40  C   UNL     1      20.458  13.707  -1.004  0.00  0.00    +0.002 A 
ATOM     41  C   UNL     1      21.145  13.518  -2.203  0.00  0.00    +0.027 A 
ENDBRANCH  33  36
ENDBRANCH  32  33
ENDBRANCH  30  32
ENDBRANCH  26  28
ENDBRANCH  25  26
ENDBRANCH  24  25
ENDBRANCH   1  24
TORSDOF 13
