REMARK VINA RESULT:    -6.878      2.800      7.717
REMARK INTER + INTRA:         -14.330
REMARK INTER:                 -11.915
REMARK INTRA:                  -2.415
REMARK UNBOUND:                -1.823
REMARK  Name = lig_assembled_12.pdb
REMARK  14 active torsions:
REMARK  status: ('A' for Active; 'I' for Inactive)
REMARK    1  A    between atoms: _2  and  _8
REMARK    2  A    between atoms: _5  and  _6
REMARK    3  A    between atoms: _5  and  _16
REMARK    4  A    between atoms: _8  and  _15
REMARK    5  A    between atoms: _9  and  _10
REMARK    6  A    between atoms: _9  and  _15
REMARK    7  A    between atoms: _16  and  _18
REMARK    8  A    between atoms: _17  and  _22
REMARK    9  A    between atoms: _18  and  _21
REMARK   10  A    between atoms: _26  and  _36
REMARK   11  A    between atoms: _28  and  _29
REMARK   12  A    between atoms: _30  and  _32
REMARK   13  A    between atoms: _32  and  _34
REMARK   14  A    between atoms: _34  and  _36
REMARK                            x       y       z     vdW  Elec       q    Type
REMARK                         _______ _______ _______ _____ _____    ______ ____
ROOT
ATOM      1  C   UNL     1      28.980  16.939  -0.486  0.00  0.00    +0.400 C 
ATOM      2  N   UNL     1      27.823  16.684  -1.183  0.00  0.00    -0.278 N 
ATOM      3  H   UNL     1      27.217  17.540  -0.977  0.00  0.00    +0.152 HD
ATOM      4  O   UNL     1      29.127  18.054   0.007  0.00  0.00    -0.226 OA
ENDROOT
BRANCH   2   5
ATOM      5  C   UNL     1      27.073  15.798  -2.069  0.00  0.00    +0.152 C 
BRANCH   5   6
ATOM      6  C   UNL     1      26.211  16.485  -3.148  0.00  0.00    +0.193 C 
ATOM      7  O   UNL     1      27.092  17.358  -3.889  0.00  0.00    -0.219 OA
BRANCH   6   8
ATOM      8  C   UNL     1      25.563  15.587  -4.225  0.00  0.00    +0.212 C 
ATOM      9  O   UNL     1      26.261  15.718  -5.474  0.00  0.00    -0.218 OA
BRANCH   8  10
ATOM     10  C   UNL     1      25.526  14.062  -3.826  0.00  0.00    +0.171 C 
ATOM     11  O   UNL     1      26.550  13.304  -4.463  0.00  0.00    -0.343 OA
ATOM     12  C   UNL     1      26.601  11.908  -4.482  0.00  0.00    +0.220 C 
ATOM     13  C   UNL     1      25.266  11.295  -4.940  0.00  0.00    +0.076 C 
ATOM     14  C   UNL     1      24.156  11.890  -4.057  0.00  0.00    +0.177 C 
ATOM     15  O   UNL     1      22.903  11.325  -4.413  0.00  0.00    -0.221 OA
ATOM     16  C   UNL     1      24.137  13.445  -4.193  0.00  0.00    +0.155 C 
BRANCH  16  17
ATOM     17  N   UNL     1      23.080  14.013  -3.361  0.00  0.00    -0.202 NA
ATOM     18  C   UNL     1      21.913  14.604  -3.724  0.00  0.00    +0.242 C 
ATOM     19  C   UNL     1      20.869  14.836  -2.663  0.00  0.00    +0.096 C 
ATOM     20  O   UNL     1      21.736  14.930  -4.896  0.00  0.00    -0.273 OA
ENDBRANCH  16  17
BRANCH  12  21
ATOM     21  C   UNL     1      27.106  11.260  -3.082  0.00  0.00    +0.391 C 
ATOM     22  O   UNL     1      27.255  12.307  -2.247  0.00  0.00    -0.243 OA
ATOM     23  O   UNL     1      26.897   9.942  -3.187  0.00  0.00    -0.243 OA
ENDBRANCH  12  21
ENDBRANCH   8  10
ENDBRANCH   6   8
ENDBRANCH   5   6
ENDBRANCH   2   5
BRANCH   1  24
ATOM     24  O   UNL     1      29.805  15.948  -0.389  0.00  0.00    -0.450 OA
BRANCH  24  25
ATOM     25  C   UNL     1      31.004  15.616   0.271  0.00  0.00    +0.240 C 
BRANCH  25  26
ATOM     26  C   UNL     1      30.892  14.981   1.671  0.00  0.00    +0.100 C 
BRANCH  26  28
ATOM     27  N   UNL     1      30.147  12.709   1.016  0.00  0.00    -0.134 NA
ATOM     28  C   UNL     1      29.899  13.892   1.665  0.00  0.00    +0.086 A 
ATOM     29  C   UNL     1      28.653  13.835   2.242  0.00  0.00    +0.136 A 
ATOM     30  N   UNL     1      28.178  12.607   1.885  0.00  0.00    -0.226 N 
ATOM     31  N   UNL     1      29.089  11.922   1.167  0.00  0.00    -0.063 NA
BRANCH  30  32
ATOM     32  C   UNL     1      26.905  11.994   2.223  0.00  0.00    +0.305 C 
BRANCH  32  33
ATOM     33  O   UNL     1      25.972  12.246   1.176  0.00  0.00    -0.353 OA
BRANCH  33  34
ATOM     34  C   UNL     1      25.293  11.062   0.780  0.00  0.00    +0.197 C 
BRANCH  34  35
ATOM     35  C   UNL     1      23.823  11.377   0.735  0.00  0.00    -0.022 A 
ATOM     36  C   UNL     1      23.217  11.780  -0.464  0.00  0.00    +0.006 A 
ATOM     37  C   UNL     1      21.860  12.110  -0.496  0.00  0.00    +0.000 A 
ATOM     38  C   UNL     1      21.099  12.049   0.669  0.00  0.00    +0.000 A 
ATOM     39  C   UNL     1      21.693  11.661   1.869  0.00  0.00    +0.000 A 
ATOM     40  C   UNL     1      23.050  11.330   1.903  0.00  0.00    +0.006 A 
ENDBRANCH  34  35
ENDBRANCH  33  34
ENDBRANCH  32  33
ENDBRANCH  30  32
ENDBRANCH  26  28
ENDBRANCH  25  26
ENDBRANCH  24  25
ENDBRANCH   1  24
TORSDOF 14
