REMARK VINA RESULT:    -6.070      3.939     10.189
REMARK INTER + INTRA:         -12.969
REMARK INTER:                 -11.167
REMARK INTRA:                  -1.802
REMARK UNBOUND:                -1.931
REMARK  Name = lig_assembled_55.pdb
REMARK  15 active torsions:
REMARK  status: ('A' for Active; 'I' for Inactive)
REMARK    1  A    between atoms: _2  and  _9
REMARK    2  A    between atoms: _3  and  _10
REMARK    3  A    between atoms: _3  and  _41
REMARK    4  A    between atoms: _5  and  _41
REMARK    5  A    between atoms: _6  and  _7
REMARK    6  A    between atoms: _6  and  _13
REMARK    7  A    between atoms: _9  and  _10
REMARK    8  A    between atoms: _13  and  _15
REMARK    9  A    between atoms: _14  and  _19
REMARK   10  A    between atoms: _15  and  _18
REMARK   11  A    between atoms: _23  and  _33
REMARK   12  A    between atoms: _25  and  _26
REMARK   13  A    between atoms: _27  and  _29
REMARK   14  A    between atoms: _29  and  _31
REMARK   15  A    between atoms: _31  and  _33
REMARK                            x       y       z     vdW  Elec       q    Type
REMARK                         _______ _______ _______ _____ _____    ______ ____
ROOT
ATOM      1  C   UNL     1      27.942  17.785  -1.070  0.00  0.00    +0.400 C 
ATOM      2  N   UNL     1      27.168  17.618  -2.194  0.00  0.00    -0.278 N 
ATOM      3  H   UNL     1      26.211  17.985  -1.892  0.00  0.00    +0.152 HD
ATOM      4  O   UNL     1      27.472  18.427  -0.133  0.00  0.00    -0.226 OA
ENDROOT
BRANCH   2   5
ATOM      5  C   UNL     1      27.073  17.187  -3.586  0.00  0.00    +0.152 C 
BRANCH   5   6
ATOM      6  C   UNL     1      25.993  16.130  -3.898  0.00  0.00    +0.193 C 
ATOM      7  O   UNL     1      26.031  15.907  -5.325  0.00  0.00    -0.219 OA
BRANCH   6   8
ATOM      8  C   UNL     1      26.169  14.724  -3.283  0.00  0.00    +0.212 C 
ATOM      9  O   UNL     1      26.885  14.806  -2.040  0.00  0.00    -0.218 OA
BRANCH   8  10
ATOM     10  C   UNL     1      24.804  13.978  -3.030  0.00  0.00    +0.171 C 
ATOM     11  O   UNL     1      23.904  14.737  -2.229  0.00  0.00    -0.343 OA
ATOM     12  C   UNL     1      22.738  14.227  -1.654  0.00  0.00    +0.220 C 
ATOM     13  C   UNL     1      23.006  12.925  -0.881  0.00  0.00    +0.076 C 
ATOM     14  C   UNL     1      23.732  11.961  -1.834  0.00  0.00    +0.177 C 
ATOM     15  O   UNL     1      23.969  10.723  -1.179  0.00  0.00    -0.221 OA
ATOM     16  C   UNL     1      25.064  12.603  -2.333  0.00  0.00    +0.155 C 
BRANCH  16  17
ATOM     17  N   UNL     1      25.761  11.688  -3.234  0.00  0.00    -0.202 NA
ATOM     18  C   UNL     1      26.987  11.118  -3.114  0.00  0.00    +0.242 C 
ATOM     19  C   UNL     1      27.342   9.983  -4.040  0.00  0.00    +0.096 C 
ATOM     20  O   UNL     1      27.770  11.533  -2.262  0.00  0.00    -0.273 OA
ENDBRANCH  16  17
BRANCH  12  21
ATOM     21  C   UNL     1      21.518  14.053  -2.712  0.00  0.00    +0.391 C 
ATOM     22  O   UNL     1      21.790  14.925  -3.703  0.00  0.00    -0.243 OA
ATOM     23  O   UNL     1      20.883  12.927  -2.363  0.00  0.00    -0.243 OA
ENDBRANCH  12  21
ENDBRANCH   8  10
ENDBRANCH   6   8
ENDBRANCH   5   6
ENDBRANCH   2   5
BRANCH   1  24
ATOM     24  O   UNL     1      29.101  17.213  -1.098  0.00  0.00    -0.450 OA
BRANCH  24  25
ATOM     25  C   UNL     1      29.966  16.511  -0.237  0.00  0.00    +0.240 C 
BRANCH  25  26
ATOM     26  C   UNL     1      29.517  15.116   0.240  0.00  0.00    +0.100 C 
BRANCH  26  28
ATOM     27  N   UNL     1      31.382  15.438   1.832  0.00  0.00    -0.134 NA
ATOM     28  C   UNL     1      30.388  14.639   1.330  0.00  0.00    +0.086 A 
ATOM     29  C   UNL     1      30.395  13.437   2.001  0.00  0.00    +0.133 A 
ATOM     30  N   UNL     1      31.427  13.557   2.883  0.00  0.00    -0.250 N 
ATOM     31  N   UNL     1      32.016  14.762   2.779  0.00  0.00    -0.065 NA
BRANCH  30  32
ATOM     32  C   UNL     1      31.887  12.594   3.859  0.00  0.00    +0.162 C 
BRANCH  32  33
ATOM     33  C   UNL     1      33.009  11.683   3.348  0.00  0.00    +0.129 C 
BRANCH  33  34
ATOM     34  N   UNL     1      34.002  12.383   2.481  0.00  0.00    -0.193 NA
ATOM     35  H   UNL     1      33.542  13.113   1.924  0.00  0.00    +0.148 HD
BRANCH  34  36
ATOM     36  S   UNL     1      35.402  12.927   3.246  0.00  0.00    +0.027 S 
ATOM     37  O   UNL     1      35.354  14.372   3.227  0.00  0.00    -0.158 OA
ATOM     38  O   UNL     1      35.536  12.194   4.485  0.00  0.00    -0.158 OA
ATOM     39  C   UNL     1      36.659  12.395   2.106  0.00  0.00    +0.214 C 
ENDBRANCH  34  36
ENDBRANCH  33  34
ENDBRANCH  32  33
ENDBRANCH  30  32
ENDBRANCH  26  28
ENDBRANCH  25  26
ENDBRANCH  24  25
ENDBRANCH   1  24
TORSDOF 14
