REMARK VINA RESULT:    -5.370     22.406     26.298
REMARK INTER + INTRA:         -11.805
REMARK INTER:                  -9.294
REMARK INTRA:                  -2.511
REMARK UNBOUND:                -2.511
REMARK  Name = lig_assembled_1.pdb
REMARK  13 active torsions:
REMARK  status: ('A' for Active; 'I' for Inactive)
REMARK    1  A    between atoms: _2  and  _8
REMARK    2  A    between atoms: _4  and  _8
REMARK    3  A    between atoms: _4  and  _9
REMARK    4  A    between atoms: _5  and  _6
REMARK    5  A    between atoms: _5  and  _10
REMARK    6  A    between atoms: _10  and  _12
REMARK    7  A    between atoms: _11  and  _16
REMARK    8  A    between atoms: _12  and  _15
REMARK    9  A    between atoms: _20  and  _30
REMARK   10  A    between atoms: _22  and  _23
REMARK   11  A    between atoms: _24  and  _26
REMARK   12  A    between atoms: _26  and  _28
REMARK   13  A    between atoms: _28  and  _30
REMARK                            x       y       z     vdW  Elec       q    Type
REMARK                         _______ _______ _______ _____ _____    ______ ____
ROOT
ATOM      1  C   UNL     1      46.318  26.355  14.398  0.00  0.00    +0.193 C 
ATOM      2  O   UNL     1      47.439  25.540  14.807  0.00  0.00    -0.219 OA
ENDROOT
BRANCH   1   3
ATOM      3  C   UNL     1      46.177  27.406  15.521  0.00  0.00    +0.212 C 
ATOM      4  O   UNL     1      45.109  28.320  15.222  0.00  0.00    -0.218 OA
BRANCH   3   5
ATOM      5  C   UNL     1      45.914  26.772  16.940  0.00  0.00    +0.171 C 
ATOM      6  O   UNL     1      44.549  26.415  17.137  0.00  0.00    -0.343 OA
ATOM      7  C   UNL     1      43.996  26.065  18.370  0.00  0.00    +0.220 C 
ATOM      8  C   UNL     1      44.329  27.099  19.459  0.00  0.00    +0.076 C 
ATOM      9  C   UNL     1      45.855  27.290  19.465  0.00  0.00    +0.177 C 
ATOM     10  O   UNL     1      46.221  28.210  20.484  0.00  0.00    -0.221 OA
ATOM     11  C   UNL     1      46.341  27.773  18.063  0.00  0.00    +0.155 C 
BRANCH  11  12
ATOM     12  N   UNL     1      47.789  27.962  18.067  0.00  0.00    -0.202 NA
ATOM     13  C   UNL     1      48.518  29.087  17.851  0.00  0.00    +0.242 C 
ATOM     14  C   UNL     1      49.983  29.069  18.204  0.00  0.00    +0.096 C 
ATOM     15  O   UNL     1      47.973  30.083  17.379  0.00  0.00    -0.273 OA
ENDBRANCH  11  12
BRANCH   7  16
ATOM     16  C   UNL     1      44.373  24.557  18.844  0.00  0.00    +0.391 C 
ATOM     17  O   UNL     1      44.077  24.521  20.158  0.00  0.00    -0.243 OA
ATOM     18  O   UNL     1      44.541  23.848  17.721  0.00  0.00    -0.243 OA
ENDBRANCH   7  16
ENDBRANCH   3   5
ENDBRANCH   1   3
BRANCH   1  19
ATOM     19  C   UNL     1      46.636  26.866  12.978  0.00  0.00    +0.152 C 
BRANCH  19  21
ATOM     20  C   UNL     1      44.803  26.559  10.980  0.00  0.00    +0.400 C 
ATOM     21  N   UNL     1      45.496  27.013  12.077  0.00  0.00    -0.278 N 
ATOM     22  H   UNL     1      44.911  27.843  12.412  0.00  0.00    +0.152 HD
ATOM     23  O   UNL     1      43.689  27.028  10.762  0.00  0.00    -0.226 OA
BRANCH  20  24
ATOM     24  O   UNL     1      45.419  25.686  10.252  0.00  0.00    -0.450 OA
BRANCH  24  25
ATOM     25  C   UNL     1      46.287  24.588  10.406  0.00  0.00    +0.240 C 
BRANCH  25  26
ATOM     26  C   UNL     1      45.654  23.220  10.725  0.00  0.00    +0.100 C 
BRANCH  26  28
ATOM     27  N   UNL     1      45.014  22.894  13.096  0.00  0.00    -0.134 NA
ATOM     28  C   UNL     1      45.963  22.821  12.111  0.00  0.00    +0.086 A 
ATOM     29  C   UNL     1      47.137  22.346  12.651  0.00  0.00    +0.133 A 
ATOM     30  N   UNL     1      46.839  22.155  13.967  0.00  0.00    -0.249 N 
ATOM     31  N   UNL     1      45.565  22.488  14.232  0.00  0.00    -0.065 NA
BRANCH  30  32
ATOM     32  C   UNL     1      47.703  21.656  15.013  0.00  0.00    +0.173 C 
BRANCH  32  33
ATOM     33  C   UNL     1      47.198  22.004  16.408  0.00  0.00    +0.179 C 
BRANCH  33  34
ATOM     34  O   UNL     1      46.943  23.403  16.528  0.00  0.00    -0.393 OA
ATOM     35  H   UNL     1      47.149  23.804  15.663  0.00  0.00    +0.209 HD
ENDBRANCH  33  34
ENDBRANCH  32  33
ENDBRANCH  30  32
ENDBRANCH  26  28
ENDBRANCH  25  26
ENDBRANCH  24  25
ENDBRANCH  20  24
ENDBRANCH  19  21
ENDBRANCH   1  19
TORSDOF 13
