REMARK VINA RESULT:    -7.729      1.781      2.369
REMARK INTER + INTRA:         -15.083
REMARK INTER:                 -13.309
REMARK INTRA:                  -1.774
REMARK UNBOUND:                -1.480
REMARK  Name = lig_assembled_58.pdb
REMARK  13 active torsions:
REMARK  status: ('A' for Active; 'I' for Inactive)
REMARK    1  A    between atoms: _2  and  _8
REMARK    2  A    between atoms: _5  and  _6
REMARK    3  A    between atoms: _5  and  _20
REMARK    4  A    between atoms: _8  and  _9
REMARK    5  A    between atoms: _8  and  _15
REMARK    6  A    between atoms: _20  and  _22
REMARK    7  A    between atoms: _21  and  _26
REMARK    8  A    between atoms: _22  and  _25
REMARK    9  A    between atoms: _30  and  _40
REMARK   10  A    between atoms: _32  and  _33
REMARK   11  A    between atoms: _34  and  _36
REMARK   12  A    between atoms: _36  and  _38
REMARK   13  A    between atoms: _38  and  _40
REMARK                            x       y       z     vdW  Elec       q    Type
REMARK                         _______ _______ _______ _____ _____    ______ ____
ROOT
ATOM      1  C   UNL     1      27.746  17.364  -1.299  0.00  0.00    +0.400 C 
ATOM      2  N   UNL     1      28.397  16.582  -0.374  0.00  0.00    -0.278 N 
ATOM      3  H   UNL     1      28.604  17.263   0.423  0.00  0.00    +0.152 HD
ATOM      4  O   UNL     1      27.409  18.498  -0.965  0.00  0.00    -0.226 OA
ENDROOT
BRANCH   2   5
ATOM      5  C   UNL     1      28.907  15.267   0.004  0.00  0.00    +0.152 C 
BRANCH   5   6
ATOM      6  C   UNL     1      30.440  15.096  -0.035  0.00  0.00    +0.193 C 
ATOM      7  O   UNL     1      31.006  16.425  -0.051  0.00  0.00    -0.219 OA
BRANCH   6   8
ATOM      8  C   UNL     1      31.113  14.405   1.172  0.00  0.00    +0.212 C 
ATOM      9  O   UNL     1      31.412  15.366   2.197  0.00  0.00    -0.218 OA
BRANCH   8  10
ATOM     10  C   UNL     1      30.238  13.254   1.801  0.00  0.00    +0.171 C 
ATOM     11  O   UNL     1      30.051  13.413   3.203  0.00  0.00    -0.343 OA
ATOM     12  C   UNL     1      29.532  12.426   4.046  0.00  0.00    +0.220 C 
ATOM     13  C   UNL     1      30.252  11.080   3.858  0.00  0.00    +0.076 C 
ATOM     14  C   UNL     1      30.212  10.738   2.360  0.00  0.00    +0.177 C 
ATOM     15  O   UNL     1      30.831   9.479   2.136  0.00  0.00    -0.221 OA
ATOM     16  C   UNL     1      30.904  11.865   1.533  0.00  0.00    +0.155 C 
BRANCH  16  17
ATOM     17  N   UNL     1      30.874  11.541   0.109  0.00  0.00    -0.202 NA
ATOM     18  C   UNL     1      31.897  11.429  -0.777  0.00  0.00    +0.242 C 
ATOM     19  C   UNL     1      31.617  10.795  -2.115  0.00  0.00    +0.096 C 
ATOM     20  O   UNL     1      33.014  11.839  -0.471  0.00  0.00    -0.273 OA
ENDBRANCH  16  17
BRANCH  12  21
ATOM     21  C   UNL     1      27.919  12.262   3.933  0.00  0.00    +0.391 C 
ATOM     22  O   UNL     1      27.667  11.010   4.360  0.00  0.00    -0.243 OA
ATOM     23  O   UNL     1      27.433  13.497   3.754  0.00  0.00    -0.243 OA
ENDBRANCH  12  21
ENDBRANCH   8  10
ENDBRANCH   6   8
ENDBRANCH   5   6
ENDBRANCH   2   5
BRANCH   1  24
ATOM     24  O   UNL     1      27.576  16.830  -2.464  0.00  0.00    -0.450 OA
BRANCH  24  25
ATOM     25  C   UNL     1      26.594  16.754  -3.471  0.00  0.00    +0.240 C 
BRANCH  25  26
ATOM     26  C   UNL     1      26.212  15.353  -3.987  0.00  0.00    +0.100 C 
BRANCH  26  28
ATOM     27  N   UNL     1      24.401  15.534  -2.295  0.00  0.00    -0.134 NA
ATOM     28  C   UNL     1      25.157  14.768  -3.140  0.00  0.00    +0.086 A 
ATOM     29  C   UNL     1      24.730  13.462  -3.061  0.00  0.00    +0.134 A 
ATOM     30  N   UNL     1      23.612  13.520  -2.273  0.00  0.00    -0.240 N 
ATOM     31  N   UNL     1      23.470  14.759  -1.752  0.00  0.00    -0.065 NA
BRANCH  30  32
ATOM     32  C   UNL     1      22.611  12.475  -1.990  0.00  0.00    +0.169 C 
BRANCH  32  33
ATOM     33  C   UNL     1      21.217  12.826  -2.531  0.00  0.00    -0.019 A 
ATOM     34  C   UNL     1      20.405  11.850  -3.138  0.00  0.00    +0.006 A 
ATOM     35  C   UNL     1      19.138  12.175  -3.630  0.00  0.00    +0.000 A 
ATOM     36  C   UNL     1      18.650  13.472  -3.503  0.00  0.00    +0.000 A 
ATOM     37  C   UNL     1      19.411  14.438  -2.859  0.00  0.00    +0.000 A 
ATOM     38  C   UNL     1      20.672  14.113  -2.361  0.00  0.00    +0.006 A 
ENDBRANCH  32  33
BRANCH  32  39
ATOM     39  C   UNL     1      22.652  12.100  -0.502  0.00  0.00    -0.019 A 
ATOM     40  C   UNL     1      23.856  11.680   0.088  0.00  0.00    +0.006 A 
ATOM     41  C   UNL     1      23.892  11.281   1.426  0.00  0.00    +0.000 A 
ATOM     42  C   UNL     1      22.734  11.309   2.200  0.00  0.00    +0.000 A 
ATOM     43  C   UNL     1      21.532  11.719   1.635  0.00  0.00    +0.000 A 
ATOM     44  C   UNL     1      21.490  12.099   0.294  0.00  0.00    +0.006 A 
ENDBRANCH  32  39
ENDBRANCH  30  32
ENDBRANCH  26  28
ENDBRANCH  25  26
ENDBRANCH  24  25
ENDBRANCH   1  24
TORSDOF 13
