REMARK VINA RESULT:    -6.143      1.816      3.240
REMARK INTER + INTRA:         -12.356
REMARK INTER:                 -10.872
REMARK INTRA:                  -1.485
REMARK UNBOUND:                -2.263
REMARK  Name = lig_assembled_52.pdb
REMARK  11 active torsions:
REMARK  status: ('A' for Active; 'I' for Inactive)
REMARK    1  A    between atoms: _2  and  _9
REMARK    2  A    between atoms: _6  and  _7
REMARK    3  A    between atoms: _6  and  _13
REMARK    4  A    between atoms: _13  and  _15
REMARK    5  A    between atoms: _14  and  _19
REMARK    6  A    between atoms: _15  and  _18
REMARK    7  A    between atoms: _23  and  _33
REMARK    8  A    between atoms: _25  and  _26
REMARK    9  A    between atoms: _27  and  _29
REMARK   10  A    between atoms: _29  and  _31
REMARK   11  A    between atoms: _31  and  _33
REMARK                            x       y       z     vdW  Elec       q    Type
REMARK                         _______ _______ _______ _____ _____    ______ ____
ROOT
ATOM      1  C   UNL     1      28.849  14.860  -0.554  0.00  0.00    +0.152 C 
ENDROOT
BRANCH   1   3
ATOM      2  C   UNL     1      27.893  17.367  -1.052  0.00  0.00    +0.400 C 
ATOM      3  N   UNL     1      28.360  16.231  -0.434  0.00  0.00    -0.278 N 
ATOM      4  H   UNL     1      28.335  16.487   0.604  0.00  0.00    +0.152 HD
ATOM      5  O   UNL     1      27.420  18.256  -0.350  0.00  0.00    -0.226 OA
BRANCH   2   6
ATOM      6  O   UNL     1      28.030  17.401  -2.337  0.00  0.00    -0.450 OA
BRANCH   6   7
ATOM      7  C   UNL     1      27.395  16.904  -3.492  0.00  0.00    +0.240 C 
BRANCH   7   8
ATOM      8  C   UNL     1      25.855  16.941  -3.529  0.00  0.00    +0.100 C 
BRANCH   8  10
ATOM      9  N   UNL     1      26.086  14.663  -2.591  0.00  0.00    -0.134 NA
ATOM     10  C   UNL     1      25.299  15.741  -2.876  0.00  0.00    +0.086 A 
ATOM     11  C   UNL     1      24.015  15.482  -2.456  0.00  0.00    +0.140 A 
ATOM     12  N   UNL     1      24.071  14.226  -1.895  0.00  0.00    -0.218 N 
ATOM     13  N   UNL     1      25.334  13.746  -2.000  0.00  0.00    -0.060 NA
BRANCH  12  14
ATOM     14  C   UNL     1      23.039  13.489  -1.277  0.00  0.00    +0.085 A 
ATOM     15  C   UNL     1      21.694  13.853  -1.398  0.00  0.00    +0.031 A 
ATOM     16  C   UNL     1      20.724  13.096  -0.745  0.00  0.00    +0.022 A 
ATOM     17  C   UNL     1      21.129  12.004   0.004  0.00  0.00    +0.111 A 
ATOM     18  N   UNL     1      22.417  11.624   0.135  0.00  0.00    -0.261 NA
ATOM     19  C   UNL     1      23.348  12.373  -0.508  0.00  0.00    +0.138 A 
ENDBRANCH  12  14
ENDBRANCH   8  10
ENDBRANCH   7   8
ENDBRANCH   6   7
ENDBRANCH   2   6
ENDBRANCH   1   3
BRANCH   1  20
ATOM     20  C   UNL     1      30.364  14.658  -0.348  0.00  0.00    +0.193 C 
ATOM     21  O   UNL     1      30.791  15.662   0.599  0.00  0.00    -0.219 OA
BRANCH  20  22
ATOM     22  C   UNL     1      30.830  13.322   0.272  0.00  0.00    +0.212 C 
ATOM     23  O   UNL     1      31.855  12.724  -0.538  0.00  0.00    -0.218 OA
BRANCH  22  24
ATOM     24  C   UNL     1      31.374  13.472   1.744  0.00  0.00    +0.171 C 
ATOM     25  O   UNL     1      32.781  13.273   1.830  0.00  0.00    -0.343 OA
ATOM     26  C   UNL     1      33.481  13.107   3.028  0.00  0.00    +0.220 C 
ATOM     27  C   UNL     1      32.840  12.030   3.919  0.00  0.00    +0.076 C 
ATOM     28  C   UNL     1      31.354  12.389   4.083  0.00  0.00    +0.177 C 
ATOM     29  O   UNL     1      30.721  11.444   4.934  0.00  0.00    -0.221 OA
ATOM     30  C   UNL     1      30.659  12.450   2.687  0.00  0.00    +0.155 C 
BRANCH  30  31
ATOM     31  N   UNL     1      29.245  12.784   2.839  0.00  0.00    -0.202 NA
ATOM     32  C   UNL     1      28.143  12.068   2.499  0.00  0.00    +0.242 C 
ATOM     33  C   UNL     1      26.807  12.515   3.033  0.00  0.00    +0.096 C 
ATOM     34  O   UNL     1      28.258  11.082   1.773  0.00  0.00    -0.273 OA
ENDBRANCH  30  31
BRANCH  26  35
ATOM     35  C   UNL     1      33.711  14.495   3.840  0.00  0.00    +0.391 C 
ATOM     36  O   UNL     1      32.942  15.401   3.205  0.00  0.00    -0.243 OA
ATOM     37  O   UNL     1      34.319  14.158   4.984  0.00  0.00    -0.243 OA
ENDBRANCH  26  35
ENDBRANCH  22  24
ENDBRANCH  20  22
ENDBRANCH   1  20
TORSDOF 11
