REMARK VINA RESULT:    -7.078      1.641      2.647
REMARK INTER + INTRA:         -14.986
REMARK INTER:                 -12.703
REMARK INTRA:                  -2.282
REMARK UNBOUND:                -2.115
REMARK  Name = lig_assembled_26.pdb
REMARK  15 active torsions:
REMARK  status: ('A' for Active; 'I' for Inactive)
REMARK    1  A    between atoms: _2  and  _8
REMARK    2  A    between atoms: _5  and  _6
REMARK    3  A    between atoms: _5  and  _18
REMARK    4  A    between atoms: _8  and  _9
REMARK    5  A    between atoms: _8  and  _10
REMARK    6  A    between atoms: _10  and  _11
REMARK    7  A    between atoms: _11  and  _12
REMARK    8  A    between atoms: _18  and  _20
REMARK    9  A    between atoms: _19  and  _24
REMARK   10  A    between atoms: _20  and  _23
REMARK   11  A    between atoms: _28  and  _38
REMARK   12  A    between atoms: _30  and  _31
REMARK   13  A    between atoms: _32  and  _34
REMARK   14  A    between atoms: _34  and  _36
REMARK   15  A    between atoms: _36  and  _38
REMARK                            x       y       z     vdW  Elec       q    Type
REMARK                         _______ _______ _______ _____ _____    ______ ____
ROOT
ATOM      1  C   UNL     1      27.417  17.650  -1.717  0.00  0.00    +0.400 C 
ATOM      2  N   UNL     1      28.011  16.604  -1.051  0.00  0.00    -0.278 N 
ATOM      3  H   UNL     1      28.583  17.088  -0.289  0.00  0.00    +0.152 HD
ATOM      4  O   UNL     1      27.507  18.774  -1.228  0.00  0.00    -0.226 OA
ENDROOT
BRANCH   2   5
ATOM      5  C   UNL     1      28.195  15.162  -0.912  0.00  0.00    +0.152 C 
BRANCH   5   6
ATOM      6  C   UNL     1      29.111  14.701   0.239  0.00  0.00    +0.193 C 
ATOM      7  O   UNL     1      29.102  13.256   0.225  0.00  0.00    -0.219 OA
BRANCH   6   8
ATOM      8  C   UNL     1      30.607  15.077   0.157  0.00  0.00    +0.212 C 
ATOM      9  O   UNL     1      30.813  16.421   0.622  0.00  0.00    -0.218 OA
BRANCH   8  10
ATOM     10  C   UNL     1      31.541  14.110   0.980  0.00  0.00    +0.171 C 
ATOM     11  O   UNL     1      31.805  14.591   2.294  0.00  0.00    -0.343 OA
ATOM     12  C   UNL     1      32.782  14.067   3.143  0.00  0.00    +0.220 C 
ATOM     13  C   UNL     1      34.148  13.960   2.443  0.00  0.00    +0.076 C 
ATOM     14  C   UNL     1      33.939  13.177   1.137  0.00  0.00    +0.177 C 
ATOM     15  O   UNL     1      35.181  13.014   0.468  0.00  0.00    -0.221 OA
ATOM     16  C   UNL     1      32.899  13.909   0.232  0.00  0.00    +0.155 C 
BRANCH  16  17
ATOM     17  N   UNL     1      32.702  13.172  -1.013  0.00  0.00    -0.202 NA
ATOM     18  C   UNL     1      33.029  13.514  -2.285  0.00  0.00    +0.242 C 
ATOM     19  C   UNL     1      32.984  12.446  -3.347  0.00  0.00    +0.096 C 
ATOM     20  O   UNL     1      33.353  14.672  -2.539  0.00  0.00    -0.273 OA
ENDBRANCH  16  17
BRANCH  12  21
ATOM     21  C   UNL     1      32.354  12.660   3.834  0.00  0.00    +0.391 C 
ATOM     22  O   UNL     1      33.514  12.013   4.053  0.00  0.00    -0.243 OA
ATOM     23  O   UNL     1      31.072  12.801   4.194  0.00  0.00    -0.243 OA
ENDBRANCH  12  21
ENDBRANCH   8  10
ENDBRANCH   6   8
ENDBRANCH   5   6
ENDBRANCH   2   5
BRANCH   1  24
ATOM     24  O   UNL     1      26.837  17.348  -2.831  0.00  0.00    -0.450 OA
BRANCH  24  25
ATOM     25  C   UNL     1      27.022  16.491  -3.934  0.00  0.00    +0.240 C 
BRANCH  25  26
ATOM     26  C   UNL     1      25.763  15.889  -4.587  0.00  0.00    +0.100 C 
BRANCH  26  28
ATOM     27  N   UNL     1      24.666  13.673  -4.791  0.00  0.00    -0.134 NA
ATOM     28  C   UNL     1      25.629  14.467  -4.226  0.00  0.00    +0.086 A 
ATOM     29  C   UNL     1      26.369  13.717  -3.343  0.00  0.00    +0.134 A 
ATOM     30  N   UNL     1      25.797  12.481  -3.389  0.00  0.00    -0.248 N 
ATOM     31  N   UNL     1      24.789  12.452  -4.284  0.00  0.00    -0.065 NA
BRANCH  30  32
ATOM     32  C   UNL     1      26.171  11.261  -2.691  0.00  0.00    +0.113 C 
ATOM     33  C   UNL     1      27.648  11.197  -2.274  0.00  0.00    +0.033 C 
BRANCH  32  34
ATOM     34  C   UNL     1      25.232  10.936  -1.516  0.00  0.00    +0.106 C 
BRANCH  34  35
ATOM     35  C   UNL     1      24.829  12.146  -0.693  0.00  0.00    +0.165 C 
ATOM     36  O   UNL     1      25.633  12.767  -0.001  0.00  0.00    -0.292 OA
BRANCH  35  37
ATOM     37  C   UNL     1      23.399  12.572  -0.694  0.00  0.00    +0.017 A 
ATOM     38  C   UNL     1      22.933  13.646  -1.463  0.00  0.00    +0.011 A 
ATOM     39  C   UNL     1      21.576  13.975  -1.457  0.00  0.00    +0.001 A 
ATOM     40  C   UNL     1      20.679  13.241  -0.681  0.00  0.00    +0.000 A 
ATOM     41  C   UNL     1      21.135  12.180   0.095  0.00  0.00    +0.001 A 
ATOM     42  C   UNL     1      22.490  11.846   0.091  0.00  0.00    +0.011 A 
ENDBRANCH  35  37
ENDBRANCH  34  35
ENDBRANCH  32  34
ENDBRANCH  30  32
ENDBRANCH  26  28
ENDBRANCH  25  26
ENDBRANCH  24  25
ENDBRANCH   1  24
TORSDOF 14
