REMARK VINA RESULT:    -7.272      1.957      2.798
REMARK INTER + INTRA:         -14.264
REMARK INTER:                 -12.697
REMARK INTRA:                  -1.568
REMARK UNBOUND:                -1.466
REMARK  Name = lig_assembled_78.pdb
REMARK  13 active torsions:
REMARK  status: ('A' for Active; 'I' for Inactive)
REMARK    1  A    between atoms: _2  and  _8
REMARK    2  A    between atoms: _5  and  _6
REMARK    3  A    between atoms: _5  and  _16
REMARK    4  A    between atoms: _8  and  _44
REMARK    5  A    between atoms: _9  and  _44
REMARK    6  A    between atoms: _16  and  _18
REMARK    7  A    between atoms: _17  and  _22
REMARK    8  A    between atoms: _18  and  _21
REMARK    9  A    between atoms: _26  and  _36
REMARK   10  A    between atoms: _28  and  _29
REMARK   11  A    between atoms: _30  and  _32
REMARK   12  A    between atoms: _32  and  _34
REMARK   13  A    between atoms: _34  and  _36
REMARK                            x       y       z     vdW  Elec       q    Type
REMARK                         _______ _______ _______ _____ _____    ______ ____
ROOT
ATOM      1  C   UNL     1      28.293  17.645  -0.531  0.00  0.00    +0.400 C 
ATOM      2  N   UNL     1      29.447  17.659   0.216  0.00  0.00    -0.278 N 
ATOM      3  H   UNL     1      29.313  18.499   0.863  0.00  0.00    +0.152 HD
ATOM      4  O   UNL     1      27.379  18.395  -0.199  0.00  0.00    -0.226 OA
ENDROOT
BRANCH   2   5
ATOM      5  C   UNL     1      30.737  17.047   0.524  0.00  0.00    +0.152 C 
BRANCH   5   6
ATOM      6  C   UNL     1      30.896  15.563   0.135  0.00  0.00    +0.193 C 
ATOM      7  O   UNL     1      31.927  15.507  -0.876  0.00  0.00    -0.219 OA
BRANCH   6   8
ATOM      8  C   UNL     1      31.376  14.584   1.230  0.00  0.00    +0.212 C 
ATOM      9  O   UNL     1      31.770  15.304   2.409  0.00  0.00    -0.218 OA
BRANCH   8  10
ATOM     10  C   UNL     1      30.289  13.516   1.631  0.00  0.00    +0.171 C 
ATOM     11  O   UNL     1      30.224  13.303   3.038  0.00  0.00    -0.343 OA
ATOM     12  C   UNL     1      29.533  12.251   3.644  0.00  0.00    +0.220 C 
ATOM     13  C   UNL     1      29.900  10.893   3.022  0.00  0.00    +0.076 C 
ATOM     14  C   UNL     1      29.696  11.010   1.502  0.00  0.00    +0.177 C 
ATOM     15  O   UNL     1      29.984   9.766   0.880  0.00  0.00    -0.221 OA
ATOM     16  C   UNL     1      30.590  12.153   0.926  0.00  0.00    +0.155 C 
BRANCH  16  17
ATOM     17  N   UNL     1      30.404  12.263  -0.518  0.00  0.00    -0.202 NA
ATOM     18  C   UNL     1      31.292  12.064  -1.525  0.00  0.00    +0.242 C 
ATOM     19  C   UNL     1      30.765  11.955  -2.932  0.00  0.00    +0.096 C 
ATOM     20  O   UNL     1      32.491  11.976  -1.269  0.00  0.00    -0.273 OA
ENDBRANCH  16  17
BRANCH  12  21
ATOM     21  C   UNL     1      27.924  12.473   3.687  0.00  0.00    +0.391 C 
ATOM     22  O   UNL     1      27.745  13.776   3.395  0.00  0.00    -0.243 OA
ATOM     23  O   UNL     1      27.382  11.249   3.694  0.00  0.00    -0.243 OA
ENDBRANCH  12  21
ENDBRANCH   8  10
ENDBRANCH   6   8
ENDBRANCH   5   6
ENDBRANCH   2   5
BRANCH   1  24
ATOM     24  O   UNL     1      28.295  16.849  -1.550  0.00  0.00    -0.450 OA
BRANCH  24  25
ATOM     25  C   UNL     1      27.445  15.920  -2.182  0.00  0.00    +0.240 C 
BRANCH  25  26
ATOM     26  C   UNL     1      26.200  16.472  -2.903  0.00  0.00    +0.100 C 
BRANCH  26  28
ATOM     27  N   UNL     1      24.794  15.202  -4.500  0.00  0.00    -0.134 NA
ATOM     28  C   UNL     1      25.268  15.377  -3.227  0.00  0.00    +0.086 A 
ATOM     29  C   UNL     1      24.735  14.402  -2.413  0.00  0.00    +0.135 A 
ATOM     30  N   UNL     1      23.996  13.634  -3.260  0.00  0.00    -0.230 N 
ATOM     31  N   UNL     1      23.997  14.143  -4.504  0.00  0.00    -0.064 NA
BRANCH  30  32
ATOM     32  C   UNL     1      23.207  12.464  -2.960  0.00  0.00    +0.316 C 
BRANCH  32  33
ATOM     33  S   UNL     1      21.843  12.787  -1.875  0.00  0.00    +0.017 S 
ATOM     34  O   UNL     1      21.678  14.217  -1.700  0.00  0.00    -0.168 OA
ATOM     35  O   UNL     1      20.728  11.955  -2.297  0.00  0.00    -0.168 OA
BRANCH  33  36
ATOM     36  C   UNL     1      22.386  12.165  -0.297  0.00  0.00    +0.090 A 
ATOM     37  C   UNL     1      21.457  12.026   0.739  0.00  0.00    +0.027 A 
ATOM     38  C   UNL     1      21.873  11.516   1.968  0.00  0.00    +0.002 A 
ATOM     39  C   UNL     1      23.203  11.131   2.151  0.00  0.00    +0.000 A 
ATOM     40  C   UNL     1      24.121  11.253   1.107  0.00  0.00    +0.002 A 
ATOM     41  C   UNL     1      23.715  11.772  -0.123  0.00  0.00    +0.027 A 
ENDBRANCH  33  36
ENDBRANCH  32  33
ENDBRANCH  30  32
ENDBRANCH  26  28
ENDBRANCH  25  26
ENDBRANCH  24  25
ENDBRANCH   1  24
TORSDOF 13
