REMARK VINA RESULT:    -6.859      1.872      3.819
REMARK INTER + INTRA:         -12.879
REMARK INTER:                 -11.274
REMARK INTRA:                  -1.604
REMARK UNBOUND:                -1.609
REMARK  Name = lig_assembled_87.pdb
REMARK  12 active torsions:
REMARK  status: ('A' for Active; 'I' for Inactive)
REMARK    1  A    between atoms: _2  and  _9
REMARK    2  A    between atoms: _3  and  _12
REMARK    3  A    between atoms: _6  and  _7
REMARK    4  A    between atoms: _6  and  _16
REMARK    5  A    between atoms: _16  and  _18
REMARK    6  A    between atoms: _17  and  _22
REMARK    7  A    between atoms: _18  and  _21
REMARK    8  A    between atoms: _26  and  _36
REMARK    9  A    between atoms: _28  and  _29
REMARK   10  A    between atoms: _30  and  _32
REMARK   11  A    between atoms: _32  and  _34
REMARK   12  A    between atoms: _34  and  _36
REMARK                            x       y       z     vdW  Elec       q    Type
REMARK                         _______ _______ _______ _____ _____    ______ ____
ROOT
ATOM      1  C   UNL     1      28.667  16.426  -0.839  0.00  0.00    +0.400 C 
ATOM      2  N   UNL     1      28.990  15.090  -0.873  0.00  0.00    -0.278 N 
ATOM      3  H   UNL     1      29.979  15.064  -0.470  0.00  0.00    +0.152 HD
ATOM      4  O   UNL     1      29.421  17.189  -0.242  0.00  0.00    -0.226 OA
ENDROOT
BRANCH   1   5
ATOM      5  O   UNL     1      27.594  16.759  -1.479  0.00  0.00    -0.450 OA
BRANCH   5   6
ATOM      6  C   UNL     1      27.167  17.709  -2.428  0.00  0.00    +0.240 C 
BRANCH   6   7
ATOM      7  C   UNL     1      26.752  17.189  -3.817  0.00  0.00    +0.100 C 
BRANCH   7   9
ATOM      8  N   UNL     1      26.606  14.738  -4.089  0.00  0.00    -0.134 NA
ATOM      9  C   UNL     1      26.032  15.910  -3.686  0.00  0.00    +0.086 A 
ATOM     10  C   UNL     1      24.782  15.646  -3.172  0.00  0.00    +0.134 A 
ATOM     11  N   UNL     1      24.697  14.280  -3.174  0.00  0.00    -0.248 N 
ATOM     12  N   UNL     1      25.752  13.761  -3.836  0.00  0.00    -0.065 NA
BRANCH  11  13
ATOM     13  C   UNL     1      23.682  13.371  -2.609  0.00  0.00    +0.112 C 
ATOM     14  C   UNL     1      22.753  12.698  -3.657  0.00  0.00    +0.045 C 
ATOM     15  C   UNL     1      21.251  12.987  -3.502  0.00  0.00    +0.059 C 
ATOM     16  C   UNL     1      20.616  12.147  -2.384  0.00  0.00    +0.020 C 
ATOM     17  C   UNL     1      20.625  13.062  -1.160  0.00  0.00    +0.020 C 
ATOM     18  C   UNL     1      21.424  14.282  -1.619  0.00  0.00    +0.059 C 
ATOM     19  N   UNL     1      20.987  14.334  -3.011  0.00  0.00    -0.299 NA
ATOM     20  C   UNL     1      21.447  15.443  -3.818  0.00  0.00    +0.105 C 
ATOM     21  C   UNL     1      22.923  14.046  -1.426  0.00  0.00    +0.045 C 
ENDBRANCH  11  13
ENDBRANCH   7   9
ENDBRANCH   6   7
ENDBRANCH   5   6
ENDBRANCH   1   5
BRANCH   2  22
ATOM     22  C   UNL     1      28.591  13.721  -1.192  0.00  0.00    +0.152 C 
BRANCH  22  23
ATOM     23  C   UNL     1      29.187  12.615  -0.297  0.00  0.00    +0.193 C 
ATOM     24  O   UNL     1      28.135  11.649  -0.076  0.00  0.00    -0.219 OA
BRANCH  23  25
ATOM     25  C   UNL     1      30.358  11.785  -0.869  0.00  0.00    +0.212 C 
ATOM     26  O   UNL     1      29.862  10.735  -1.716  0.00  0.00    -0.218 OA
BRANCH  25  27
ATOM     27  C   UNL     1      31.392  12.648  -1.689  0.00  0.00    +0.171 C 
ATOM     28  O   UNL     1      32.045  11.898  -2.707  0.00  0.00    -0.343 OA
ATOM     29  C   UNL     1      33.167  12.338  -3.413  0.00  0.00    +0.220 C 
ATOM     30  C   UNL     1      34.276  12.836  -2.469  0.00  0.00    +0.076 C 
ATOM     31  C   UNL     1      33.650  13.882  -1.532  0.00  0.00    +0.177 C 
ATOM     32  O   UNL     1      34.643  14.405  -0.662  0.00  0.00    -0.221 OA
ATOM     33  C   UNL     1      32.471  13.247  -0.729  0.00  0.00    +0.155 C 
BRANCH  33  34
ATOM     34  N   UNL     1      31.878  14.235   0.168  0.00  0.00    -0.202 NA
ATOM     35  C   UNL     1      31.841  14.264   1.524  0.00  0.00    +0.242 C 
ATOM     36  C   UNL     1      31.426  15.544   2.201  0.00  0.00    +0.096 C 
ATOM     37  O   UNL     1      32.145  13.258   2.162  0.00  0.00    -0.273 OA
ENDBRANCH  33  34
BRANCH  29  38
ATOM     38  C   UNL     1      32.821  13.436  -4.559  0.00  0.00    +0.391 C 
ATOM     39  O   UNL     1      31.693  12.986  -5.143  0.00  0.00    -0.243 OA
ATOM     40  O   UNL     1      33.591  14.499  -4.297  0.00  0.00    -0.243 OA
ENDBRANCH  29  38
ENDBRANCH  25  27
ENDBRANCH  23  25
ENDBRANCH  22  23
ENDBRANCH   2  22
TORSDOF 11
