REMARK VINA RESULT:    -5.661      3.565      9.560
REMARK INTER + INTRA:         -12.309
REMARK INTER:                 -10.766
REMARK INTRA:                  -1.543
REMARK UNBOUND:                -2.511
REMARK  Name = lig_assembled_1.pdb
REMARK  13 active torsions:
REMARK  status: ('A' for Active; 'I' for Inactive)
REMARK    1  A    between atoms: _2  and  _8
REMARK    2  A    between atoms: _4  and  _8
REMARK    3  A    between atoms: _4  and  _9
REMARK    4  A    between atoms: _5  and  _6
REMARK    5  A    between atoms: _5  and  _10
REMARK    6  A    between atoms: _10  and  _12
REMARK    7  A    between atoms: _11  and  _16
REMARK    8  A    between atoms: _12  and  _15
REMARK    9  A    between atoms: _20  and  _30
REMARK   10  A    between atoms: _22  and  _23
REMARK   11  A    between atoms: _24  and  _26
REMARK   12  A    between atoms: _26  and  _28
REMARK   13  A    between atoms: _28  and  _30
REMARK                            x       y       z     vdW  Elec       q    Type
REMARK                         _______ _______ _______ _____ _____    ______ ____
ROOT
ATOM      1  C   UNL     1      25.165  12.784  -0.671  0.00  0.00    +0.193 C 
ATOM      2  O   UNL     1      26.361  13.290  -1.305  0.00  0.00    -0.219 OA
ENDROOT
BRANCH   1   3
ATOM      3  C   UNL     1      24.335  12.193  -1.832  0.00  0.00    +0.212 C 
ATOM      4  O   UNL     1      23.914  10.856  -1.517  0.00  0.00    -0.218 OA
BRANCH   3   5
ATOM      5  C   UNL     1      23.062  13.051  -2.190  0.00  0.00    +0.171 C 
ATOM      6  O   UNL     1      21.851  12.313  -2.061  0.00  0.00    -0.343 OA
ATOM      7  C   UNL     1      20.612  12.744  -2.541  0.00  0.00    +0.220 C 
ATOM      8  C   UNL     1      20.692  13.183  -4.013  0.00  0.00    +0.076 C 
ATOM      9  C   UNL     1      21.824  14.216  -4.127  0.00  0.00    +0.177 C 
ATOM     10  O   UNL     1      21.915  14.686  -5.465  0.00  0.00    -0.221 OA
ATOM     11  C   UNL     1      23.173  13.591  -3.653  0.00  0.00    +0.155 C 
BRANCH  11  12
ATOM     12  N   UNL     1      24.253  14.568  -3.766  0.00  0.00    -0.202 NA
ATOM     13  C   UNL     1      25.366  14.544  -4.542  0.00  0.00    +0.242 C 
ATOM     14  C   UNL     1      26.165  15.813  -4.685  0.00  0.00    +0.096 C 
ATOM     15  O   UNL     1      25.694  13.501  -5.103  0.00  0.00    -0.273 OA
ENDBRANCH  11  12
BRANCH   7  16
ATOM     16  C   UNL     1      19.919  13.884  -1.614  0.00  0.00    +0.391 C 
ATOM     17  O   UNL     1      18.863  14.319  -2.329  0.00  0.00    -0.243 OA
ATOM     18  O   UNL     1      20.462  13.752  -0.398  0.00  0.00    -0.243 OA
ENDBRANCH   7  16
ENDBRANCH   3   5
ENDBRANCH   1   3
BRANCH   1  19
ATOM     19  C   UNL     1      25.627  11.820   0.441  0.00  0.00    +0.152 C 
BRANCH  19  21
ATOM     20  C   UNL     1      27.560  12.856   2.064  0.00  0.00    +0.400 C 
ATOM     21  N   UNL     1      26.360  12.423   1.551  0.00  0.00    -0.278 N 
ATOM     22  H   UNL     1      25.663  12.648   2.329  0.00  0.00    +0.152 HD
ATOM     23  O   UNL     1      27.543  13.510   3.104  0.00  0.00    -0.226 OA
BRANCH  20  24
ATOM     24  O   UNL     1      28.613  12.499   1.404  0.00  0.00    -0.450 OA
BRANCH  24  25
ATOM     25  C   UNL     1      29.971  12.854   1.286  0.00  0.00    +0.240 C 
BRANCH  25  26
ATOM     26  C   UNL     1      30.442  13.422  -0.066  0.00  0.00    +0.100 C 
BRANCH  26  28
ATOM     27  N   UNL     1      30.992  15.830  -0.244  0.00  0.00    -0.134 NA
ATOM     28  C   UNL     1      30.049  14.838  -0.193  0.00  0.00    +0.086 A 
ATOM     29  C   UNL     1      28.796  15.402  -0.278  0.00  0.00    +0.133 A 
ATOM     30  N   UNL     1      29.044  16.739  -0.371  0.00  0.00    -0.249 N 
ATOM     31  N   UNL     1      30.363  16.994  -0.347  0.00  0.00    -0.065 NA
BRANCH  30  32
ATOM     32  C   UNL     1      28.088  17.816  -0.494  0.00  0.00    +0.173 C 
BRANCH  32  33
ATOM     33  C   UNL     1      27.496  17.919  -1.894  0.00  0.00    +0.179 C 
BRANCH  33  34
ATOM     34  O   UNL     1      27.039  19.244  -2.163  0.00  0.00    -0.393 OA
ATOM     35  H   UNL     1      27.113  19.744  -1.328  0.00  0.00    +0.209 HD
ENDBRANCH  33  34
ENDBRANCH  32  33
ENDBRANCH  30  32
ENDBRANCH  26  28
ENDBRANCH  25  26
ENDBRANCH  24  25
ENDBRANCH  20  24
ENDBRANCH  19  21
ENDBRANCH   1  19
TORSDOF 13
