REMARK VINA RESULT:    -8.730      0.483      2.785
REMARK INTER + INTRA:         -16.111
REMARK INTER:                 -14.330
REMARK INTRA:                  -1.781
REMARK UNBOUND:                -1.768
REMARK  Name = lig_assembled_91.pdb
REMARK  11 active torsions:
REMARK  status: ('A' for Active; 'I' for Inactive)
REMARK    1  A    between atoms: _2  and  _9
REMARK    2  A    between atoms: _6  and  _7
REMARK    3  A    between atoms: _6  and  _21
REMARK    4  A    between atoms: _21  and  _23
REMARK    5  A    between atoms: _22  and  _27
REMARK    6  A    between atoms: _23  and  _26
REMARK    7  A    between atoms: _31  and  _41
REMARK    8  A    between atoms: _33  and  _34
REMARK    9  A    between atoms: _35  and  _37
REMARK   10  A    between atoms: _37  and  _39
REMARK   11  A    between atoms: _39  and  _41
REMARK                            x       y       z     vdW  Elec       q    Type
REMARK                         _______ _______ _______ _____ _____    ______ ____
ROOT
ATOM      1  C   UNL     1      28.076  17.233  -0.898  0.00  0.00    +0.400 C 
ATOM      2  N   UNL     1      28.527  16.260  -0.038  0.00  0.00    -0.278 N 
ATOM      3  H   UNL     1      29.036  16.816   0.720  0.00  0.00    +0.152 HD
ATOM      4  O   UNL     1      28.175  18.406  -0.547  0.00  0.00    -0.226 OA
ENDROOT
BRANCH   1   5
ATOM      5  O   UNL     1      27.610  16.810  -2.027  0.00  0.00    -0.450 OA
BRANCH   5   6
ATOM      6  C   UNL     1      26.895  17.300  -3.138  0.00  0.00    +0.240 C 
BRANCH   6   7
ATOM      7  C   UNL     1      26.637  16.325  -4.302  0.00  0.00    +0.100 C 
BRANCH   7   9
ATOM      8  N   UNL     1      25.423  14.189  -4.553  0.00  0.00    -0.134 NA
ATOM      9  C   UNL     1      25.514  15.423  -3.984  0.00  0.00    +0.086 A 
ATOM     10  C   UNL     1      24.449  15.597  -3.128  0.00  0.00    +0.139 A 
ATOM     11  N   UNL     1      23.693  14.447  -3.240  0.00  0.00    -0.219 N 
ATOM     12  N   UNL     1      24.325  13.606  -4.098  0.00  0.00    -0.060 NA
BRANCH  11  13
ATOM     13  C   UNL     1      22.451  14.109  -2.617  0.00  0.00    +0.085 A 
ATOM     14  C   UNL     1      21.212  14.624  -3.143  0.00  0.00    +0.026 A 
ATOM     15  C   UNL     1      20.051  14.249  -2.439  0.00  0.00    +0.074 A 
ATOM     16  C   UNL     1      18.800  14.684  -2.849  0.00  0.00    +0.028 A 
ATOM     17  C   UNL     1      18.625  15.494  -3.966  0.00  0.00    +0.002 A 
ATOM     18  C   UNL     1      19.731  15.857  -4.708  0.00  0.00    +0.001 A 
ATOM     19  N   UNL     1      20.054  13.455  -1.370  0.00  0.00    -0.247 NA
ATOM     20  C   UNL     1      21.200  12.959  -0.904  0.00  0.00    +0.074 A 
ATOM     21  C   UNL     1      21.087  12.143   0.217  0.00  0.00    +0.028 A 
ATOM     22  C   UNL     1      22.196  11.581   0.841  0.00  0.00    +0.002 A 
ATOM     23  C   UNL     1      23.455  11.850   0.339  0.00  0.00    +0.001 A 
ATOM     24  C   UNL     1      23.584  12.673  -0.785  0.00  0.00    +0.012 A 
ATOM     25  C   UNL     1      20.999  15.412  -4.318  0.00  0.00    +0.012 A 
ATOM     26  C   UNL     1      22.457  13.243  -1.461  0.00  0.00    +0.026 A 
ENDBRANCH  11  13
ENDBRANCH   7   9
ENDBRANCH   6   7
ENDBRANCH   5   6
ENDBRANCH   1   5
BRANCH   2  27
ATOM     27  C   UNL     1      28.609  14.842   0.304  0.00  0.00    +0.152 C 
BRANCH  27  28
ATOM     28  C   UNL     1      29.952  14.146   0.000  0.00  0.00    +0.193 C 
ATOM     29  O   UNL     1      30.046  14.035  -1.437  0.00  0.00    -0.219 OA
BRANCH  28  30
ATOM     30  C   UNL     1      31.246  14.878   0.416  0.00  0.00    +0.212 C 
ATOM     31  O   UNL     1      30.938  16.016   1.237  0.00  0.00    -0.218 OA
BRANCH  30  32
ATOM     32  C   UNL     1      32.262  13.957   1.194  0.00  0.00    +0.171 C 
ATOM     33  O   UNL     1      32.566  14.452   2.494  0.00  0.00    -0.343 OA
ATOM     34  C   UNL     1      33.606  13.975   3.296  0.00  0.00    +0.220 C 
ATOM     35  C   UNL     1      34.941  13.930   2.531  0.00  0.00    +0.076 C 
ATOM     36  C   UNL     1      34.705  13.136   1.236  0.00  0.00    +0.177 C 
ATOM     37  O   UNL     1      35.921  13.029   0.508  0.00  0.00    -0.221 OA
ATOM     38  C   UNL     1      33.591  13.817   0.382  0.00  0.00    +0.155 C 
BRANCH  38  39
ATOM     39  N   UNL     1      33.369  13.069  -0.853  0.00  0.00    -0.202 NA
ATOM     40  C   UNL     1      33.412  13.490  -2.142  0.00  0.00    +0.242 C 
ATOM     41  C   UNL     1      33.437  12.452  -3.234  0.00  0.00    +0.096 C 
ATOM     42  O   UNL     1      33.431  14.695  -2.388  0.00  0.00    -0.273 OA
ENDBRANCH  38  39
BRANCH  34  43
ATOM     43  C   UNL     1      33.276  12.552   4.005  0.00  0.00    +0.391 C 
ATOM     44  O   UNL     1      34.463  12.108   4.463  0.00  0.00    -0.243 OA
ATOM     45  O   UNL     1      31.945  12.502   4.134  0.00  0.00    -0.243 OA
ENDBRANCH  34  43
ENDBRANCH  30  32
ENDBRANCH  28  30
ENDBRANCH  27  28
ENDBRANCH   2  27
TORSDOF 11
