REMARK VINA RESULT:    -6.912      0.906      1.465
REMARK INTER + INTRA:         -12.741
REMARK INTER:                 -11.509
REMARK INTRA:                  -1.232
REMARK UNBOUND:                -1.385
REMARK  Name = lig_assembled_56.pdb
REMARK  11 active torsions:
REMARK  status: ('A' for Active; 'I' for Inactive)
REMARK    1  A    between atoms: _2  and  _9
REMARK    2  A    between atoms: _6  and  _7
REMARK    3  A    between atoms: _6  and  _13
REMARK    4  A    between atoms: _13  and  _15
REMARK    5  A    between atoms: _14  and  _19
REMARK    6  A    between atoms: _15  and  _18
REMARK    7  A    between atoms: _23  and  _33
REMARK    8  A    between atoms: _25  and  _26
REMARK    9  A    between atoms: _27  and  _29
REMARK   10  A    between atoms: _29  and  _31
REMARK   11  A    between atoms: _31  and  _33
REMARK                            x       y       z     vdW  Elec       q    Type
REMARK                         _______ _______ _______ _____ _____    ______ ____
ROOT
ATOM      1  C   UNL     1      29.062  15.143  -0.341  0.00  0.00    +0.152 C 
ENDROOT
BRANCH   1   3
ATOM      2  C   UNL     1      27.843  17.514  -0.920  0.00  0.00    +0.400 C 
ATOM      3  N   UNL     1      28.509  16.494  -0.284  0.00  0.00    -0.278 N 
ATOM      4  H   UNL     1      28.681  16.884   0.696  0.00  0.00    +0.152 HD
ATOM      5  O   UNL     1      27.461  18.466  -0.244  0.00  0.00    -0.226 OA
BRANCH   2   6
ATOM      6  O   UNL     1      27.708  17.383  -2.199  0.00  0.00    -0.450 OA
BRANCH   6   7
ATOM      7  C   UNL     1      26.721  17.546  -3.191  0.00  0.00    +0.240 C 
BRANCH   7   8
ATOM      8  C   UNL     1      26.422  16.339  -4.101  0.00  0.00    +0.100 C 
BRANCH   8  10
ATOM      9  N   UNL     1      26.252  14.102  -3.060  0.00  0.00    -0.134 NA
ATOM     10  C   UNL     1      25.680  15.306  -3.355  0.00  0.00    +0.086 A 
ATOM     11  C   UNL     1      24.401  15.333  -2.849  0.00  0.00    +0.139 A 
ATOM     12  N   UNL     1      24.238  14.114  -2.231  0.00  0.00    -0.220 N 
ATOM     13  N   UNL     1      25.368  13.382  -2.381  0.00  0.00    -0.061 NA
BRANCH  12  14
ATOM     14  C   UNL     1      23.116  13.622  -1.520  0.00  0.00    +0.070 A 
ATOM     15  C   UNL     1      23.238  12.549  -0.635  0.00  0.00    +0.047 A 
ATOM     16  C   UNL     1      22.096  12.108   0.015  0.00  0.00    +0.113 A 
ATOM     17  N   UNL     1      20.875  12.656  -0.155  0.00  0.00    -0.263 NA
ATOM     18  C   UNL     1      20.785  13.694  -1.013  0.00  0.00    +0.113 A 
ATOM     19  C   UNL     1      21.861  14.210  -1.713  0.00  0.00    +0.047 A 
ENDBRANCH  12  14
ENDBRANCH   8  10
ENDBRANCH   7   8
ENDBRANCH   6   7
ENDBRANCH   2   6
ENDBRANCH   1   3
BRANCH   1  20
ATOM     20  C   UNL     1      30.392  14.920   0.409  0.00  0.00    +0.193 C 
ATOM     21  O   UNL     1      30.866  16.225   0.809  0.00  0.00    -0.219 OA
BRANCH  20  22
ATOM     22  C   UNL     1      30.344  14.108   1.722  0.00  0.00    +0.212 C 
ATOM     23  O   UNL     1      29.369  13.058   1.628  0.00  0.00    -0.218 OA
BRANCH  22  24
ATOM     24  C   UNL     1      31.733  13.473   2.113  0.00  0.00    +0.171 C 
ATOM     25  O   UNL     1      32.506  14.322   2.955  0.00  0.00    -0.343 OA
ATOM     26  C   UNL     1      33.856  14.120   3.251  0.00  0.00    +0.220 C 
ATOM     27  C   UNL     1      34.693  13.902   1.978  0.00  0.00    +0.076 C 
ATOM     28  C   UNL     1      34.029  12.769   1.178  0.00  0.00    +0.177 C 
ATOM     29  O   UNL     1      34.787  12.498   0.007  0.00  0.00    -0.221 OA
ATOM     30  C   UNL     1      32.558  13.150   0.825  0.00  0.00    +0.155 C 
BRANCH  30  31
ATOM     31  N   UNL     1      31.926  12.079   0.058  0.00  0.00    -0.202 NA
ATOM     32  C   UNL     1      31.721  11.974  -1.279  0.00  0.00    +0.242 C 
ATOM     33  C   UNL     1      31.314  10.635  -1.837  0.00  0.00    +0.096 C 
ATOM     34  O   UNL     1      31.872  12.961  -1.997  0.00  0.00    -0.273 OA
ENDBRANCH  30  31
BRANCH  26  35
ATOM     35  C   UNL     1      34.111  12.944   4.342  0.00  0.00    +0.391 C 
ATOM     36  O   UNL     1      35.432  12.685   4.271  0.00  0.00    -0.243 OA
ATOM     37  O   UNL     1      33.005  12.891   5.094  0.00  0.00    -0.243 OA
ENDBRANCH  26  35
ENDBRANCH  22  24
ENDBRANCH  20  22
ENDBRANCH   1  20
TORSDOF 11
