REMARK VINA RESULT:    -6.575      2.089      3.053
REMARK INTER + INTRA:         -13.919
REMARK INTER:                 -11.907
REMARK INTRA:                  -2.012
REMARK UNBOUND:                -2.732
REMARK  Name = lig_assembled_85.pdb
REMARK  14 active torsions:
REMARK  status: ('A' for Active; 'I' for Inactive)
REMARK    1  A    between atoms: _2  and  _9
REMARK    2  A    between atoms: _3  and  _5
REMARK    3  A    between atoms: _3  and  _16
REMARK    4  A    between atoms: _6  and  _7
REMARK    5  A    between atoms: _6  and  _18
REMARK    6  A    between atoms: _14  and  _15
REMARK    7  A    between atoms: _18  and  _20
REMARK    8  A    between atoms: _19  and  _24
REMARK    9  A    between atoms: _20  and  _23
REMARK   10  A    between atoms: _28  and  _38
REMARK   11  A    between atoms: _30  and  _31
REMARK   12  A    between atoms: _32  and  _34
REMARK   13  A    between atoms: _34  and  _36
REMARK   14  A    between atoms: _36  and  _38
REMARK                            x       y       z     vdW  Elec       q    Type
REMARK                         _______ _______ _______ _____ _____    ______ ____
ROOT
ATOM      1  C   UNL     1      26.659  12.751  -0.261  0.00  0.00    +0.400 C 
ATOM      2  N   UNL     1      27.584  13.330   0.575  0.00  0.00    -0.278 N 
ATOM      3  H   UNL     1      27.689  12.613   1.361  0.00  0.00    +0.152 HD
ATOM      4  O   UNL     1      26.337  11.584  -0.050  0.00  0.00    -0.226 OA
ENDROOT
BRANCH   2   5
ATOM      5  C   UNL     1      28.476  14.451   0.857  0.00  0.00    +0.152 C 
BRANCH   5   6
ATOM      6  C   UNL     1      29.389  14.901  -0.301  0.00  0.00    +0.193 C 
ATOM      7  O   UNL     1      28.779  16.076  -0.880  0.00  0.00    -0.219 OA
BRANCH   6   8
ATOM      8  C   UNL     1      30.825  15.348   0.053  0.00  0.00    +0.212 C 
ATOM      9  O   UNL     1      30.804  16.618   0.725  0.00  0.00    -0.218 OA
BRANCH   8  10
ATOM     10  C   UNL     1      31.597  14.312   0.956  0.00  0.00    +0.171 C 
ATOM     11  O   UNL     1      31.835  14.803   2.271  0.00  0.00    -0.343 OA
ATOM     12  C   UNL     1      32.698  14.203   3.192  0.00  0.00    +0.220 C 
ATOM     13  C   UNL     1      34.082  13.927   2.580  0.00  0.00    +0.076 C 
ATOM     14  C   UNL     1      33.864  13.130   1.283  0.00  0.00    +0.177 C 
ATOM     15  O   UNL     1      35.119  12.813   0.696  0.00  0.00    -0.221 OA
ATOM     16  C   UNL     1      32.966  13.942   0.298  0.00  0.00    +0.155 C 
BRANCH  16  17
ATOM     17  N   UNL     1      32.763  13.191  -0.938  0.00  0.00    -0.202 NA
ATOM     18  C   UNL     1      33.071  13.525  -2.217  0.00  0.00    +0.242 C 
ATOM     19  C   UNL     1      33.024  12.448  -3.269  0.00  0.00    +0.096 C 
ATOM     20  O   UNL     1      33.379  14.685  -2.485  0.00  0.00    -0.273 OA
ENDBRANCH  16  17
BRANCH  12  21
ATOM     21  C   UNL     1      32.077  12.874   3.889  0.00  0.00    +0.391 C 
ATOM     22  O   UNL     1      33.091  12.354   4.608  0.00  0.00    -0.243 OA
ATOM     23  O   UNL     1      30.750  12.962   3.738  0.00  0.00    -0.243 OA
ENDBRANCH  12  21
ENDBRANCH   8  10
ENDBRANCH   6   8
ENDBRANCH   5   6
ENDBRANCH   2   5
BRANCH   1  24
ATOM     24  O   UNL     1      26.186  13.517  -1.189  0.00  0.00    -0.450 OA
BRANCH  24  25
ATOM     25  C   UNL     1      26.479  13.898  -2.513  0.00  0.00    +0.240 C 
BRANCH  25  26
ATOM     26  C   UNL     1      25.962  15.268  -2.989  0.00  0.00    +0.100 C 
BRANCH  26  28
ATOM     27  N   UNL     1      24.210  14.560  -4.577  0.00  0.00    -0.134 NA
ATOM     28  C   UNL     1      24.553  15.166  -3.402  0.00  0.00    +0.086 A 
ATOM     29  C   UNL     1      23.409  15.559  -2.742  0.00  0.00    +0.139 A 
ATOM     30  N   UNL     1      22.381  15.161  -3.561  0.00  0.00    -0.219 N 
ATOM     31  N   UNL     1      22.887  14.537  -4.651  0.00  0.00    -0.061 NA
BRANCH  30  32
ATOM     32  C   UNL     1      20.987  15.238  -3.355  0.00  0.00    +0.080 A 
ATOM     33  C   UNL     1      20.251  14.327  -2.581  0.00  0.00    +0.062 A 
ATOM     34  C   UNL     1      18.841  14.381  -2.668  0.00  0.00    +0.016 A 
ATOM     35  C   UNL     1      18.183  15.319  -3.471  0.00  0.00    +0.021 A 
ATOM     36  C   UNL     1      18.927  16.257  -4.171  0.00  0.00    +0.043 A 
ATOM     37 CL   UNL     1      18.138  17.394  -5.191  0.00  0.00    -0.083 Cl
ATOM     38  C   UNL     1      20.317  16.239  -4.096  0.00  0.00    +0.048 A 
BRANCH  33  39
ATOM     39  C   UNL     1      20.756  13.225  -1.710  0.00  0.00    +0.248 C 
ATOM     40  O   UNL     1      20.786  13.485  -0.504  0.00  0.00    -0.270 OA
ATOM     41  N   UNL     1      21.232  12.002  -2.196  0.00  0.00    -0.304 N 
ATOM     42  C   UNL     1      21.152  11.489  -3.557  0.00  0.00    +0.132 C 
ATOM     43  C   UNL     1      21.698  11.044  -1.198  0.00  0.00    +0.132 C 
ENDBRANCH  33  39
ENDBRANCH  30  32
ENDBRANCH  26  28
ENDBRANCH  25  26
ENDBRANCH  24  25
ENDBRANCH   1  24
TORSDOF 12
