REMARK VINA RESULT:    -7.710      1.853      3.108
REMARK INTER + INTRA:         -15.049
REMARK INTER:                 -12.857
REMARK INTRA:                  -2.192
REMARK UNBOUND:                -1.480
REMARK  Name = lig_assembled_58.pdb
REMARK  13 active torsions:
REMARK  status: ('A' for Active; 'I' for Inactive)
REMARK    1  A    between atoms: _2  and  _8
REMARK    2  A    between atoms: _5  and  _6
REMARK    3  A    between atoms: _5  and  _20
REMARK    4  A    between atoms: _8  and  _9
REMARK    5  A    between atoms: _8  and  _15
REMARK    6  A    between atoms: _20  and  _22
REMARK    7  A    between atoms: _21  and  _26
REMARK    8  A    between atoms: _22  and  _25
REMARK    9  A    between atoms: _30  and  _40
REMARK   10  A    between atoms: _32  and  _33
REMARK   11  A    between atoms: _34  and  _36
REMARK   12  A    between atoms: _36  and  _38
REMARK   13  A    between atoms: _38  and  _40
REMARK                            x       y       z     vdW  Elec       q    Type
REMARK                         _______ _______ _______ _____ _____    ______ ____
ROOT
ATOM      1  C   UNL     1      28.554  17.081  -0.686  0.00  0.00    +0.400 C 
ATOM      2  N   UNL     1      29.332  16.045  -0.226  0.00  0.00    -0.278 N 
ATOM      3  H   UNL     1      29.834  16.469   0.617  0.00  0.00    +0.152 HD
ATOM      4  O   UNL     1      28.467  18.092   0.006  0.00  0.00    -0.226 OA
ENDROOT
BRANCH   2   5
ATOM      5  C   UNL     1      29.758  14.654  -0.359  0.00  0.00    +0.152 C 
BRANCH   5   6
ATOM      6  C   UNL     1      31.262  14.382  -0.155  0.00  0.00    +0.193 C 
ATOM      7  O   UNL     1      31.972  15.442  -0.831  0.00  0.00    -0.219 OA
BRANCH   6   8
ATOM      8  C   UNL     1      31.805  14.416   1.291  0.00  0.00    +0.212 C 
ATOM      9  O   UNL     1      31.290  15.558   1.994  0.00  0.00    -0.218 OA
BRANCH   8  10
ATOM     10  C   UNL     1      31.460  13.118   2.118  0.00  0.00    +0.171 C 
ATOM     11  O   UNL     1      30.080  13.036   2.458  0.00  0.00    -0.343 OA
ATOM     12  C   UNL     1      29.548  12.132   3.381  0.00  0.00    +0.220 C 
ATOM     13  C   UNL     1      30.317  12.159   4.713  0.00  0.00    +0.076 C 
ATOM     14  C   UNL     1      31.807  11.955   4.392  0.00  0.00    +0.177 C 
ATOM     15  O   UNL     1      32.560  11.932   5.596  0.00  0.00    -0.221 OA
ATOM     16  C   UNL     1      32.308  13.078   3.431  0.00  0.00    +0.155 C 
BRANCH  16  17
ATOM     17  N   UNL     1      33.725  12.891   3.129  0.00  0.00    -0.202 NA
ATOM     18  C   UNL     1      34.782  13.703   3.389  0.00  0.00    +0.242 C 
ATOM     19  C   UNL     1      36.171  13.139   3.237  0.00  0.00    +0.096 C 
ATOM     20  O   UNL     1      34.584  14.864   3.740  0.00  0.00    -0.273 OA
ENDBRANCH  16  17
BRANCH  12  21
ATOM     21  C   UNL     1      29.411  10.621   2.801  0.00  0.00    +0.391 C 
ATOM     22  O   UNL     1      29.103   9.864   3.873  0.00  0.00    -0.243 OA
ATOM     23  O   UNL     1      29.355  10.739   1.469  0.00  0.00    -0.243 OA
ENDBRANCH  12  21
ENDBRANCH   8  10
ENDBRANCH   6   8
ENDBRANCH   5   6
ENDBRANCH   2   5
BRANCH   1  24
ATOM     24  O   UNL     1      28.004  16.897  -1.841  0.00  0.00    -0.450 OA
BRANCH  24  25
ATOM     25  C   UNL     1      26.795  17.182  -2.506  0.00  0.00    +0.240 C 
BRANCH  25  26
ATOM     26  C   UNL     1      26.565  16.519  -3.878  0.00  0.00    +0.100 C 
BRANCH  26  28
ATOM     27  N   UNL     1      26.499  14.064  -4.258  0.00  0.00    -0.134 NA
ATOM     28  C   UNL     1      25.950  15.189  -3.706  0.00  0.00    +0.086 A 
ATOM     29  C   UNL     1      24.829  14.836  -2.992  0.00  0.00    +0.134 A 
ATOM     30  N   UNL     1      24.833  13.468  -3.014  0.00  0.00    -0.240 N 
ATOM     31  N   UNL     1      25.797  13.015  -3.846  0.00  0.00    -0.065 NA
BRANCH  30  32
ATOM     32  C   UNL     1      23.995  12.517  -2.259  0.00  0.00    +0.169 C 
BRANCH  32  33
ATOM     33  C   UNL     1      22.516  12.928  -2.222  0.00  0.00    -0.019 A 
ATOM     34  C   UNL     1      21.941  13.474  -1.059  0.00  0.00    +0.006 A 
ATOM     35  C   UNL     1      20.593  13.844  -1.030  0.00  0.00    +0.000 A 
ATOM     36  C   UNL     1      19.804  13.700  -2.166  0.00  0.00    +0.000 A 
ATOM     37  C   UNL     1      20.363  13.215  -3.341  0.00  0.00    +0.000 A 
ATOM     38  C   UNL     1      21.709  12.852  -3.374  0.00  0.00    +0.006 A 
ENDBRANCH  32  33
BRANCH  32  39
ATOM     39  C   UNL     1      24.623  12.242  -0.886  0.00  0.00    -0.019 A 
ATOM     40  C   UNL     1      25.851  12.833  -0.539  0.00  0.00    +0.006 A 
ATOM     41  C   UNL     1      26.460  12.543   0.684  0.00  0.00    +0.000 A 
ATOM     42  C   UNL     1      25.849  11.674   1.586  0.00  0.00    +0.000 A 
ATOM     43  C   UNL     1      24.637  11.078   1.262  0.00  0.00    +0.000 A 
ATOM     44  C   UNL     1      24.037  11.350   0.033  0.00  0.00    +0.006 A 
ENDBRANCH  32  39
ENDBRANCH  30  32
ENDBRANCH  26  28
ENDBRANCH  25  26
ENDBRANCH  24  25
ENDBRANCH   1  24
TORSDOF 13
