REMARK VINA RESULT:    -6.778      2.320      9.148
REMARK INTER + INTRA:         -15.896
REMARK INTER:                 -13.409
REMARK INTRA:                  -2.487
REMARK UNBOUND:                -2.580
REMARK  Name = lig_assembled_90.pdb
REMARK  17 active torsions:
REMARK  status: ('A' for Active; 'I' for Inactive)
REMARK    1  A    between atoms: _2  and  _12
REMARK    2  A    between atoms: _3  and  _14
REMARK    3  A    between atoms: _4  and  _16
REMARK    4  A    between atoms: _9  and  _10
REMARK    5  A    between atoms: _9  and  _23
REMARK    6  A    between atoms: _12  and  _13
REMARK    7  A    between atoms: _14  and  _15
REMARK    8  A    between atoms: _15  and  _16
REMARK    9  A    between atoms: _15  and  _21
REMARK   10  A    between atoms: _23  and  _25
REMARK   11  A    between atoms: _24  and  _29
REMARK   12  A    between atoms: _25  and  _28
REMARK   13  A    between atoms: _33  and  _43
REMARK   14  A    between atoms: _35  and  _36
REMARK   15  A    between atoms: _37  and  _39
REMARK   16  A    between atoms: _39  and  _41
REMARK   17  A    between atoms: _41  and  _43
REMARK                            x       y       z     vdW  Elec       q    Type
REMARK                         _______ _______ _______ _____ _____    ______ ____
ROOT
ATOM      1  C   UNL     1      26.668  16.762  -3.602  0.00  0.00    +0.240 C 
ENDROOT
BRANCH   1   2
ATOM      2  O   UNL     1      27.090  16.646  -2.263  0.00  0.00    -0.450 OA
BRANCH   2   3
ATOM      3  C   UNL     1      27.761  17.317  -1.385  0.00  0.00    +0.400 C 
ATOM      4  N   UNL     1      28.688  16.598  -0.667  0.00  0.00    -0.278 N 
ATOM      5  H   UNL     1      29.249  17.354  -0.161  0.00  0.00    +0.152 HD
ATOM      6  O   UNL     1      27.664  18.521  -1.163  0.00  0.00    -0.226 OA
BRANCH   4   7
ATOM      7  C   UNL     1      29.228  15.296  -0.284  0.00  0.00    +0.152 C 
BRANCH   7   8
ATOM      8  C   UNL     1      30.548  15.315   0.513  0.00  0.00    +0.193 C 
ATOM      9  O   UNL     1      30.841  16.701   0.798  0.00  0.00    -0.219 OA
BRANCH   8  10
ATOM     10  C   UNL     1      30.559  14.626   1.895  0.00  0.00    +0.212 C 
ATOM     11  O   UNL     1      29.466  13.700   2.003  0.00  0.00    -0.218 OA
BRANCH  10  12
ATOM     12  C   UNL     1      31.902  13.858   2.199  0.00  0.00    +0.171 C 
ATOM     13  O   UNL     1      32.759  14.580   3.077  0.00  0.00    -0.343 OA
ATOM     14  C   UNL     1      34.096  14.254   3.318  0.00  0.00    +0.220 C 
ATOM     15  C   UNL     1      34.882  14.066   2.009  0.00  0.00    +0.076 C 
ATOM     16  C   UNL     1      34.113  13.050   1.149  0.00  0.00    +0.177 C 
ATOM     17  O   UNL     1      34.820  12.809  -0.060  0.00  0.00    -0.221 OA
ATOM     18  C   UNL     1      32.668  13.569   0.867  0.00  0.00    +0.155 C 
BRANCH  18  19
ATOM     19  N   UNL     1      31.936  12.609   0.044  0.00  0.00    -0.202 NA
ATOM     20  C   UNL     1      31.740  12.590  -1.299  0.00  0.00    +0.242 C 
ATOM     21  C   UNL     1      31.199  11.331  -1.925  0.00  0.00    +0.096 C 
ATOM     22  O   UNL     1      32.006  13.587  -1.966  0.00  0.00    -0.273 OA
ENDBRANCH  18  19
BRANCH  14  23
ATOM     23  C   UNL     1      34.282  12.984   4.314  0.00  0.00    +0.391 C 
ATOM     24  O   UNL     1      35.567  12.608   4.161  0.00  0.00    -0.243 OA
ATOM     25  O   UNL     1      33.210  12.981   5.114  0.00  0.00    -0.243 OA
ENDBRANCH  14  23
ENDBRANCH  10  12
ENDBRANCH   8  10
ENDBRANCH   7   8
ENDBRANCH   4   7
ENDBRANCH   2   3
ENDBRANCH   1   2
BRANCH   1  26
ATOM     26  C   UNL     1      26.318  15.463  -4.352  0.00  0.00    +0.100 C 
BRANCH  26  28
ATOM     27  N   UNL     1      24.165  14.567  -5.193  0.00  0.00    -0.134 NA
ATOM     28  C   UNL     1      24.890  15.137  -4.179  0.00  0.00    +0.086 A 
ATOM     29  C   UNL     1      24.071  15.316  -3.087  0.00  0.00    +0.134 A 
ATOM     30  N   UNL     1      22.870  14.816  -3.491  0.00  0.00    -0.243 N 
ATOM     31  N   UNL     1      22.923  14.384  -4.763  0.00  0.00    -0.065 NA
BRANCH  30  32
ATOM     32  C   UNL     1      21.616  14.813  -2.775  0.00  0.00    +0.240 C 
BRANCH  32  33
ATOM     33  C   UNL     1      21.312  13.447  -2.203  0.00  0.00    +0.235 C 
ATOM     34  O   UNL     1      20.967  12.497  -2.904  0.00  0.00    -0.274 OA
ATOM     35  N   UNL     1      21.503  13.323  -0.840  0.00  0.00    -0.311 N 
ATOM     36  H   UNL     1      21.515  14.167  -0.271  0.00  0.00    +0.149 HD
BRANCH  35  37
ATOM     37  C   UNL     1      21.164  12.083  -0.156  0.00  0.00    +0.137 C 
BRANCH  37  38
ATOM     38  C   UNL     1      22.128  11.811   1.008  0.00  0.00    +0.151 C 
BRANCH  38  39
ATOM     39  O   UNL     1      21.388  11.232   2.090  0.00  0.00    -0.388 OA
ATOM     40  H   UNL     1      21.863  11.403   2.928  0.00  0.00    +0.210 HD
ENDBRANCH  38  39
BRANCH  38  41
ATOM     41  C   UNL     1      23.290  10.904   0.583  0.00  0.00    +0.162 C 
BRANCH  41  42
ATOM     42  N   UNL     1      24.580  11.401   1.039  0.00  0.00    -0.269 N 
ATOM     43  C   UNL     1      25.059  11.187   2.313  0.00  0.00    +0.113 A 
ATOM     44  C   UNL     1      26.268  11.838   2.372  0.00  0.00    +0.137 A 
ATOM     45  N   UNL     1      26.547  12.447   1.177  0.00  0.00    -0.172 NA
ATOM     46  C   UNL     1      25.523  12.159   0.389  0.00  0.00    +0.450 A 
ATOM     47  N   UNL     1      25.447  12.618  -0.977  0.00  0.00    +0.120 N 
ATOM     48  O   UNL     1      24.504  12.210  -1.670  0.00  0.00    +0.045 OA
ATOM     49  O   UNL     1      26.325  13.401  -1.363  0.00  0.00    -0.573 OA
ENDBRANCH  41  42
ENDBRANCH  38  41
ENDBRANCH  37  38
ENDBRANCH  35  37
ENDBRANCH  32  33
ENDBRANCH  30  32
ENDBRANCH  26  28
ENDBRANCH   1  26
TORSDOF 17
