REMARK VINA RESULT:    -6.659      3.651      9.433
REMARK INTER + INTRA:         -13.904
REMARK INTER:                 -12.032
REMARK INTRA:                  -1.871
REMARK UNBOUND:                -1.794
REMARK  Name = lig_assembled_18.pdb
REMARK  14 active torsions:
REMARK  status: ('A' for Active; 'I' for Inactive)
REMARK    1  A    between atoms: _2  and  _9
REMARK    2  A    between atoms: _3  and  _11
REMARK    3  A    between atoms: _6  and  _7
REMARK    4  A    between atoms: _6  and  _16
REMARK    5  A    between atoms: _9  and  _10
REMARK    6  A    between atoms: _11  and  _12
REMARK    7  A    between atoms: _16  and  _18
REMARK    8  A    between atoms: _17  and  _22
REMARK    9  A    between atoms: _18  and  _21
REMARK   10  A    between atoms: _26  and  _36
REMARK   11  A    between atoms: _28  and  _29
REMARK   12  A    between atoms: _30  and  _32
REMARK   13  A    between atoms: _32  and  _34
REMARK   14  A    between atoms: _34  and  _36
REMARK                            x       y       z     vdW  Elec       q    Type
REMARK                         _______ _______ _______ _____ _____    ______ ____
ROOT
ATOM      1  C   UNL     1      28.281  17.263  -0.627  0.00  0.00    +0.400 C 
ATOM      2  N   UNL     1      27.370  16.685  -1.480  0.00  0.00    -0.278 N 
ATOM      3  H   UNL     1      26.431  17.052  -1.124  0.00  0.00    +0.152 HD
ATOM      4  O   UNL     1      27.882  18.129   0.147  0.00  0.00    -0.226 OA
ENDROOT
BRANCH   2   5
ATOM      5  C   UNL     1      27.116  15.828  -2.635  0.00  0.00    +0.152 C 
BRANCH   5   6
ATOM      6  C   UNL     1      25.668  15.813  -3.166  0.00  0.00    +0.193 C 
ATOM      7  O   UNL     1      25.744  16.058  -4.588  0.00  0.00    -0.219 OA
BRANCH   6   8
ATOM      8  C   UNL     1      24.875  14.493  -3.044  0.00  0.00    +0.212 C 
ATOM      9  O   UNL     1      25.186  13.618  -4.140  0.00  0.00    -0.218 OA
BRANCH   8  10
ATOM     10  C   UNL     1      25.144  13.726  -1.694  0.00  0.00    +0.171 C 
ATOM     11  O   UNL     1      26.401  13.057  -1.685  0.00  0.00    -0.343 OA
ATOM     12  C   UNL     1      26.786  12.114  -0.729  0.00  0.00    +0.220 C 
ATOM     13  C   UNL     1      25.718  11.022  -0.543  0.00  0.00    +0.076 C 
ATOM     14  C   UNL     1      24.382  11.726  -0.256  0.00  0.00    +0.177 C 
ATOM     15  O   UNL     1      23.365  10.759  -0.036  0.00  0.00    -0.221 OA
ATOM     16  C   UNL     1      24.012  12.678  -1.436  0.00  0.00    +0.155 C 
BRANCH  16  17
ATOM     17  N   UNL     1      22.739  13.344  -1.172  0.00  0.00    -0.202 NA
ATOM     18  C   UNL     1      21.566  13.274  -1.850  0.00  0.00    +0.242 C 
ATOM     19  C   UNL     1      20.327  13.828  -1.196  0.00  0.00    +0.096 C 
ATOM     20  O   UNL     1      21.540  12.765  -2.969  0.00  0.00    -0.273 OA
ENDBRANCH  16  17
BRANCH  12  21
ATOM     21  C   UNL     1      27.220  12.773   0.691  0.00  0.00    +0.391 C 
ATOM     22  O   UNL     1      27.157  11.761   1.578  0.00  0.00    -0.243 OA
ATOM     23  O   UNL     1      27.756  13.964   0.398  0.00  0.00    -0.243 OA
ENDBRANCH  12  21
ENDBRANCH   8  10
ENDBRANCH   6   8
ENDBRANCH   5   6
ENDBRANCH   2   5
BRANCH   1  24
ATOM     24  O   UNL     1      29.488  16.806  -0.705  0.00  0.00    -0.450 OA
BRANCH  24  25
ATOM     25  C   UNL     1      30.541  16.421   0.148  0.00  0.00    +0.240 C 
BRANCH  25  26
ATOM     26  C   UNL     1      31.132  15.012  -0.044  0.00  0.00    +0.100 C 
BRANCH  26  28
ATOM     27  N   UNL     1      30.444  14.097   2.155  0.00  0.00    -0.134 NA
ATOM     28  C   UNL     1      31.439  14.402   1.263  0.00  0.00    +0.086 A 
ATOM     29  C   UNL     1      32.653  14.052   1.809  0.00  0.00    +0.134 A 
ATOM     30  N   UNL     1      32.330  13.513   3.018  0.00  0.00    -0.243 N 
ATOM     31  N   UNL     1      31.003  13.562   3.233  0.00  0.00    -0.065 NA
BRANCH  30  32
ATOM     32  C   UNL     1      33.212  13.048   4.064  0.00  0.00    +0.240 C 
BRANCH  32  33
ATOM     33  C   UNL     1      32.549  12.028   4.959  0.00  0.00    +0.235 C 
ATOM     34  O   UNL     1      32.786  10.824   4.871  0.00  0.00    -0.274 OA
ATOM     35  N   UNL     1      31.704  12.550   5.919  0.00  0.00    -0.309 N 
ATOM     36  H   UNL     1      31.403  13.513   5.862  0.00  0.00    +0.149 HD
BRANCH  35  37
ATOM     37  C   UNL     1      31.009  11.696   6.860  0.00  0.00    +0.146 C 
BRANCH  37  38
ATOM     38  C   UNL     1      31.324  12.126   8.257  0.00  0.00    +0.007 A 
ATOM     39  S   UNL     1      32.913  11.978   8.879  0.00  0.00    -0.100 S 
ATOM     40  C   UNL     1      32.437  12.572  10.412  0.00  0.00    +0.045 A 
ATOM     41  C   UNL     1      31.098  12.893  10.450  0.00  0.00    +0.008 A 
ATOM     42  C   UNL     1      30.457  12.642   9.202  0.00  0.00    +0.013 A 
ENDBRANCH  37  38
ENDBRANCH  35  37
ENDBRANCH  32  33
ENDBRANCH  30  32
ENDBRANCH  26  28
ENDBRANCH  25  26
ENDBRANCH  24  25
ENDBRANCH   1  24
TORSDOF 14
