REMARK VINA RESULT:    -7.411      4.196      6.238
REMARK INTER + INTRA:         -15.236
REMARK INTER:                 -13.439
REMARK INTRA:                  -1.796
REMARK UNBOUND:                -1.975
REMARK  Name = lig_assembled_77.pdb
REMARK  14 active torsions:
REMARK  status: ('A' for Active; 'I' for Inactive)
REMARK    1  A    between atoms: _2  and  _9
REMARK    2  A    between atoms: _3  and  _16
REMARK    3  A    between atoms: _6  and  _7
REMARK    4  A    between atoms: _6  and  _22
REMARK    5  A    between atoms: _12  and  _50
REMARK    6  A    between atoms: _13  and  _50
REMARK    7  A    between atoms: _22  and  _24
REMARK    8  A    between atoms: _23  and  _28
REMARK    9  A    between atoms: _24  and  _27
REMARK   10  A    between atoms: _32  and  _42
REMARK   11  A    between atoms: _34  and  _35
REMARK   12  A    between atoms: _36  and  _38
REMARK   13  A    between atoms: _38  and  _40
REMARK   14  A    between atoms: _40  and  _42
REMARK                            x       y       z     vdW  Elec       q    Type
REMARK                         _______ _______ _______ _____ _____    ______ ____
ROOT
ATOM      1  C   UNL     1      30.011  16.398  -0.124  0.00  0.00    +0.240 C 
ENDROOT
BRANCH   1   2
ATOM      2  C   UNL     1      29.780  14.888   0.074  0.00  0.00    +0.100 C 
BRANCH   2   4
ATOM      3  N   UNL     1      32.077  14.442   0.871  0.00  0.00    -0.134 NA
ATOM      4  C   UNL     1      30.730  14.345   1.063  0.00  0.00    +0.086 A 
ATOM      5  C   UNL     1      30.491  13.703   2.256  0.00  0.00    +0.139 A 
ATOM      6  N   UNL     1      31.738  13.431   2.771  0.00  0.00    -0.220 N 
ATOM      7  N   UNL     1      32.683  13.877   1.907  0.00  0.00    -0.061 NA
BRANCH   6   8
ATOM      8  C   UNL     1      32.080  12.848   4.020  0.00  0.00    +0.067 A 
ATOM      9  C   UNL     1      31.196  11.975   4.674  0.00  0.00    +0.030 A 
ATOM     10  C   UNL     1      31.495  11.507   5.956  0.00  0.00    +0.029 A 
ATOM     11  C   UNL     1      32.677  11.908   6.582  0.00  0.00    +0.094 A 
ATOM     12  C   UNL     1      33.606  12.702   5.904  0.00  0.00    +0.029 A 
ATOM     13  C   UNL     1      33.302  13.182   4.628  0.00  0.00    +0.030 A 
BRANCH  11  14
ATOM     14  S   UNL     1      33.023  11.366   8.244  0.00  0.00    +0.025 S 
ATOM     15  O   UNL     1      33.398   9.966   8.142  0.00  0.00    -0.164 OA
ATOM     16  O   UNL     1      33.927  12.334   8.836  0.00  0.00    -0.164 OA
BRANCH  14  17
ATOM     17  C   UNL     1      31.520  11.435   9.196  0.00  0.00    +0.094 A 
ATOM     18  C   UNL     1      30.534  12.382   8.916  0.00  0.00    +0.029 A 
ATOM     19  C   UNL     1      29.393  12.448   9.724  0.00  0.00    +0.024 A 
ATOM     20  C   UNL     1      29.203  11.549  10.782  0.00  0.00    +0.025 A 
ATOM     21  C   UNL     1      30.215  10.628  11.066  0.00  0.00    +0.024 A 
ATOM     22  C   UNL     1      31.360  10.552  10.268  0.00  0.00    +0.029 A 
BRANCH  20  23
ATOM     23  N   UNL     1      28.149  11.734  11.681  0.00  0.00    -0.358 N 
ATOM     24  H   UNL     1      27.871  12.700  11.818  0.00  0.00    +0.142 HD
ATOM     25  H   UNL     1      27.357  11.118  11.531  0.00  0.00    +0.142 HD
ENDBRANCH  20  23
ENDBRANCH  14  17
ENDBRANCH  11  14
ENDBRANCH   6   8
ENDBRANCH   2   4
ENDBRANCH   1   2
BRANCH   1  26
ATOM     26  O   UNL     1      29.084  17.099  -0.919  0.00  0.00    -0.450 OA
BRANCH  26  27
ATOM     27  C   UNL     1      27.884  17.573  -0.839  0.00  0.00    +0.400 C 
ATOM     28  N   UNL     1      26.952  16.977  -1.655  0.00  0.00    -0.278 N 
ATOM     29  H   UNL     1      26.024  17.367  -1.297  0.00  0.00    +0.152 HD
ATOM     30  O   UNL     1      27.508  18.471  -0.089  0.00  0.00    -0.226 OA
BRANCH  28  31
ATOM     31  C   UNL     1      26.670  16.082  -2.774  0.00  0.00    +0.152 C 
BRANCH  31  32
ATOM     32  C   UNL     1      25.399  15.216  -2.648  0.00  0.00    +0.193 C 
ATOM     33  O   UNL     1      24.643  15.409  -3.864  0.00  0.00    -0.219 OA
BRANCH  32  34
ATOM     34  C   UNL     1      25.584  13.686  -2.548  0.00  0.00    +0.212 C 
ATOM     35  O   UNL     1      26.930  13.319  -2.891  0.00  0.00    -0.218 OA
BRANCH  34  36
ATOM     36  C   UNL     1      25.253  13.109  -1.119  0.00  0.00    +0.171 C 
ATOM     37  O   UNL     1      26.213  12.154  -0.678  0.00  0.00    -0.343 OA
ATOM     38  C   UNL     1      26.041  11.316   0.427  0.00  0.00    +0.220 C 
ATOM     39  C   UNL     1      24.692  10.577   0.377  0.00  0.00    +0.076 C 
ATOM     40  C   UNL     1      23.591  11.633   0.188  0.00  0.00    +0.177 C 
ATOM     41  O   UNL     1      22.318  11.005   0.176  0.00  0.00    -0.221 OA
ATOM     42  C   UNL     1      23.839  12.439  -1.125  0.00  0.00    +0.155 C 
BRANCH  42  43
ATOM     43  N   UNL     1      22.791  13.440  -1.311  0.00  0.00    -0.202 NA
ATOM     44  C   UNL     1      21.888  13.574  -2.315  0.00  0.00    +0.242 C 
ATOM     45  C   UNL     1      20.730  14.516  -2.114  0.00  0.00    +0.096 C 
ATOM     46  O   UNL     1      22.032  12.930  -3.352  0.00  0.00    -0.273 OA
ENDBRANCH  42  43
BRANCH  38  47
ATOM     47  C   UNL     1      26.256  12.069   1.850  0.00  0.00    +0.391 C 
ATOM     48  O   UNL     1      25.677  11.262   2.761  0.00  0.00    -0.243 OA
ATOM     49  O   UNL     1      27.167  13.025   1.629  0.00  0.00    -0.243 OA
ENDBRANCH  38  47
ENDBRANCH  34  36
ENDBRANCH  32  34
ENDBRANCH  31  32
ENDBRANCH  28  31
ENDBRANCH  26  27
ENDBRANCH   1  26
TORSDOF 14
