REMARK VINA RESULT:    -6.559      1.245      1.727
REMARK INTER + INTRA:         -12.322
REMARK INTER:                 -10.945
REMARK INTRA:                  -1.377
REMARK UNBOUND:                -1.545
REMARK  Name = lig_assembled_48.pdb
REMARK  11 active torsions:
REMARK  status: ('A' for Active; 'I' for Inactive)
REMARK    1  A    between atoms: _2  and  _8
REMARK    2  A    between atoms: _5  and  _6
REMARK    3  A    between atoms: _5  and  _13
REMARK    4  A    between atoms: _13  and  _15
REMARK    5  A    between atoms: _14  and  _19
REMARK    6  A    between atoms: _15  and  _18
REMARK    7  A    between atoms: _23  and  _33
REMARK    8  A    between atoms: _25  and  _26
REMARK    9  A    between atoms: _27  and  _29
REMARK   10  A    between atoms: _29  and  _31
REMARK   11  A    between atoms: _31  and  _33
REMARK                            x       y       z     vdW  Elec       q    Type
REMARK                         _______ _______ _______ _____ _____    ______ ____
ROOT
ATOM      1  C   UNL     1      28.564  14.864   0.330  0.00  0.00    +0.152 C 
ENDROOT
BRANCH   1   3
ATOM      2  C   UNL     1      27.956  17.244  -0.859  0.00  0.00    +0.400 C 
ATOM      3  N   UNL     1      28.449  16.279  -0.011  0.00  0.00    -0.278 N 
ATOM      4  H   UNL     1      28.969  16.845   0.731  0.00  0.00    +0.152 HD
ATOM      5  O   UNL     1      28.046  18.419  -0.513  0.00  0.00    -0.226 OA
BRANCH   2   6
ATOM      6  O   UNL     1      27.466  16.811  -1.974  0.00  0.00    -0.450 OA
BRANCH   6   7
ATOM      7  C   UNL     1      27.048  17.312  -3.222  0.00  0.00    +0.240 C 
BRANCH   7   8
ATOM      8  C   UNL     1      26.319  16.340  -4.170  0.00  0.00    +0.100 C 
BRANCH   8  10
ATOM      9  N   UNL     1      24.507  15.362  -2.804  0.00  0.00    -0.134 NA
ATOM     10  C   UNL     1      25.730  15.230  -3.401  0.00  0.00    +0.086 A 
ATOM     11  C   UNL     1      26.210  13.960  -3.165  0.00  0.00    +0.134 A 
ATOM     12  N   UNL     1      25.196  13.336  -2.501  0.00  0.00    -0.248 N 
ATOM     13  N   UNL     1      24.206  14.211  -2.222  0.00  0.00    -0.065 NA
BRANCH  12  14
ATOM     14  C   UNL     1      25.021  11.937  -2.129  0.00  0.00    +0.109 C 
ATOM     15  C   UNL     1      26.161  11.462  -1.208  0.00  0.00    +0.027 C 
ATOM     16  C   UNL     1      26.036  12.062   0.190  0.00  0.00    +0.002 C 
ATOM     17  C   UNL     1      24.713  11.667   0.834  0.00  0.00    +0.000 C 
ATOM     18  C   UNL     1      23.510  12.024  -0.036  0.00  0.00    +0.002 C 
ATOM     19  C   UNL     1      23.663  11.576  -1.495  0.00  0.00    +0.027 C 
ENDBRANCH  12  14
ENDBRANCH   8  10
ENDBRANCH   7   8
ENDBRANCH   6   7
ENDBRANCH   2   6
ENDBRANCH   1   3
BRANCH   1  20
ATOM     20  C   UNL     1      29.915  14.194   0.003  0.00  0.00    +0.193 C 
ATOM     21  O   UNL     1      30.008  14.127  -1.437  0.00  0.00    -0.219 OA
BRANCH  20  22
ATOM     22  C   UNL     1      31.201  14.929   0.439  0.00  0.00    +0.212 C 
ATOM     23  O   UNL     1      30.878  16.052   1.276  0.00  0.00    -0.218 OA
BRANCH  22  24
ATOM     24  C   UNL     1      32.219  14.004   1.209  0.00  0.00    +0.171 C 
ATOM     25  O   UNL     1      32.554  14.509   2.497  0.00  0.00    -0.343 OA
ATOM     26  C   UNL     1      33.602  14.029   3.284  0.00  0.00    +0.220 C 
ATOM     27  C   UNL     1      34.922  13.958   2.496  0.00  0.00    +0.076 C 
ATOM     28  C   UNL     1      34.652  13.152   1.214  0.00  0.00    +0.177 C 
ATOM     29  O   UNL     1      35.852  13.022   0.466  0.00  0.00    -0.221 OA
ATOM     30  C   UNL     1      33.531  13.838   0.374  0.00  0.00    +0.155 C 
BRANCH  30  31
ATOM     31  N   UNL     1      33.277  13.079  -0.848  0.00  0.00    -0.202 NA
ATOM     32  C   UNL     1      33.308  13.483  -2.143  0.00  0.00    +0.242 C 
ATOM     33  C   UNL     1      33.297  12.431  -3.222  0.00  0.00    +0.096 C 
ATOM     34  O   UNL     1      33.346  14.684  -2.404  0.00  0.00    -0.273 OA
ENDBRANCH  30  31
BRANCH  26  35
ATOM     35  C   UNL     1      33.268  12.617   4.016  0.00  0.00    +0.391 C 
ATOM     36  O   UNL     1      32.055  12.263   3.550  0.00  0.00    -0.243 OA
ATOM     37  O   UNL     1      34.419  12.198   4.555  0.00  0.00    -0.243 OA
ENDBRANCH  26  35
ENDBRANCH  22  24
ENDBRANCH  20  22
ENDBRANCH   1  20
TORSDOF 11
