REMARK VINA RESULT:    -5.357      2.281      4.160
REMARK INTER + INTRA:         -11.783
REMARK INTER:                 -10.406
REMARK INTRA:                  -1.377
REMARK UNBOUND:                -2.511
REMARK  Name = lig_assembled_1.pdb
REMARK  13 active torsions:
REMARK  status: ('A' for Active; 'I' for Inactive)
REMARK    1  A    between atoms: _2  and  _8
REMARK    2  A    between atoms: _4  and  _8
REMARK    3  A    between atoms: _4  and  _9
REMARK    4  A    between atoms: _5  and  _6
REMARK    5  A    between atoms: _5  and  _10
REMARK    6  A    between atoms: _10  and  _12
REMARK    7  A    between atoms: _11  and  _16
REMARK    8  A    between atoms: _12  and  _15
REMARK    9  A    between atoms: _20  and  _30
REMARK   10  A    between atoms: _22  and  _23
REMARK   11  A    between atoms: _24  and  _26
REMARK   12  A    between atoms: _26  and  _28
REMARK   13  A    between atoms: _28  and  _30
REMARK                            x       y       z     vdW  Elec       q    Type
REMARK                         _______ _______ _______ _____ _____    ______ ____
ROOT
ATOM      1  C   UNL     1      30.915  15.585   0.128  0.00  0.00    +0.193 C 
ATOM      2  O   UNL     1      32.070  15.618  -0.740  0.00  0.00    -0.219 OA
ENDROOT
BRANCH   1   3
ATOM      3  C   UNL     1      31.343  14.681   1.305  0.00  0.00    +0.212 C 
ATOM      4  O   UNL     1      31.603  15.471   2.476  0.00  0.00    -0.218 OA
BRANCH   3   5
ATOM      5  C   UNL     1      30.275  13.580   1.667  0.00  0.00    +0.171 C 
ATOM      6  O   UNL     1      28.945  14.089   1.675  0.00  0.00    -0.343 OA
ATOM      7  C   UNL     1      27.842  13.405   2.192  0.00  0.00    +0.220 C 
ATOM      8  C   UNL     1      28.110  12.883   3.615  0.00  0.00    +0.076 C 
ATOM      9  C   UNL     1      29.415  12.070   3.571  0.00  0.00    +0.177 C 
ATOM     10  O   UNL     1      29.689  11.531   4.857  0.00  0.00    -0.221 OA
ATOM     11  C   UNL     1      30.590  12.966   3.070  0.00  0.00    +0.155 C 
BRANCH  11  12
ATOM     12  N   UNL     1      31.833  12.199   3.034  0.00  0.00    -0.202 NA
ATOM     13  C   UNL     1      32.934  12.293   3.822  0.00  0.00    +0.242 C 
ATOM     14  C   UNL     1      33.954  11.187   3.761  0.00  0.00    +0.096 C 
ATOM     15  O   UNL     1      33.071  13.267   4.560  0.00  0.00    -0.273 OA
ENDBRANCH  11  12
BRANCH   7  16
ATOM     16  C   UNL     1      27.297  12.225   1.217  0.00  0.00    +0.391 C 
ATOM     17  O   UNL     1      26.461  11.499   1.984  0.00  0.00    -0.243 OA
ATOM     18  O   UNL     1      27.635  12.588  -0.027  0.00  0.00    -0.243 OA
ENDBRANCH   7  16
ENDBRANCH   3   5
ENDBRANCH   1   3
BRANCH   1  19
ATOM     19  C   UNL     1      30.559  17.052   0.447  0.00  0.00    +0.152 C 
BRANCH  19  21
ATOM     20  C   UNL     1      28.209  17.423  -0.888  0.00  0.00    +0.400 C 
ATOM     21  N   UNL     1      29.433  17.616  -0.293  0.00  0.00    -0.278 N 
ATOM     22  H   UNL     1      29.619  18.658  -0.441  0.00  0.00    +0.152 HD
ATOM     23  O   UNL     1      27.578  18.414  -1.249  0.00  0.00    -0.226 OA
BRANCH  20  24
ATOM     24  O   UNL     1      27.848  16.192  -1.042  0.00  0.00    -0.450 OA
BRANCH  24  25
ATOM     25  C   UNL     1      27.442  15.317  -2.069  0.00  0.00    +0.240 C 
BRANCH  25  26
ATOM     26  C   UNL     1      26.497  15.879  -3.148  0.00  0.00    +0.100 C 
BRANCH  26  28
ATOM     27  N   UNL     1      24.862  14.414  -2.001  0.00  0.00    -0.134 NA
ATOM     28  C   UNL     1      25.130  15.362  -2.953  0.00  0.00    +0.086 A 
ATOM     29  C   UNL     1      23.963  15.683  -3.609  0.00  0.00    +0.133 A 
ATOM     30  N   UNL     1      23.024  14.892  -3.016  0.00  0.00    -0.249 N 
ATOM     31  N   UNL     1      23.567  14.129  -2.053  0.00  0.00    -0.065 NA
BRANCH  30  32
ATOM     32  C   UNL     1      21.610  14.819  -3.304  0.00  0.00    +0.173 C 
BRANCH  32  33
ATOM     33  C   UNL     1      21.004  16.180  -3.621  0.00  0.00    +0.179 C 
BRANCH  33  34
ATOM     34  O   UNL     1      20.895  16.380  -5.030  0.00  0.00    -0.393 OA
ATOM     35  H   UNL     1      19.952  16.543  -5.221  0.00  0.00    +0.209 HD
ENDBRANCH  33  34
ENDBRANCH  32  33
ENDBRANCH  30  32
ENDBRANCH  26  28
ENDBRANCH  25  26
ENDBRANCH  24  25
ENDBRANCH  20  24
ENDBRANCH  19  21
ENDBRANCH   1  19
TORSDOF 13
