REMARK VINA RESULT:    -7.036      1.775      2.417
REMARK INTER + INTRA:         -13.185
REMARK INTER:                 -11.514
REMARK INTRA:                  -1.672
REMARK UNBOUND:                -1.624
REMARK  Name = lig_assembled_3.pdb
REMARK  11 active torsions:
REMARK  status: ('A' for Active; 'I' for Inactive)
REMARK    1  A    between atoms: _2  and  _8
REMARK    2  A    between atoms: _5  and  _6
REMARK    3  A    between atoms: _5  and  _13
REMARK    4  A    between atoms: _13  and  _15
REMARK    5  A    between atoms: _14  and  _19
REMARK    6  A    between atoms: _15  and  _18
REMARK    7  A    between atoms: _23  and  _33
REMARK    8  A    between atoms: _25  and  _26
REMARK    9  A    between atoms: _27  and  _29
REMARK   10  A    between atoms: _29  and  _31
REMARK   11  A    between atoms: _31  and  _33
REMARK                            x       y       z     vdW  Elec       q    Type
REMARK                         _______ _______ _______ _____ _____    ______ ____
ROOT
ATOM      1  C   UNL     1      27.083  14.292  -2.122  0.00  0.00    +0.152 C 
ENDROOT
BRANCH   1   3
ATOM      2  C   UNL     1      26.732  16.466  -3.733  0.00  0.00    +0.400 C 
ATOM      3  N   UNL     1      26.998  15.646  -2.661  0.00  0.00    -0.278 N 
ATOM      4  H   UNL     1      27.239  16.333  -1.878  0.00  0.00    +0.152 HD
ATOM      5  O   UNL     1      26.647  17.675  -3.530  0.00  0.00    -0.226 OA
BRANCH   2   6
ATOM      6  O   UNL     1      26.624  15.874  -4.877  0.00  0.00    -0.450 OA
BRANCH   6   7
ATOM      7  C   UNL     1      26.052  14.712  -5.429  0.00  0.00    +0.240 C 
BRANCH   7   8
ATOM      8  C   UNL     1      24.514  14.608  -5.429  0.00  0.00    +0.100 C 
BRANCH   8  10
ATOM      9  N   UNL     1      23.653  15.487  -3.283  0.00  0.00    -0.134 NA
ATOM     10  C   UNL     1      24.014  14.421  -4.054  0.00  0.00    +0.086 A 
ATOM     11  C   UNL     1      23.817  13.262  -3.340  0.00  0.00    +0.139 A 
ATOM     12  N   UNL     1      23.303  13.671  -2.130  0.00  0.00    -0.220 N 
ATOM     13  N   UNL     1      23.228  15.025  -2.114  0.00  0.00    -0.061 NA
BRANCH  12  14
ATOM     14  C   UNL     1      22.875  12.879  -1.033  0.00  0.00    +0.067 A 
ATOM     15  C   UNL     1      23.788  12.094  -0.313  0.00  0.00    +0.028 A 
ATOM     16  C   UNL     1      23.341  11.299   0.746  0.00  0.00    +0.002 A 
ATOM     17  C   UNL     1      21.992  11.283   1.093  0.00  0.00    +0.000 A 
ATOM     18  C   UNL     1      21.082  12.068   0.386  0.00  0.00    +0.002 A 
ATOM     19  C   UNL     1      21.519  12.867  -0.674  0.00  0.00    +0.028 A 
ENDBRANCH  12  14
ENDBRANCH   8  10
ENDBRANCH   7   8
ENDBRANCH   6   7
ENDBRANCH   2   6
ENDBRANCH   1   3
BRANCH   1  20
ATOM     20  C   UNL     1      27.867  14.133  -0.803  0.00  0.00    +0.193 C 
ATOM     21  O   UNL     1      27.836  12.728  -0.468  0.00  0.00    -0.219 OA
BRANCH  20  22
ATOM     22  C   UNL     1      29.369  14.493  -0.816  0.00  0.00    +0.212 C 
ATOM     23  O   UNL     1      29.544  15.918  -0.745  0.00  0.00    -0.218 OA
BRANCH  22  24
ATOM     24  C   UNL     1      30.182  13.826   0.358  0.00  0.00    +0.171 C 
ATOM     25  O   UNL     1      29.864  14.383   1.630  0.00  0.00    -0.343 OA
ATOM     26  C   UNL     1      30.599  14.155   2.796  0.00  0.00    +0.220 C 
ATOM     27  C   UNL     1      32.102  14.405   2.581  0.00  0.00    +0.076 C 
ATOM     28  C   UNL     1      32.541  13.571   1.366  0.00  0.00    +0.177 C 
ATOM     29  O   UNL     1      33.935  13.736   1.147  0.00  0.00    -0.221 OA
ATOM     30  C   UNL     1      31.717  13.983   0.106  0.00  0.00    +0.155 C 
BRANCH  30  31
ATOM     31  N   UNL     1      32.136  13.198  -1.052  0.00  0.00    -0.202 NA
ATOM     32  C   UNL     1      32.925  13.549  -2.099  0.00  0.00    +0.242 C 
ATOM     33  C   UNL     1      33.439  12.460  -3.005  0.00  0.00    +0.096 C 
ATOM     34  O   UNL     1      33.201  14.733  -2.282  0.00  0.00    -0.273 OA
ENDBRANCH  30  31
BRANCH  26  35
ATOM     35  C   UNL     1      30.325  12.697   3.458  0.00  0.00    +0.391 C 
ATOM     36  O   UNL     1      31.280  12.558   4.399  0.00  0.00    -0.243 OA
ATOM     37  O   UNL     1      29.107  12.326   3.045  0.00  0.00    -0.243 OA
ENDBRANCH  26  35
ENDBRANCH  22  24
ENDBRANCH  20  22
ENDBRANCH   1  20
TORSDOF 11
