REMARK VINA RESULT:    -7.184      2.070      3.248
REMARK INTER + INTRA:         -13.612
REMARK INTER:                 -12.338
REMARK INTRA:                  -1.273
REMARK UNBOUND:                -1.808
REMARK  Name = lig_assembled_8.pdb
REMARK  11 active torsions:
REMARK  status: ('A' for Active; 'I' for Inactive)
REMARK    1  A    between atoms: _2  and  _8
REMARK    2  A    between atoms: _5  and  _6
REMARK    3  A    between atoms: _5  and  _13
REMARK    4  A    between atoms: _13  and  _15
REMARK    5  A    between atoms: _14  and  _19
REMARK    6  A    between atoms: _15  and  _18
REMARK    7  A    between atoms: _23  and  _33
REMARK    8  A    between atoms: _25  and  _26
REMARK    9  A    between atoms: _27  and  _29
REMARK   10  A    between atoms: _29  and  _31
REMARK   11  A    between atoms: _31  and  _33
REMARK                            x       y       z     vdW  Elec       q    Type
REMARK                         _______ _______ _______ _____ _____    ______ ____
ROOT
ATOM      1  C   UNL     1      27.823  17.425  -0.984  0.00  0.00    +0.400 C 
ATOM      2  N   UNL     1      28.535  16.500  -0.257  0.00  0.00    -0.278 N 
ATOM      3  H   UNL     1      28.808  17.036   0.626  0.00  0.00    +0.152 HD
ATOM      4  O   UNL     1      27.523  18.484  -0.438  0.00  0.00    -0.226 OA
ENDROOT
BRANCH   1   5
ATOM      5  O   UNL     1      27.561  17.095  -2.206  0.00  0.00    -0.450 OA
BRANCH   5   6
ATOM      6  C   UNL     1      26.665  17.441  -3.237  0.00  0.00    +0.240 C 
BRANCH   6   7
ATOM      7  C   UNL     1      26.390  16.385  -4.323  0.00  0.00    +0.100 C 
BRANCH   7   9
ATOM      8  N   UNL     1      25.444  14.105  -4.302  0.00  0.00    -0.134 NA
ATOM      9  C   UNL     1      25.433  15.379  -3.827  0.00  0.00    +0.086 A 
ATOM     10  C   UNL     1      24.442  15.491  -2.879  0.00  0.00    +0.139 A 
ATOM     11  N   UNL     1      23.873  14.233  -2.787  0.00  0.00    -0.219 N 
ATOM     12  N   UNL     1      24.497  13.426  -3.673  0.00  0.00    -0.061 NA
BRANCH  11  13
ATOM     13  C   UNL     1      22.824  13.802  -1.917  0.00  0.00    +0.081 A 
ATOM     14  C   UNL     1      23.130  12.829  -0.939  0.00  0.00    +0.029 A 
ATOM     15  C   UNL     1      22.154  12.338  -0.066  0.00  0.00    +0.002 A 
ATOM     16  C   UNL     1      20.852  12.805  -0.147  0.00  0.00    +0.001 A 
ATOM     17  C   UNL     1      20.529  13.770  -1.098  0.00  0.00    +0.017 A 
ATOM     18  C   UNL     1      21.499  14.277  -1.985  0.00  0.00    +0.043 A 
ATOM     19 BR   UNL     1      20.818  15.588  -3.187  0.00  0.00    -0.048 Br
ENDBRANCH  11  13
ENDBRANCH   7   9
ENDBRANCH   6   7
ENDBRANCH   5   6
ENDBRANCH   1   5
BRANCH   2  20
ATOM     20  C   UNL     1      29.061  15.142  -0.147  0.00  0.00    +0.152 C 
BRANCH  20  21
ATOM     21  C   UNL     1      30.597  15.009  -0.103  0.00  0.00    +0.193 C 
ATOM     22  O   UNL     1      31.134  16.337  -0.286  0.00  0.00    -0.219 OA
BRANCH  21  23
ATOM     23  C   UNL     1      31.234  14.514   1.215  0.00  0.00    +0.212 C 
ATOM     24  O   UNL     1      31.300  15.582   2.173  0.00  0.00    -0.218 OA
BRANCH  23  25
ATOM     25  C   UNL     1      30.464  13.301   1.864  0.00  0.00    +0.171 C 
ATOM     26  O   UNL     1      29.423  13.720   2.740  0.00  0.00    -0.343 OA
ATOM     27  C   UNL     1      28.749  12.874   3.625  0.00  0.00    +0.220 C 
ATOM     28  C   UNL     1      29.726  12.050   4.482  0.00  0.00    +0.076 C 
ATOM     29  C   UNL     1      30.699  11.343   3.524  0.00  0.00    +0.177 C 
ATOM     30  O   UNL     1      31.602  10.534   4.265  0.00  0.00    -0.221 OA
ATOM     31  C   UNL     1      31.460  12.395   2.658  0.00  0.00    +0.155 C 
BRANCH  31  32
ATOM     32  N   UNL     1      32.391  11.727   1.751  0.00  0.00    -0.202 NA
ATOM     33  C   UNL     1      33.730  11.895   1.604  0.00  0.00    +0.242 C 
ATOM     34  C   UNL     1      34.495  10.872   0.805  0.00  0.00    +0.096 C 
ATOM     35  O   UNL     1      34.281  12.865   2.120  0.00  0.00    -0.273 OA
ENDBRANCH  31  32
BRANCH  27  36
ATOM     36  C   UNL     1      27.646  11.927   2.901  0.00  0.00    +0.391 C 
ATOM     37  O   UNL     1      27.441  10.911   3.762  0.00  0.00    -0.243 OA
ATOM     38  O   UNL     1      27.145  12.648   1.890  0.00  0.00    -0.243 OA
ENDBRANCH  27  36
ENDBRANCH  23  25
ENDBRANCH  21  23
ENDBRANCH  20  21
ENDBRANCH   2  20
TORSDOF 11
