REMARK VINA RESULT:    -7.096      1.789      2.992
REMARK INTER + INTRA:         -13.482
REMARK INTER:                 -11.939
REMARK INTRA:                  -1.543
REMARK UNBOUND:                -1.407
REMARK  Name = lig_assembled_82.pdb
REMARK  14 active torsions:
REMARK  status: ('A' for Active; 'I' for Inactive)
REMARK    1  A    between atoms: _2  and  _8
REMARK    2  A    between atoms: _4  and  _15
REMARK    3  A    between atoms: _5  and  _6
REMARK    4  A    between atoms: _5  and  _17
REMARK    5  A    between atoms: _8  and  _9
REMARK    6  A    between atoms: _15  and  _16
REMARK    7  A    between atoms: _17  and  _19
REMARK    8  A    between atoms: _18  and  _23
REMARK    9  A    between atoms: _19  and  _22
REMARK   10  A    between atoms: _27  and  _37
REMARK   11  A    between atoms: _29  and  _30
REMARK   12  A    between atoms: _31  and  _33
REMARK   13  A    between atoms: _33  and  _35
REMARK   14  A    between atoms: _35  and  _37
REMARK                            x       y       z     vdW  Elec       q    Type
REMARK                         _______ _______ _______ _____ _____    ______ ____
ROOT
ATOM      1  C   UNL     1      27.872  17.198  -0.643  0.00  0.00    +0.400 C 
ATOM      2  N   UNL     1      28.720  16.366   0.051  0.00  0.00    -0.278 N 
ATOM      3  H   UNL     1      29.159  17.013   0.779  0.00  0.00    +0.152 HD
ATOM      4  O   UNL     1      27.679  18.328  -0.201  0.00  0.00    -0.226 OA
ENDROOT
BRANCH   2   5
ATOM      5  C   UNL     1      29.265  15.025   0.244  0.00  0.00    +0.152 C 
BRANCH   5   6
ATOM      6  C   UNL     1      30.794  14.932   0.421  0.00  0.00    +0.193 C 
ATOM      7  O   UNL     1      31.137  15.799   1.525  0.00  0.00    -0.219 OA
BRANCH   6   8
ATOM      8  C   UNL     1      31.387  13.560   0.810  0.00  0.00    +0.212 C 
ATOM      9  O   UNL     1      32.521  13.251  -0.016  0.00  0.00    -0.218 OA
BRANCH   8  10
ATOM     10  C   UNL     1      31.827  13.476   2.321  0.00  0.00    +0.171 C 
ATOM     11  O   UNL     1      33.208  13.163   2.473  0.00  0.00    -0.343 OA
ATOM     12  C   UNL     1      33.804  12.791   3.681  0.00  0.00    +0.220 C 
ATOM     13  C   UNL     1      33.029  11.657   4.374  0.00  0.00    +0.076 C 
ATOM     14  C   UNL     1      31.561  12.101   4.486  0.00  0.00    +0.177 C 
ATOM     15  O   UNL     1      30.806  11.103   5.157  0.00  0.00    -0.221 OA
ATOM     16  C   UNL     1      30.979  12.395   3.068  0.00  0.00    +0.155 C 
BRANCH  16  17
ATOM     17  N   UNL     1      29.582  12.811   3.170  0.00  0.00    -0.202 NA
ATOM     18  C   UNL     1      28.460  12.205   2.705  0.00  0.00    +0.242 C 
ATOM     19  C   UNL     1      27.124  12.693   3.202  0.00  0.00    +0.096 C 
ATOM     20  O   UNL     1      28.558  11.281   1.900  0.00  0.00    -0.273 OA
ENDBRANCH  16  17
BRANCH  12  21
ATOM     21  C   UNL     1      34.061  14.040   4.687  0.00  0.00    +0.391 C 
ATOM     22  O   UNL     1      34.144  15.121   3.886  0.00  0.00    -0.243 OA
ATOM     23  O   UNL     1      33.797  13.584   5.918  0.00  0.00    -0.243 OA
ENDBRANCH  12  21
ENDBRANCH   8  10
ENDBRANCH   6   8
ENDBRANCH   5   6
ENDBRANCH   2   5
BRANCH   1  24
ATOM     24  O   UNL     1      27.374  16.708  -1.731  0.00  0.00    -0.450 OA
BRANCH  24  25
ATOM     25  C   UNL     1      27.172  17.080  -3.074  0.00  0.00    +0.240 C 
BRANCH  25  26
ATOM     26  C   UNL     1      25.718  17.153  -3.580  0.00  0.00    +0.100 C 
BRANCH  26  28
ATOM     27  N   UNL     1      25.709  14.703  -3.920  0.00  0.00    -0.134 NA
ATOM     28  C   UNL     1      25.068  15.843  -3.495  0.00  0.00    +0.086 A 
ATOM     29  C   UNL     1      23.811  15.493  -3.036  0.00  0.00    +0.134 A 
ATOM     30  N   UNL     1      23.707  14.162  -3.330  0.00  0.00    -0.247 N 
ATOM     31  N   UNL     1      24.881  13.678  -3.777  0.00  0.00    -0.065 NA
BRANCH  30  32
ATOM     32  C   UNL     1      22.513  13.312  -3.300  0.00  0.00    +0.176 C 
BRANCH  32  33
ATOM     33  C   UNL     1      22.295  12.666  -1.955  0.00  0.00    -0.049 C 
ATOM     34  C   UNL     1      22.781  11.264  -1.769  0.00  0.00    +0.023 C 
ATOM     35  C   UNL     1      23.375  10.850  -0.347  0.00  0.00    -0.025 C 
ATOM     36  C   UNL     1      24.165  11.657   0.691  0.00  0.00    +0.012 C 
ATOM     37  C   UNL     1      21.826  10.844   0.053  0.00  0.00    -0.000 C 
ATOM     38  C   UNL     1      21.198  12.261   0.241  0.00  0.00    +0.031 C 
ATOM     39  C   UNL     1      24.234   9.597  -0.654  0.00  0.00    +0.012 C 
ATOM     40  C   UNL     1      21.559  10.335  -1.388  0.00  0.00    +0.012 C 
ATOM     41  C   UNL     1      21.546  13.148  -0.944  0.00  0.00    -0.025 C 
ENDBRANCH  32  33
ENDBRANCH  30  32
ENDBRANCH  26  28
ENDBRANCH  25  26
ENDBRANCH  24  25
ENDBRANCH   1  24
TORSDOF 12
