REMARK VINA RESULT:    -6.552      4.362      6.986
REMARK INTER + INTRA:         -14.838
REMARK INTER:                 -13.005
REMARK INTRA:                  -1.834
REMARK UNBOUND:                -2.540
REMARK  Name = lig_assembled_31.pdb
REMARK  15 active torsions:
REMARK  status: ('A' for Active; 'I' for Inactive)
REMARK    1  A    between atoms: _2  and  _10
REMARK    2  A    between atoms: _3  and  _11
REMARK    3  A    between atoms: _4  and  _13
REMARK    4  A    between atoms: _7  and  _8
REMARK    5  A    between atoms: _7  and  _19
REMARK    6  A    between atoms: _10  and  _11
REMARK    7  A    between atoms: _13  and  _14
REMARK    8  A    between atoms: _19  and  _21
REMARK    9  A    between atoms: _20  and  _25
REMARK   10  A    between atoms: _21  and  _24
REMARK   11  A    between atoms: _29  and  _39
REMARK   12  A    between atoms: _31  and  _32
REMARK   13  A    between atoms: _33  and  _35
REMARK   14  A    between atoms: _35  and  _37
REMARK   15  A    between atoms: _37  and  _39
REMARK                            x       y       z     vdW  Elec       q    Type
REMARK                         _______ _______ _______ _____ _____    ______ ____
ROOT
ATOM      1  C   UNL     1      28.236  17.100  -0.858  0.00  0.00    +0.400 C 
ATOM      2  N   UNL     1      27.185  17.106  -1.745  0.00  0.00    -0.278 N 
ATOM      3  H   UNL     1      26.594  17.937  -1.423  0.00  0.00    +0.152 HD
ATOM      4  O   UNL     1      28.356  18.057  -0.097  0.00  0.00    -0.226 OA
ENDROOT
BRANCH   2   5
ATOM      5  C   UNL     1      26.538  16.510  -2.911  0.00  0.00    +0.152 C 
BRANCH   5   6
ATOM      6  C   UNL     1      25.521  15.386  -2.623  0.00  0.00    +0.193 C 
ATOM      7  O   UNL     1      24.667  15.291  -3.784  0.00  0.00    -0.219 OA
BRANCH   6   8
ATOM      8  C   UNL     1      26.072  13.956  -2.432  0.00  0.00    +0.212 C 
ATOM      9  O   UNL     1      27.489  13.927  -2.671  0.00  0.00    -0.218 OA
BRANCH   8  10
ATOM     10  C   UNL     1      25.791  13.364  -0.998  0.00  0.00    +0.171 C 
ATOM     11  O   UNL     1      26.836  12.510  -0.543  0.00  0.00    -0.343 OA
ATOM     12  C   UNL     1      26.739  11.671   0.569  0.00  0.00    +0.220 C 
ATOM     13  C   UNL     1      25.468  10.806   0.523  0.00  0.00    +0.076 C 
ATOM     14  C   UNL     1      24.272  11.751   0.320  0.00  0.00    +0.177 C 
ATOM     15  O   UNL     1      23.064  11.004   0.309  0.00  0.00    -0.221 OA
ATOM     16  C   UNL     1      24.448  12.563  -1.001  0.00  0.00    +0.155 C 
BRANCH  16  17
ATOM     17  N   UNL     1      23.310  13.458  -1.201  0.00  0.00    -0.202 NA
ATOM     18  C   UNL     1      22.281  13.369  -2.082  0.00  0.00    +0.242 C 
ATOM     19  C   UNL     1      21.087  14.265  -1.879  0.00  0.00    +0.096 C 
ATOM     20  O   UNL     1      22.345  12.568  -3.013  0.00  0.00    -0.273 OA
ENDBRANCH  16  17
BRANCH  12  21
ATOM     21  C   UNL     1      26.876  12.455   1.985  0.00  0.00    +0.391 C 
ATOM     22  O   UNL     1      27.570  13.574   1.697  0.00  0.00    -0.243 OA
ATOM     23  O   UNL     1      26.012  11.865   2.820  0.00  0.00    -0.243 OA
ENDBRANCH  12  21
ENDBRANCH   8  10
ENDBRANCH   6   8
ENDBRANCH   5   6
ENDBRANCH   2   5
BRANCH   1  24
ATOM     24  O   UNL     1      28.991  16.052  -0.892  0.00  0.00    -0.450 OA
BRANCH  24  25
ATOM     25  C   UNL     1      29.682  15.204  -0.004  0.00  0.00    +0.240 C 
BRANCH  25  26
ATOM     26  C   UNL     1      31.073  15.661   0.477  0.00  0.00    +0.100 C 
BRANCH  26  28
ATOM     27  N   UNL     1      30.955  14.262   2.516  0.00  0.00    -0.134 NA
ATOM     28  C   UNL     1      31.647  14.668   1.407  0.00  0.00    +0.086 A 
ATOM     29  C   UNL     1      32.858  14.013   1.368  0.00  0.00    +0.133 A 
ATOM     30  N   UNL     1      32.843  13.232   2.486  0.00  0.00    -0.250 N 
ATOM     31  N   UNL     1      31.697  13.378   3.170  0.00  0.00    -0.065 NA
BRANCH  30  32
ATOM     32  C   UNL     1      33.874  12.334   2.963  0.00  0.00    +0.164 C 
BRANCH  32  33
ATOM     33  C   UNL     1      34.712  12.982   4.055  0.00  0.00    +0.129 C 
BRANCH  33  34
ATOM     34  N   UNL     1      33.962  13.383   5.238  0.00  0.00    -0.298 N 
ATOM     35  H   UNL     1      33.782  14.359   5.430  0.00  0.00    +0.150 HD
ATOM     36  C   UNL     1      33.881  12.503   6.285  0.00  0.00    +0.300 C 
ATOM     37  O   UNL     1      34.326  11.358   6.227  0.00  0.00    -0.253 OA
ATOM     38  N   UNL     1      33.242  12.991   7.383  0.00  0.00    -0.292 N 
ATOM     39  H   UNL     1      32.914  13.944   7.444  0.00  0.00    +0.151 HD
BRANCH  38  40
ATOM     40  C   UNL     1      33.100  12.136   8.537  0.00  0.00    +0.180 C 
BRANCH  40  41
ATOM     41  C   UNL     1      31.716  12.099   9.075  0.00  0.00    +0.122 A 
ATOM     42  O   UNL     1      31.532  12.068  10.429  0.00  0.00    -0.466 OA
ATOM     43  C   UNL     1      30.187  12.040  10.642  0.00  0.00    +0.195 A 
ATOM     44  C   UNL     1      29.505  12.050   9.447  0.00  0.00    +0.041 A 
ATOM     45  C   UNL     1      30.492  12.087   8.435  0.00  0.00    +0.046 A 
ENDBRANCH  40  41
ENDBRANCH  38  40
ENDBRANCH  33  34
ENDBRANCH  32  33
ENDBRANCH  30  32
ENDBRANCH  26  28
ENDBRANCH  25  26
ENDBRANCH  24  25
ENDBRANCH   1  24
TORSDOF 15
