REMARK VINA RESULT:    -7.114      2.711      8.227
REMARK INTER + INTRA:         -16.556
REMARK INTER:                 -12.197
REMARK INTRA:                  -4.359
REMARK UNBOUND:                -2.580
REMARK  Name = lig_assembled_90.pdb
REMARK  17 active torsions:
REMARK  status: ('A' for Active; 'I' for Inactive)
REMARK    1  A    between atoms: _2  and  _12
REMARK    2  A    between atoms: _3  and  _14
REMARK    3  A    between atoms: _4  and  _16
REMARK    4  A    between atoms: _9  and  _10
REMARK    5  A    between atoms: _9  and  _23
REMARK    6  A    between atoms: _12  and  _13
REMARK    7  A    between atoms: _14  and  _15
REMARK    8  A    between atoms: _15  and  _16
REMARK    9  A    between atoms: _15  and  _21
REMARK   10  A    between atoms: _23  and  _25
REMARK   11  A    between atoms: _24  and  _29
REMARK   12  A    between atoms: _25  and  _28
REMARK   13  A    between atoms: _33  and  _43
REMARK   14  A    between atoms: _35  and  _36
REMARK   15  A    between atoms: _37  and  _39
REMARK   16  A    between atoms: _39  and  _41
REMARK   17  A    between atoms: _41  and  _43
REMARK                            x       y       z     vdW  Elec       q    Type
REMARK                         _______ _______ _______ _____ _____    ______ ____
ROOT
ATOM      1  C   UNL     1      31.462  14.733   1.171  0.00  0.00    +0.240 C 
ENDROOT
BRANCH   1   2
ATOM      2  O   UNL     1      32.258  14.075   0.213  0.00  0.00    -0.450 OA
BRANCH   2   3
ATOM      3  C   UNL     1      32.245  13.802  -1.050  0.00  0.00    +0.400 C 
ATOM      4  N   UNL     1      31.308  12.878  -1.450  0.00  0.00    -0.278 N 
ATOM      5  H   UNL     1      31.333  12.947  -2.516  0.00  0.00    +0.152 HD
ATOM      6  O   UNL     1      32.964  14.308  -1.909  0.00  0.00    -0.226 OA
BRANCH   4   7
ATOM      7  C   UNL     1      30.329  11.860  -1.081  0.00  0.00    +0.152 C 
BRANCH   7   8
ATOM      8  C   UNL     1      29.082  11.758  -1.983  0.00  0.00    +0.193 C 
ATOM      9  O   UNL     1      28.724  10.359  -2.041  0.00  0.00    -0.219 OA
BRANCH   8  10
ATOM     10  C   UNL     1      27.794  12.465  -1.505  0.00  0.00    +0.212 C 
ATOM     11  O   UNL     1      27.115  13.075  -2.615  0.00  0.00    -0.218 OA
BRANCH  10  12
ATOM     12  C   UNL     1      26.789  11.500  -0.768  0.00  0.00    +0.171 C 
ATOM     13  O   UNL     1      25.526  11.421  -1.422  0.00  0.00    -0.343 OA
ATOM     14  C   UNL     1      24.384  10.841  -0.864  0.00  0.00    +0.220 C 
ATOM     15  C   UNL     1      24.103  11.382   0.549  0.00  0.00    +0.076 C 
ATOM     16  C   UNL     1      25.387  11.208   1.376  0.00  0.00    +0.177 C 
ATOM     17  O   UNL     1      25.168  11.657   2.706  0.00  0.00    -0.221 OA
ATOM     18  C   UNL     1      26.567  11.977   0.704  0.00  0.00    +0.155 C 
BRANCH  18  19
ATOM     19  N   UNL     1      27.788  11.820   1.491  0.00  0.00    -0.202 NA
ATOM     20  C   UNL     1      28.425  12.712   2.292  0.00  0.00    +0.242 C 
ATOM     21  C   UNL     1      29.499  12.202   3.218  0.00  0.00    +0.096 C 
ATOM     22  O   UNL     1      28.114  13.900   2.246  0.00  0.00    -0.273 OA
ENDBRANCH  18  19
BRANCH  14  23
ATOM     23  C   UNL     1      24.405   9.217  -0.888  0.00  0.00    +0.391 C 
ATOM     24  O   UNL     1      23.335   8.845  -0.160  0.00  0.00    -0.243 OA
ATOM     25  O   UNL     1      25.274   8.873  -1.846  0.00  0.00    -0.243 OA
ENDBRANCH  14  23
ENDBRANCH  10  12
ENDBRANCH   8  10
ENDBRANCH   7   8
ENDBRANCH   4   7
ENDBRANCH   2   3
ENDBRANCH   1   2
BRANCH   1  26
ATOM     26  C   UNL     1      31.228  16.244   0.984  0.00  0.00    +0.100 C 
BRANCH  26  28
ATOM     27  N   UNL     1      29.418  15.440  -0.509  0.00  0.00    -0.134 NA
ATOM     28  C   UNL     1      30.061  16.480   0.112  0.00  0.00    +0.086 A 
ATOM     29  C   UNL     1      29.440  17.660  -0.229  0.00  0.00    +0.134 A 
ATOM     30  N   UNL     1      28.416  17.271  -1.039  0.00  0.00    -0.243 N 
ATOM     31  N   UNL     1      28.416  15.939  -1.222  0.00  0.00    -0.065 NA
BRANCH  30  32
ATOM     32  C   UNL     1      27.476  18.101  -1.754  0.00  0.00    +0.240 C 
BRANCH  32  33
ATOM     33  C   UNL     1      26.770  17.324  -2.842  0.00  0.00    +0.235 C 
ATOM     34  O   UNL     1      27.135  17.346  -4.015  0.00  0.00    -0.274 OA
ATOM     35  N   UNL     1      25.715  16.539  -2.414  0.00  0.00    -0.311 N 
ATOM     36  H   UNL     1      25.279  16.753  -1.520  0.00  0.00    +0.149 HD
BRANCH  35  37
ATOM     37  C   UNL     1      24.902  15.808  -3.376  0.00  0.00    +0.137 C 
BRANCH  37  38
ATOM     38  C   UNL     1      24.098  14.694  -2.689  0.00  0.00    +0.151 C 
BRANCH  38  39
ATOM     39  O   UNL     1      24.756  14.340  -1.466  0.00  0.00    -0.388 OA
ATOM     40  H   UNL     1      25.640  13.976  -1.675  0.00  0.00    +0.210 HD
ENDBRANCH  38  39
BRANCH  38  41
ATOM     41  C   UNL     1      22.645  15.116  -2.436  0.00  0.00    +0.162 C 
BRANCH  41  42
ATOM     42  N   UNL     1      21.718  13.997  -2.510  0.00  0.00    -0.269 N 
ATOM     43  C   UNL     1      21.536  13.103  -1.476  0.00  0.00    +0.113 A 
ATOM     44  C   UNL     1      20.629  12.179  -1.937  0.00  0.00    +0.137 A 
ATOM     45  N   UNL     1      20.249  12.474  -3.220  0.00  0.00    -0.172 NA
ATOM     46  C   UNL     1      20.908  13.577  -3.536  0.00  0.00    +0.450 A 
ATOM     47  N   UNL     1      20.768  14.219  -4.821  0.00  0.00    +0.120 N 
ATOM     48  O   UNL     1      21.341  15.304  -4.988  0.00  0.00    +0.045 OA
ATOM     49  O   UNL     1      20.092  13.633  -5.677  0.00  0.00    -0.573 OA
ENDBRANCH  41  42
ENDBRANCH  38  41
ENDBRANCH  37  38
ENDBRANCH  35  37
ENDBRANCH  32  33
ENDBRANCH  30  32
ENDBRANCH  26  28
ENDBRANCH   1  26
TORSDOF 17
