REMARK VINA RESULT:    -6.848      3.492      9.189
REMARK INTER + INTRA:         -12.570
REMARK INTER:                 -11.252
REMARK INTRA:                  -1.318
REMARK UNBOUND:                -1.318
REMARK  Name = lig_assembled_40.pdb
REMARK  12 active torsions:
REMARK  status: ('A' for Active; 'I' for Inactive)
REMARK    1  A    between atoms: _2  and  _8
REMARK    2  A    between atoms: _5  and  _6
REMARK    3  A    between atoms: _5  and  _14
REMARK    4  A    between atoms: _11  and  _12
REMARK    5  A    between atoms: _14  and  _16
REMARK    6  A    between atoms: _15  and  _20
REMARK    7  A    between atoms: _16  and  _19
REMARK    8  A    between atoms: _24  and  _34
REMARK    9  A    between atoms: _26  and  _27
REMARK   10  A    between atoms: _28  and  _30
REMARK   11  A    between atoms: _30  and  _32
REMARK   12  A    between atoms: _32  and  _34
REMARK                            x       y       z     vdW  Elec       q    Type
REMARK                         _______ _______ _______ _____ _____    ______ ____
ROOT
ATOM      1  C   UNL     1      27.898  17.733  -1.111  0.00  0.00    +0.400 C 
ATOM      2  N   UNL     1      27.149  17.579  -2.253  0.00  0.00    -0.278 N 
ATOM      3  H   UNL     1      26.217  18.038  -2.001  0.00  0.00    +0.152 HD
ATOM      4  O   UNL     1      27.455  18.453  -0.220  0.00  0.00    -0.226 OA
ENDROOT
BRANCH   1   5
ATOM      5  O   UNL     1      29.005  17.065  -1.073  0.00  0.00    -0.450 OA
BRANCH   5   6
ATOM      6  C   UNL     1      29.559  15.952  -0.412  0.00  0.00    +0.240 C 
BRANCH   6   7
ATOM      7  C   UNL     1      30.876  16.165   0.357  0.00  0.00    +0.100 C 
BRANCH   7   9
ATOM      8  N   UNL     1      31.028  13.722   0.728  0.00  0.00    -0.134 NA
ATOM      9  C   UNL     1      31.172  14.993   1.203  0.00  0.00    +0.086 A 
ATOM     10  C   UNL     1      31.622  14.940   2.501  0.00  0.00    +0.139 A 
ATOM     11  N   UNL     1      31.771  13.599   2.772  0.00  0.00    -0.220 N 
ATOM     12  N   UNL     1      31.384  12.880   1.689  0.00  0.00    -0.061 NA
BRANCH  11  13
ATOM     13  C   UNL     1      32.281  12.985   3.946  0.00  0.00    +0.067 A 
ATOM     14  C   UNL     1      31.417  12.409   4.887  0.00  0.00    +0.028 A 
ATOM     15  C   UNL     1      31.928  11.871   6.072  0.00  0.00    +0.005 A 
ATOM     16  C   UNL     1      33.302  11.899   6.333  0.00  0.00    -0.050 A 
ATOM     17  C   UNL     1      34.166  12.443   5.375  0.00  0.00    +0.005 A 
ATOM     18  C   UNL     1      33.850  11.366   7.624  0.00  0.00    +0.044 C 
ATOM     19  C   UNL     1      33.661  12.983   4.187  0.00  0.00    +0.028 A 
ENDBRANCH  11  13
ENDBRANCH   7   9
ENDBRANCH   6   7
ENDBRANCH   5   6
ENDBRANCH   1   5
BRANCH   2  20
ATOM     20  C   UNL     1      27.061  17.094  -3.628  0.00  0.00    +0.152 C 
BRANCH  20  21
ATOM     21  C   UNL     1      25.942  16.074  -3.920  0.00  0.00    +0.193 C 
ATOM     22  O   UNL     1      25.956  15.837  -5.345  0.00  0.00    -0.219 OA
BRANCH  21  23
ATOM     23  C   UNL     1      26.075  14.668  -3.294  0.00  0.00    +0.212 C 
ATOM     24  O   UNL     1      26.793  14.738  -2.051  0.00  0.00    -0.218 OA
BRANCH  23  25
ATOM     25  C   UNL     1      24.688  13.965  -3.036  0.00  0.00    +0.171 C 
ATOM     26  O   UNL     1      23.799  14.772  -2.269  0.00  0.00    -0.343 OA
ATOM     27  C   UNL     1      22.613  14.310  -1.694  0.00  0.00    +0.220 C 
ATOM     28  C   UNL     1      22.838  13.025  -0.878  0.00  0.00    +0.076 C 
ATOM     29  C   UNL     1      23.549  12.015  -1.793  0.00  0.00    +0.177 C 
ATOM     30  O   UNL     1      23.746  10.791  -1.099  0.00  0.00    -0.221 OA
ATOM     31  C   UNL     1      24.904  12.605  -2.295  0.00  0.00    +0.155 C 
BRANCH  31  32
ATOM     32  N   UNL     1      25.587  11.646  -3.159  0.00  0.00    -0.202 NA
ATOM     33  C   UNL     1      26.767  11.002  -2.977  0.00  0.00    +0.242 C 
ATOM     34  C   UNL     1      27.098   9.844  -3.883  0.00  0.00    +0.096 C 
ATOM     35  O   UNL     1      27.531  11.372  -2.088  0.00  0.00    -0.273 OA
ENDBRANCH  31  32
BRANCH  27  36
ATOM     36  C   UNL     1      21.401  14.136  -2.761  0.00  0.00    +0.391 C 
ATOM     37  O   UNL     1      21.849  14.714  -3.893  0.00  0.00    -0.243 OA
ATOM     38  O   UNL     1      20.562  13.242  -2.225  0.00  0.00    -0.243 OA
ENDBRANCH  27  36
ENDBRANCH  23  25
ENDBRANCH  21  23
ENDBRANCH  20  21
ENDBRANCH   2  20
TORSDOF 11
