REMARK VINA RESULT:    -7.581      2.046      3.166
REMARK INTER + INTRA:         -15.571
REMARK INTER:                 -13.401
REMARK INTRA:                  -2.170
REMARK UNBOUND:                -1.120
REMARK  Name = lig_assembled_76.pdb
REMARK  16 active torsions:
REMARK  status: ('A' for Active; 'I' for Inactive)
REMARK    1  A    between atoms: _2  and  _8
REMARK    2  A    between atoms: _5  and  _6
REMARK    3  A    between atoms: _5  and  _18
REMARK    4  A    between atoms: _8  and  _9
REMARK    5  A    between atoms: _9  and  _10
REMARK    6  A    between atoms: _9  and  _17
REMARK    7  A    between atoms: _10  and  _11
REMARK    8  A    between atoms: _11  and  _12
REMARK    9  A    between atoms: _18  and  _20
REMARK   10  A    between atoms: _19  and  _24
REMARK   11  A    between atoms: _20  and  _23
REMARK   12  A    between atoms: _28  and  _38
REMARK   13  A    between atoms: _30  and  _31
REMARK   14  A    between atoms: _32  and  _34
REMARK   15  A    between atoms: _34  and  _36
REMARK   16  A    between atoms: _36  and  _38
REMARK                            x       y       z     vdW  Elec       q    Type
REMARK                         _______ _______ _______ _____ _____    ______ ____
ROOT
ATOM      1  C   UNL     1      27.961  17.271  -0.944  0.00  0.00    +0.400 C 
ATOM      2  N   UNL     1      28.364  16.338  -0.017  0.00  0.00    -0.278 N 
ATOM      3  H   UNL     1      28.725  16.935   0.793  0.00  0.00    +0.152 HD
ATOM      4  O   UNL     1      27.927  18.450  -0.602  0.00  0.00    -0.226 OA
ENDROOT
BRANCH   1   5
ATOM      5  O   UNL     1      27.681  16.809  -2.118  0.00  0.00    -0.450 OA
BRANCH   5   6
ATOM      6  C   UNL     1      26.876  17.130  -3.228  0.00  0.00    +0.240 C 
BRANCH   6   7
ATOM      7  C   UNL     1      26.218  15.963  -3.990  0.00  0.00    +0.100 C 
BRANCH   7   9
ATOM      8  N   UNL     1      26.573  13.896  -2.669  0.00  0.00    -0.134 NA
ATOM      9  C   UNL     1      25.757  14.930  -3.048  0.00  0.00    +0.086 A 
ATOM     10  C   UNL     1      24.534  14.792  -2.430  0.00  0.00    +0.133 A 
ATOM     11  N   UNL     1      24.674  13.660  -1.685  0.00  0.00    -0.249 N 
ATOM     12  N   UNL     1      25.893  13.117  -1.837  0.00  0.00    -0.065 NA
BRANCH  11  13
ATOM     13  C   UNL     1      23.656  12.974  -0.922  0.00  0.00    +0.176 C 
BRANCH  13  14
ATOM     14  C   UNL     1      22.828  12.003  -1.770  0.00  0.00    +0.136 C 
BRANCH  14  15
ATOM     15  O   UNL     1      23.317  10.664  -1.608  0.00  0.00    -0.390 OA
ATOM     16  H   UNL     1      23.133  10.158  -2.418  0.00  0.00    +0.210 HD
ENDBRANCH  14  15
BRANCH  14  17
ATOM     17  C   UNL     1      21.342  12.001  -1.376  0.00  0.00    +0.038 C 
BRANCH  17  18
ATOM     18  C   UNL     1      20.843  13.356  -0.874  0.00  0.00    +0.038 C 
BRANCH  18  19
ATOM     19  C   UNL     1      20.234  14.181  -1.977  0.00  0.00    -0.047 A 
ATOM     20  C   UNL     1      18.884  14.017  -2.320  0.00  0.00    +0.003 A 
ATOM     21  C   UNL     1      18.313  14.792  -3.330  0.00  0.00    +0.000 A 
ATOM     22  C   UNL     1      19.085  15.733  -4.007  0.00  0.00    +0.000 A 
ATOM     23  C   UNL     1      20.430  15.896  -3.681  0.00  0.00    +0.000 A 
ATOM     24  C   UNL     1      21.005  15.121  -2.672  0.00  0.00    +0.003 A 
ENDBRANCH  18  19
ENDBRANCH  17  18
ENDBRANCH  14  17
ENDBRANCH  13  14
ENDBRANCH  11  13
ENDBRANCH   7   9
ENDBRANCH   6   7
ENDBRANCH   5   6
ENDBRANCH   1   5
BRANCH   2  25
ATOM     25  C   UNL     1      28.502  14.932   0.354  0.00  0.00    +0.152 C 
BRANCH  25  26
ATOM     26  C   UNL     1      29.831  14.254  -0.036  0.00  0.00    +0.193 C 
ATOM     27  O   UNL     1      29.864  14.204  -1.479  0.00  0.00    -0.219 OA
BRANCH  26  28
ATOM     28  C   UNL     1      31.142  14.972   0.355  0.00  0.00    +0.212 C 
ATOM     29  O   UNL     1      30.856  16.170   1.095  0.00  0.00    -0.218 OA
BRANCH  28  30
ATOM     30  C   UNL     1      32.116  14.073   1.208  0.00  0.00    +0.171 C 
ATOM     31  O   UNL     1      32.386  14.624   2.493  0.00  0.00    -0.343 OA
ATOM     32  C   UNL     1      33.391  14.170   3.349  0.00  0.00    +0.220 C 
ATOM     33  C   UNL     1      34.749  14.069   2.633  0.00  0.00    +0.076 C 
ATOM     34  C   UNL     1      34.543  13.218   1.369  0.00  0.00    +0.177 C 
ATOM     35  O   UNL     1      35.779  13.060   0.688  0.00  0.00    -0.221 OA
ATOM     36  C   UNL     1      33.469  13.876   0.448  0.00  0.00    +0.155 C 
BRANCH  36  37
ATOM     37  N   UNL     1      33.275  13.074  -0.758  0.00  0.00    -0.202 NA
ATOM     38  C   UNL     1      33.349  13.438  -2.063  0.00  0.00    +0.242 C 
ATOM     39  C   UNL     1      33.397  12.353  -3.107  0.00  0.00    +0.096 C 
ATOM     40  O   UNL     1      33.375  14.630  -2.361  0.00  0.00    -0.273 OA
ENDBRANCH  36  37
BRANCH  32  41
ATOM     41  C   UNL     1      33.015  12.786   4.113  0.00  0.00    +0.391 C 
ATOM     42  O   UNL     1      34.179  12.346   4.628  0.00  0.00    -0.243 OA
ATOM     43  O   UNL     1      31.679  12.764   4.201  0.00  0.00    -0.243 OA
ENDBRANCH  32  41
ENDBRANCH  28  30
ENDBRANCH  26  28
ENDBRANCH  25  26
ENDBRANCH   2  25
TORSDOF 16
