REMARK VINA RESULT:    -6.380      2.248      3.744
REMARK INTER + INTRA:         -12.807
REMARK INTER:                 -10.834
REMARK INTRA:                  -1.973
REMARK UNBOUND:                -1.952
REMARK  Name = lig_assembled_44.pdb
REMARK  12 active torsions:
REMARK  status: ('A' for Active; 'I' for Inactive)
REMARK    1  A    between atoms: _2  and  _8
REMARK    2  A    between atoms: _5  and  _6
REMARK    3  A    between atoms: _5  and  _14
REMARK    4  A    between atoms: _8  and  _9
REMARK    5  A    between atoms: _14  and  _16
REMARK    6  A    between atoms: _15  and  _20
REMARK    7  A    between atoms: _16  and  _19
REMARK    8  A    between atoms: _24  and  _34
REMARK    9  A    between atoms: _26  and  _27
REMARK   10  A    between atoms: _28  and  _30
REMARK   11  A    between atoms: _30  and  _32
REMARK   12  A    between atoms: _32  and  _34
REMARK                            x       y       z     vdW  Elec       q    Type
REMARK                         _______ _______ _______ _____ _____    ______ ____
ROOT
ATOM      1  C   UNL     1      27.591  16.805  -1.491  0.00  0.00    +0.400 C 
ATOM      2  N   UNL     1      28.274  16.173  -0.478  0.00  0.00    -0.278 N 
ATOM      3  H   UNL     1      28.679  16.983   0.089  0.00  0.00    +0.152 HD
ATOM      4  O   UNL     1      27.448  18.023  -1.421  0.00  0.00    -0.226 OA
ENDROOT
BRANCH   2   5
ATOM      5  C   UNL     1      28.672  14.923   0.163  0.00  0.00    +0.152 C 
BRANCH   5   6
ATOM      6  C   UNL     1      29.523  13.962  -0.693  0.00  0.00    +0.193 C 
ATOM      7  O   UNL     1      30.814  14.588  -0.861  0.00  0.00    -0.219 OA
BRANCH   6   8
ATOM      8  C   UNL     1      29.843  12.571  -0.102  0.00  0.00    +0.212 C 
ATOM      9  O   UNL     1      30.852  11.913  -0.885  0.00  0.00    -0.218 OA
BRANCH   8  10
ATOM     10  C   UNL     1      30.326  12.626   1.398  0.00  0.00    +0.171 C 
ATOM     11  O   UNL     1      31.728  12.418   1.530  0.00  0.00    -0.343 OA
ATOM     12  C   UNL     1      32.379  12.176   2.742  0.00  0.00    +0.220 C 
ATOM     13  C   UNL     1      31.701  11.046   3.537  0.00  0.00    +0.076 C 
ATOM     14  C   UNL     1      30.210  11.398   3.661  0.00  0.00    +0.177 C 
ATOM     15  O   UNL     1      29.542  10.403   4.424  0.00  0.00    -0.221 OA
ATOM     16  C   UNL     1      29.573  11.549   2.245  0.00  0.00    +0.155 C 
BRANCH  16  17
ATOM     17  N   UNL     1      28.154  11.876   2.359  0.00  0.00    -0.202 NA
ATOM     18  C   UNL     1      27.066  11.175   1.952  0.00  0.00    +0.242 C 
ATOM     19  C   UNL     1      25.711  11.600   2.455  0.00  0.00    +0.096 C 
ATOM     20  O   UNL     1      27.209  10.219   1.191  0.00  0.00    -0.273 OA
ENDBRANCH  16  17
BRANCH  12  21
ATOM     21  C   UNL     1      32.575  13.510   3.649  0.00  0.00    +0.391 C 
ATOM     22  O   UNL     1      32.979  13.056   4.851  0.00  0.00    -0.243 OA
ATOM     23  O   UNL     1      32.558  14.542   2.797  0.00  0.00    -0.243 OA
ENDBRANCH  12  21
ENDBRANCH   8  10
ENDBRANCH   6   8
ENDBRANCH   5   6
ENDBRANCH   2   5
BRANCH   1  24
ATOM     24  O   UNL     1      27.184  16.042  -2.452  0.00  0.00    -0.450 OA
BRANCH  24  25
ATOM     25  C   UNL     1      26.176  15.093  -2.709  0.00  0.00    +0.240 C 
BRANCH  25  26
ATOM     26  C   UNL     1      24.717  15.588  -2.716  0.00  0.00    +0.100 C 
BRANCH  26  28
ATOM     27  N   UNL     1      24.047  13.264  -3.257  0.00  0.00    -0.134 NA
ATOM     28  C   UNL     1      23.785  14.449  -2.620  0.00  0.00    +0.086 A 
ATOM     29  C   UNL     1      22.600  14.337  -1.932  0.00  0.00    +0.134 A 
ATOM     30  N   UNL     1      22.230  13.039  -2.125  0.00  0.00    -0.247 N 
ATOM     31  N   UNL     1      23.080  12.409  -2.956  0.00  0.00    -0.065 NA
BRANCH  30  32
ATOM     32  C   UNL     1      21.094  12.336  -1.560  0.00  0.00    +0.180 C 
BRANCH  32  33
ATOM     33  C   UNL     1      21.476  11.590  -0.303  0.00  0.00    -0.026 A 
ATOM     34  C   UNL     1      21.920  10.260  -0.367  0.00  0.00    +0.006 A 
ATOM     35  C   UNL     1      22.259   9.568   0.798  0.00  0.00    +0.015 A 
ATOM     36  C   UNL     1      22.156  10.203   2.034  0.00  0.00    +0.018 A 
ATOM     37 BR   UNL     1      22.631   9.272   3.608  0.00  0.00    -0.050 Br
ATOM     38  C   UNL     1      21.706  11.519   2.118  0.00  0.00    +0.015 A 
ATOM     39  C   UNL     1      21.362  12.208   0.951  0.00  0.00    +0.006 A 
ENDBRANCH  32  33
ENDBRANCH  30  32
ENDBRANCH  26  28
ENDBRANCH  25  26
ENDBRANCH  24  25
ENDBRANCH   1  24
TORSDOF 12
