REMARK VINA RESULT:    -7.140      1.813      2.985
REMARK INTER + INTRA:         -12.796
REMARK INTER:                 -11.499
REMARK INTRA:                  -1.298
REMARK UNBOUND:                -1.064
REMARK  Name = lig_assembled_27.pdb
REMARK  11 active torsions:
REMARK  status: ('A' for Active; 'I' for Inactive)
REMARK    1  A    between atoms: _2  and  _8
REMARK    2  A    between atoms: _5  and  _6
REMARK    3  A    between atoms: _5  and  _13
REMARK    4  A    between atoms: _13  and  _15
REMARK    5  A    between atoms: _14  and  _19
REMARK    6  A    between atoms: _15  and  _18
REMARK    7  A    between atoms: _23  and  _33
REMARK    8  A    between atoms: _25  and  _26
REMARK    9  A    between atoms: _27  and  _29
REMARK   10  A    between atoms: _29  and  _31
REMARK   11  A    between atoms: _31  and  _33
REMARK                            x       y       z     vdW  Elec       q    Type
REMARK                         _______ _______ _______ _____ _____    ______ ____
ROOT
ATOM      1  C   UNL     1      28.625  17.354  -0.857  0.00  0.00    +0.400 C 
ATOM      2  N   UNL     1      29.288  16.235  -0.412  0.00  0.00    -0.278 N 
ATOM      3  H   UNL     1      30.190  16.630   0.003  0.00  0.00    +0.152 HD
ATOM      4  O   UNL     1      29.072  18.455  -0.544  0.00  0.00    -0.226 OA
ENDROOT
BRANCH   1   5
ATOM      5  O   UNL     1      27.593  17.134  -1.603  0.00  0.00    -0.450 OA
BRANCH   5   6
ATOM      6  C   UNL     1      27.073  17.528  -2.852  0.00  0.00    +0.240 C 
BRANCH   6   7
ATOM      7  C   UNL     1      26.655  16.415  -3.831  0.00  0.00    +0.100 C 
BRANCH   7   9
ATOM      8  N   UNL     1      26.551  14.196  -2.741  0.00  0.00    -0.134 NA
ATOM      9  C   UNL     1      25.927  15.350  -3.118  0.00  0.00    +0.086 A 
ATOM     10  C   UNL     1      24.611  15.299  -2.719  0.00  0.00    +0.139 A 
ATOM     11  N   UNL     1      24.475  14.083  -2.089  0.00  0.00    -0.220 N 
ATOM     12  N   UNL     1      25.664  13.432  -2.118  0.00  0.00    -0.061 NA
BRANCH  11  13
ATOM     13  C   UNL     1      23.324  13.523  -1.478  0.00  0.00    +0.068 A 
ATOM     14  C   UNL     1      23.470  12.491  -0.537  0.00  0.00    +0.028 A 
ATOM     15  C   UNL     1      22.344  11.928   0.069  0.00  0.00    +0.003 A 
ATOM     16  C   UNL     1      21.069  12.388  -0.259  0.00  0.00    +0.020 A 
ATOM     17  C   UNL     1      20.925  13.414  -1.191  0.00  0.00    +0.043 A 
ATOM     18 CL   UNL     1      19.352  13.984  -1.595  0.00  0.00    -0.083 Cl
ATOM     19  C   UNL     1      22.042  13.986  -1.803  0.00  0.00    +0.047 A 
ENDBRANCH  11  13
ENDBRANCH   7   9
ENDBRANCH   6   7
ENDBRANCH   5   6
ENDBRANCH   1   5
BRANCH   2  20
ATOM     20  C   UNL     1      29.305  14.784  -0.242  0.00  0.00    +0.152 C 
BRANCH  20  21
ATOM     21  C   UNL     1      30.681  14.150   0.048  0.00  0.00    +0.193 C 
ATOM     22  O   UNL     1      31.405  14.140  -1.203  0.00  0.00    -0.219 OA
BRANCH  21  23
ATOM     23  C   UNL     1      31.617  14.890   1.029  0.00  0.00    +0.212 C 
ATOM     24  O   UNL     1      30.921  15.973   1.667  0.00  0.00    -0.218 OA
BRANCH  23  25
ATOM     25  C   UNL     1      32.220  13.952   2.143  0.00  0.00    +0.171 C 
ATOM     26  O   UNL     1      33.530  13.493   1.823  0.00  0.00    -0.343 OA
ATOM     27  C   UNL     1      34.195  12.470   2.504  0.00  0.00    +0.220 C 
ATOM     28  C   UNL     1      33.320  11.212   2.638  0.00  0.00    +0.076 C 
ATOM     29  C   UNL     1      31.982  11.643   3.263  0.00  0.00    +0.177 C 
ATOM     30  O   UNL     1      31.149  10.507   3.447  0.00  0.00    -0.221 OA
ATOM     31  C   UNL     1      31.290  12.715   2.365  0.00  0.00    +0.155 C 
BRANCH  31  32
ATOM     32  N   UNL     1      30.016  13.122   2.952  0.00  0.00    -0.202 NA
ATOM     33  C   UNL     1      28.765  12.644   2.728  0.00  0.00    +0.242 C 
ATOM     34  C   UNL     1      27.667  13.039   3.681  0.00  0.00    +0.096 C 
ATOM     35  O   UNL     1      28.560  11.908   1.764  0.00  0.00    -0.273 OA
ENDBRANCH  31  32
BRANCH  27  36
ATOM     36  C   UNL     1      34.798  12.934   3.939  0.00  0.00    +0.391 C 
ATOM     37  O   UNL     1      35.118  11.787   4.569  0.00  0.00    -0.243 OA
ATOM     38  O   UNL     1      35.027  14.249   3.837  0.00  0.00    -0.243 OA
ENDBRANCH  27  36
ENDBRANCH  23  25
ENDBRANCH  21  23
ENDBRANCH  20  21
ENDBRANCH   2  20
TORSDOF 11
