REMARK VINA RESULT:    -7.545      1.454      4.225
REMARK INTER + INTRA:         -14.759
REMARK INTER:                 -13.181
REMARK INTRA:                  -1.577
REMARK UNBOUND:                -1.480
REMARK  Name = lig_assembled_58.pdb
REMARK  13 active torsions:
REMARK  status: ('A' for Active; 'I' for Inactive)
REMARK    1  A    between atoms: _2  and  _8
REMARK    2  A    between atoms: _5  and  _6
REMARK    3  A    between atoms: _5  and  _20
REMARK    4  A    between atoms: _8  and  _9
REMARK    5  A    between atoms: _8  and  _15
REMARK    6  A    between atoms: _20  and  _22
REMARK    7  A    between atoms: _21  and  _26
REMARK    8  A    between atoms: _22  and  _25
REMARK    9  A    between atoms: _30  and  _40
REMARK   10  A    between atoms: _32  and  _33
REMARK   11  A    between atoms: _34  and  _36
REMARK   12  A    between atoms: _36  and  _38
REMARK   13  A    between atoms: _38  and  _40
REMARK                            x       y       z     vdW  Elec       q    Type
REMARK                         _______ _______ _______ _____ _____    ______ ____
ROOT
ATOM      1  C   UNL     1      28.007  16.824  -1.510  0.00  0.00    +0.400 C 
ATOM      2  N   UNL     1      28.200  15.509  -1.158  0.00  0.00    -0.278 N 
ATOM      3  H   UNL     1      29.216  15.489  -0.827  0.00  0.00    +0.152 HD
ATOM      4  O   UNL     1      28.881  17.637  -1.218  0.00  0.00    -0.226 OA
ENDROOT
BRANCH   2   5
ATOM      5  C   UNL     1      27.649  14.163  -1.023  0.00  0.00    +0.152 C 
BRANCH   5   6
ATOM      6  C   UNL     1      27.838  13.486   0.350  0.00  0.00    +0.193 C 
ATOM      7  O   UNL     1      26.615  12.770   0.631  0.00  0.00    -0.219 OA
BRANCH   6   8
ATOM      8  C   UNL     1      28.947  12.418   0.474  0.00  0.00    +0.212 C 
ATOM      9  O   UNL     1      28.766  11.390  -0.513  0.00  0.00    -0.218 OA
BRANCH   8  10
ATOM     10  C   UNL     1      30.401  13.008   0.326  0.00  0.00    +0.171 C 
ATOM     11  O   UNL     1      30.735  13.310  -1.025  0.00  0.00    -0.343 OA
ATOM     12  C   UNL     1      32.025  13.610  -1.469  0.00  0.00    +0.220 C 
ATOM     13  C   UNL     1      33.049  12.564  -0.998  0.00  0.00    +0.076 C 
ATOM     14  C   UNL     1      32.905  12.429   0.527  0.00  0.00    +0.177 C 
ATOM     15  O   UNL     1      33.860  11.500   1.021  0.00  0.00    -0.221 OA
ATOM     16  C   UNL     1      31.451  11.998   0.893  0.00  0.00    +0.155 C 
BRANCH  16  17
ATOM     17  N   UNL     1      31.312  11.862   2.341  0.00  0.00    -0.202 NA
ATOM     18  C   UNL     1      31.342  12.814   3.309  0.00  0.00    +0.242 C 
ATOM     19  C   UNL     1      30.879  12.441   4.693  0.00  0.00    +0.096 C 
ATOM     20  O   UNL     1      31.740  13.945   3.036  0.00  0.00    -0.273 OA
ENDBRANCH  16  17
BRANCH  12  21
ATOM     21  C   UNL     1      32.501  15.120  -1.102  0.00  0.00    +0.391 C 
ATOM     22  O   UNL     1      31.432  15.687  -0.511  0.00  0.00    -0.243 OA
ATOM     23  O   UNL     1      33.833  15.132  -1.242  0.00  0.00    -0.243 OA
ENDBRANCH  12  21
ENDBRANCH   8  10
ENDBRANCH   6   8
ENDBRANCH   5   6
ENDBRANCH   2   5
BRANCH   1  24
ATOM     24  O   UNL     1      26.915  17.076  -2.154  0.00  0.00    -0.450 OA
BRANCH  24  25
ATOM     25  C   UNL     1      26.448  17.135  -3.482  0.00  0.00    +0.240 C 
BRANCH  25  26
ATOM     26  C   UNL     1      26.160  15.800  -4.194  0.00  0.00    +0.100 C 
BRANCH  26  28
ATOM     27  N   UNL     1      24.109  14.547  -4.822  0.00  0.00    -0.134 NA
ATOM     28  C   UNL     1      24.762  15.390  -3.966  0.00  0.00    +0.086 A 
ATOM     29  C   UNL     1      23.922  15.711  -2.925  0.00  0.00    +0.134 A 
ATOM     30  N   UNL     1      22.828  14.911  -3.118  0.00  0.00    -0.240 N 
ATOM     31  N   UNL     1      22.915  14.274  -4.307  0.00  0.00    -0.065 NA
BRANCH  30  32
ATOM     32  C   UNL     1      21.682  14.662  -2.223  0.00  0.00    +0.169 C 
BRANCH  32  33
ATOM     33  C   UNL     1      21.904  13.460  -1.294  0.00  0.00    -0.019 A 
ATOM     34  C   UNL     1      23.091  12.706  -1.350  0.00  0.00    +0.006 A 
ATOM     35  C   UNL     1      23.286  11.611  -0.503  0.00  0.00    +0.000 A 
ATOM     36  C   UNL     1      22.313  11.265   0.429  0.00  0.00    +0.000 A 
ATOM     37  C   UNL     1      21.158  12.027   0.539  0.00  0.00    +0.000 A 
ATOM     38  C   UNL     1      20.964  13.124  -0.299  0.00  0.00    +0.006 A 
ENDBRANCH  32  33
BRANCH  32  39
ATOM     39  C   UNL     1      20.381  14.617  -3.038  0.00  0.00    -0.019 A 
ATOM     40  C   UNL     1      19.854  15.797  -3.592  0.00  0.00    +0.006 A 
ATOM     41  C   UNL     1      18.642  15.776  -4.286  0.00  0.00    +0.000 A 
ATOM     42  C   UNL     1      17.945  14.581  -4.452  0.00  0.00    +0.000 A 
ATOM     43  C   UNL     1      18.448  13.405  -3.910  0.00  0.00    +0.000 A 
ATOM     44  C   UNL     1      19.648  13.426  -3.200  0.00  0.00    +0.006 A 
ENDBRANCH  32  39
ENDBRANCH  30  32
ENDBRANCH  26  28
ENDBRANCH  25  26
ENDBRANCH  24  25
ENDBRANCH   1  24
TORSDOF 13
