REMARK VINA RESULT:    -6.815      2.402      8.869
REMARK INTER + INTRA:         -12.983
REMARK INTER:                 -11.588
REMARK INTRA:                  -1.394
REMARK UNBOUND:                -1.188
REMARK  Name = lig_assembled_35.pdb
REMARK  14 active torsions:
REMARK  status: ('A' for Active; 'I' for Inactive)
REMARK    1  A    between atoms: _2  and  _8
REMARK    2  A    between atoms: _4  and  _8
REMARK    3  A    between atoms: _4  and  _10
REMARK    4  A    between atoms: _5  and  _6
REMARK    5  A    between atoms: _5  and  _12
REMARK    6  A    between atoms: _8  and  _9
REMARK    7  A    between atoms: _12  and  _14
REMARK    8  A    between atoms: _13  and  _18
REMARK    9  A    between atoms: _14  and  _17
REMARK   10  A    between atoms: _22  and  _32
REMARK   11  A    between atoms: _24  and  _25
REMARK   12  A    between atoms: _26  and  _28
REMARK   13  A    between atoms: _28  and  _30
REMARK   14  A    between atoms: _30  and  _32
REMARK                            x       y       z     vdW  Elec       q    Type
REMARK                         _______ _______ _______ _____ _____    ______ ____
ROOT
ATOM      1  C   UNL     1      26.552  16.299  -2.931  0.00  0.00    +0.152 C 
ENDROOT
BRANCH   1   3
ATOM      2  C   UNL     1      27.863  17.596  -0.920  0.00  0.00    +0.400 C 
ATOM      3  N   UNL     1      26.895  17.117  -1.771  0.00  0.00    -0.278 N 
ATOM      4  H   UNL     1      25.998  17.570  -1.405  0.00  0.00    +0.152 HD
ATOM      5  O   UNL     1      27.554  18.489  -0.135  0.00  0.00    -0.226 OA
BRANCH   2   6
ATOM      6  O   UNL     1      29.019  17.025  -1.010  0.00  0.00    -0.450 OA
BRANCH   6   7
ATOM      7  C   UNL     1      29.994  16.449  -0.172  0.00  0.00    +0.240 C 
BRANCH   7   8
ATOM      8  C   UNL     1      30.015  14.913  -0.055  0.00  0.00    +0.100 C 
BRANCH   8  10
ATOM      9  N   UNL     1      31.220  14.571   2.079  0.00  0.00    -0.134 NA
ATOM     10  C   UNL     1      31.195  14.474   0.712  0.00  0.00    +0.086 A 
ATOM     11  C   UNL     1      32.388  13.940   0.279  0.00  0.00    +0.134 A 
ATOM     12  N   UNL     1      33.089  13.720   1.428  0.00  0.00    -0.238 N 
ATOM     13  N   UNL     1      32.391  14.121   2.505  0.00  0.00    -0.065 NA
BRANCH  12  14
ATOM     14  C   UNL     1      34.419  13.172   1.611  0.00  0.00    +0.214 C 
ATOM     15  C   UNL     1      35.245  13.305   0.335  0.00  0.00    +0.045 C 
BRANCH  14  16
ATOM     16  C   UNL     1      35.113  13.789   2.808  0.00  0.00    +0.329 C 
ATOM     17  O   UNL     1      35.648  13.149   3.703  0.00  0.00    -0.249 OA
BRANCH  16  18
ATOM     18  O   UNL     1      35.077  15.144   2.838  0.00  0.00    -0.479 OA
ATOM     19  H   UNL     1      35.400  15.596   2.032  0.00  0.00    +0.295 HD
ENDBRANCH  16  18
ENDBRANCH  14  16
ENDBRANCH  12  14
ENDBRANCH   8  10
ENDBRANCH   7   8
ENDBRANCH   6   7
ENDBRANCH   2   6
ENDBRANCH   1   3
BRANCH   1  20
ATOM     20  C   UNL     1      25.512  15.185  -2.694  0.00  0.00    +0.193 C 
ATOM     21  O   UNL     1      24.741  15.070  -3.911  0.00  0.00    -0.219 OA
BRANCH  20  22
ATOM     22  C   UNL     1      26.040  13.756  -2.437  0.00  0.00    +0.212 C 
ATOM     23  O   UNL     1      27.456  13.695  -2.672  0.00  0.00    -0.218 OA
BRANCH  22  24
ATOM     24  C   UNL     1      25.749  13.236  -0.978  0.00  0.00    +0.171 C 
ATOM     25  O   UNL     1      26.757  12.352  -0.500  0.00  0.00    -0.343 OA
ATOM     26  C   UNL     1      26.635  11.563   0.646  0.00  0.00    +0.220 C 
ATOM     27  C   UNL     1      25.324  10.758   0.647  0.00  0.00    +0.076 C 
ATOM     28  C   UNL     1      24.172  11.750   0.419  0.00  0.00    +0.177 C 
ATOM     29  O   UNL     1      22.930  11.061   0.450  0.00  0.00    -0.221 OA
ATOM     30  C   UNL     1      24.369  12.500  -0.935  0.00  0.00    +0.155 C 
BRANCH  30  31
ATOM     31  N   UNL     1      23.273  13.439  -1.159  0.00  0.00    -0.202 NA
ATOM     32  C   UNL     1      22.243  13.376  -2.041  0.00  0.00    +0.242 C 
ATOM     33  C   UNL     1      21.089  14.328  -1.863  0.00  0.00    +0.096 C 
ATOM     34  O   UNL     1      22.274  12.552  -2.953  0.00  0.00    -0.273 OA
ENDBRANCH  30  31
BRANCH  26  35
ATOM     35  C   UNL     1      26.826  12.395   2.029  0.00  0.00    +0.391 C 
ATOM     36  O   UNL     1      27.553  13.476   1.686  0.00  0.00    -0.243 OA
ATOM     37  O   UNL     1      25.956  11.869   2.900  0.00  0.00    -0.243 OA
ENDBRANCH  26  35
ENDBRANCH  22  24
ENDBRANCH  20  22
ENDBRANCH   1  20
TORSDOF 13
