REMARK VINA RESULT:    -7.480      3.393      7.560
REMARK INTER + INTRA:         -13.608
REMARK INTER:                 -11.018
REMARK INTRA:                  -2.590
REMARK UNBOUND:                -1.318
REMARK  Name = lig_assembled_40.pdb
REMARK  12 active torsions:
REMARK  status: ('A' for Active; 'I' for Inactive)
REMARK    1  A    between atoms: _2  and  _8
REMARK    2  A    between atoms: _5  and  _6
REMARK    3  A    between atoms: _5  and  _14
REMARK    4  A    between atoms: _11  and  _12
REMARK    5  A    between atoms: _14  and  _16
REMARK    6  A    between atoms: _15  and  _20
REMARK    7  A    between atoms: _16  and  _19
REMARK    8  A    between atoms: _24  and  _34
REMARK    9  A    between atoms: _26  and  _27
REMARK   10  A    between atoms: _28  and  _30
REMARK   11  A    between atoms: _30  and  _32
REMARK   12  A    between atoms: _32  and  _34
REMARK                            x       y       z     vdW  Elec       q    Type
REMARK                         _______ _______ _______ _____ _____    ______ ____
ROOT
ATOM      1  C   UNL     1      28.453  17.174  -0.510  0.00  0.00    +0.400 C 
ATOM      2  N   UNL     1      27.457  16.593  -1.260  0.00  0.00    -0.278 N 
ATOM      3  H   UNL     1      26.563  17.004  -0.843  0.00  0.00    +0.152 HD
ATOM      4  O   UNL     1      28.145  18.082   0.258  0.00  0.00    -0.226 OA
ENDROOT
BRANCH   1   5
ATOM      5  O   UNL     1      29.635  16.675  -0.667  0.00  0.00    -0.450 OA
BRANCH   5   6
ATOM      6  C   UNL     1      30.507  15.772  -0.029  0.00  0.00    +0.240 C 
BRANCH   6   7
ATOM      7  C   UNL     1      30.301  14.270  -0.304  0.00  0.00    +0.100 C 
BRANCH   7   9
ATOM      8  N   UNL     1      28.957  14.067   1.765  0.00  0.00    -0.134 NA
ATOM      9  C   UNL     1      29.135  13.766   0.446  0.00  0.00    +0.086 A 
ATOM     10  C   UNL     1      28.087  12.986   0.018  0.00  0.00    +0.139 A 
ATOM     11  N   UNL     1      27.265  12.859   1.114  0.00  0.00    -0.220 N 
ATOM     12  N   UNL     1      27.825  13.506   2.167  0.00  0.00    -0.061 NA
BRANCH  11  13
ATOM     13  C   UNL     1      26.003  12.216   1.204  0.00  0.00    +0.067 A 
ATOM     14  C   UNL     1      25.148  12.157   0.097  0.00  0.00    +0.028 A 
ATOM     15  C   UNL     1      23.879  11.582   0.220  0.00  0.00    +0.005 A 
ATOM     16  C   UNL     1      23.448  11.060   1.444  0.00  0.00    -0.050 A 
ATOM     17  C   UNL     1      24.319  11.088   2.540  0.00  0.00    +0.005 A 
ATOM     18  C   UNL     1      22.071  10.486   1.592  0.00  0.00    +0.044 C 
ATOM     19  C   UNL     1      25.590  11.662   2.424  0.00  0.00    +0.028 A 
ENDBRANCH  11  13
ENDBRANCH   7   9
ENDBRANCH   6   7
ENDBRANCH   5   6
ENDBRANCH   1   5
BRANCH   2  20
ATOM     20  C   UNL     1      27.083  15.700  -2.353  0.00  0.00    +0.152 C 
BRANCH  20  21
ATOM     21  C   UNL     1      25.923  16.175  -3.252  0.00  0.00    +0.193 C 
ATOM     22  O   UNL     1      26.347  17.417  -3.856  0.00  0.00    -0.219 OA
BRANCH  21  23
ATOM     23  C   UNL     1      25.532  15.279  -4.448  0.00  0.00    +0.212 C 
ATOM     24  O   UNL     1      26.263  15.663  -5.623  0.00  0.00    -0.218 OA
BRANCH  23  25
ATOM     25  C   UNL     1      25.774  13.744  -4.183  0.00  0.00    +0.171 C 
ATOM     26  O   UNL     1      26.601  13.141  -5.173  0.00  0.00    -0.343 OA
ATOM     27  C   UNL     1      26.777  11.763  -5.321  0.00  0.00    +0.220 C 
ATOM     28  C   UNL     1      25.431  11.019  -5.375  0.00  0.00    +0.076 C 
ATOM     29  C   UNL     1      24.620  11.439  -4.138  0.00  0.00    +0.177 C 
ATOM     30  O   UNL     1      23.379  10.747  -4.118  0.00  0.00    -0.221 OA
ATOM     31  C   UNL     1      24.407  12.985  -4.134  0.00  0.00    +0.155 C 
BRANCH  31  32
ATOM     32  N   UNL     1      23.631  13.387  -2.964  0.00  0.00    -0.202 NA
ATOM     33  C   UNL     1      22.457  14.065  -2.893  0.00  0.00    +0.242 C 
ATOM     34  C   UNL     1      21.725  14.090  -1.576  0.00  0.00    +0.096 C 
ATOM     35  O   UNL     1      22.022  14.634  -3.892  0.00  0.00    -0.273 OA
ENDBRANCH  31  32
BRANCH  27  36
ATOM     36  C   UNL     1      27.773  11.115  -4.213  0.00  0.00    +0.391 C 
ATOM     37  O   UNL     1      27.730   9.788  -4.441  0.00  0.00    -0.243 OA
ATOM     38  O   UNL     1      28.476  12.136  -3.706  0.00  0.00    -0.243 OA
ENDBRANCH  27  36
ENDBRANCH  23  25
ENDBRANCH  21  23
ENDBRANCH  20  21
ENDBRANCH   2  20
TORSDOF 11
