REMARK VINA RESULT:    -6.461      1.419      2.060
REMARK INTER + INTRA:         -14.342
REMARK INTER:                 -12.586
REMARK INTRA:                  -1.755
REMARK UNBOUND:                -1.837
REMARK  Name = lig_assembled_45.pdb
REMARK  19 active torsions:
REMARK  status: ('A' for Active; 'I' for Inactive)
REMARK    1  A    between atoms: _2  and  _9
REMARK    2  A    between atoms: _3  and  _11
REMARK    3  A    between atoms: _3  and  _12
REMARK    4  A    between atoms: _3  and  _13
REMARK    5  A    between atoms: _3  and  _15
REMARK    6  A    between atoms: _5  and  _15
REMARK    7  A    between atoms: _6  and  _7
REMARK    8  A    between atoms: _6  and  _16
REMARK    9  A    between atoms: _9  and  _10
REMARK   10  A    between atoms: _10  and  _11
REMARK   11  A    between atoms: _13  and  _14
REMARK   12  A    between atoms: _16  and  _18
REMARK   13  A    between atoms: _17  and  _22
REMARK   14  A    between atoms: _18  and  _21
REMARK   15  A    between atoms: _26  and  _36
REMARK   16  A    between atoms: _28  and  _29
REMARK   17  A    between atoms: _30  and  _32
REMARK   18  A    between atoms: _32  and  _34
REMARK   19  A    between atoms: _34  and  _36
REMARK                            x       y       z     vdW  Elec       q    Type
REMARK                         _______ _______ _______ _____ _____    ______ ____
ROOT
ATOM      1  C   UNL     1      28.789  16.973  -0.496  0.00  0.00    +0.400 C 
ATOM      2  N   UNL     1      28.991  15.842   0.260  0.00  0.00    -0.278 N 
ATOM      3  H   UNL     1      29.751  16.139   0.951  0.00  0.00    +0.152 HD
ATOM      4  O   UNL     1      29.324  18.017  -0.131  0.00  0.00    -0.226 OA
ENDROOT
BRANCH   2   5
ATOM      5  C   UNL     1      28.632  14.456   0.546  0.00  0.00    +0.152 C 
BRANCH   5   6
ATOM      6  C   UNL     1      29.192  13.864   1.855  0.00  0.00    +0.193 C 
ATOM      7  O   UNL     1      28.110  13.874   2.812  0.00  0.00    -0.219 OA
BRANCH   6   8
ATOM      8  C   UNL     1      29.671  12.396   1.829  0.00  0.00    +0.212 C 
ATOM      9  O   UNL     1      29.539  11.848   0.507  0.00  0.00    -0.218 OA
BRANCH   8  10
ATOM     10  C   UNL     1      31.164  12.217   2.302  0.00  0.00    +0.171 C 
ATOM     11  O   UNL     1      31.318  12.391   3.707  0.00  0.00    -0.343 OA
ATOM     12  C   UNL     1      32.549  12.528   4.353  0.00  0.00    +0.220 C 
ATOM     13  C   UNL     1      33.425  13.604   3.689  0.00  0.00    +0.076 C 
ATOM     14  C   UNL     1      33.515  13.268   2.192  0.00  0.00    +0.177 C 
ATOM     15  O   UNL     1      34.349  14.212   1.535  0.00  0.00    -0.221 OA
ATOM     16  C   UNL     1      32.088  13.238   1.561  0.00  0.00    +0.155 C 
BRANCH  16  17
ATOM     17  N   UNL     1      32.169  12.925   0.136  0.00  0.00    -0.202 NA
ATOM     18  C   UNL     1      32.117  13.753  -0.938  0.00  0.00    +0.242 C 
ATOM     19  C   UNL     1      32.521  13.207  -2.283  0.00  0.00    +0.096 C 
ATOM     20  O   UNL     1      31.746  14.916  -0.791  0.00  0.00    -0.273 OA
ENDBRANCH  16  17
BRANCH  12  21
ATOM     21  C   UNL     1      33.351  11.126   4.523  0.00  0.00    +0.391 C 
ATOM     22  O   UNL     1      34.615  11.482   4.821  0.00  0.00    -0.243 OA
ATOM     23  O   UNL     1      32.415  10.172   4.602  0.00  0.00    -0.243 OA
ENDBRANCH  12  21
ENDBRANCH   8  10
ENDBRANCH   6   8
ENDBRANCH   5   6
ENDBRANCH   2   5
BRANCH   1  24
ATOM     24  O   UNL     1      28.067  16.815  -1.556  0.00  0.00    -0.450 OA
BRANCH  24  25
ATOM     25  C   UNL     1      27.184  17.555  -2.367  0.00  0.00    +0.240 C 
BRANCH  25  26
ATOM     26  C   UNL     1      27.057  17.138  -3.845  0.00  0.00    +0.100 C 
BRANCH  26  28
ATOM     27  N   UNL     1      25.756  15.499  -5.175  0.00  0.00    -0.134 NA
ATOM     28  C   UNL     1      25.924  16.211  -4.018  0.00  0.00    +0.086 A 
ATOM     29  C   UNL     1      24.904  15.902  -3.147  0.00  0.00    +0.133 A 
ATOM     30  N   UNL     1      24.159  14.998  -3.841  0.00  0.00    -0.251 N 
ATOM     31  N   UNL     1      24.661  14.760  -5.055  0.00  0.00    -0.065 NA
BRANCH  30  32
ATOM     32  C   UNL     1      22.942  14.347  -3.406  0.00  0.00    +0.150 C 
BRANCH  32  33
ATOM     33  C   UNL     1      22.752  14.392  -1.895  0.00  0.00    +0.074 C 
BRANCH  33  34
ATOM     34  C   UNL     1      23.250  13.180  -1.097  0.00  0.00    +0.134 C 
BRANCH  34  35
ATOM     35  N   UNL     1      22.192  12.130  -0.620  0.00  0.00    +0.241 N 
ATOM     36  C   UNL     1      20.849  12.847  -0.403  0.00  0.00    +0.192 C 
BRANCH  35  37
ATOM     37  C   UNL     1      22.701  11.602   0.763  0.00  0.00    +0.129 C 
ATOM     38  C   UNL     1      21.665  11.684   1.877  0.00  0.00    +0.060 C 
ENDBRANCH  35  37
BRANCH  35  39
ATOM     39  C   UNL     1      21.977  10.947  -1.581  0.00  0.00    +0.129 C 
ATOM     40  C   UNL     1      20.905  11.184  -2.632  0.00  0.00    +0.060 C 
ENDBRANCH  35  39
ENDBRANCH  34  35
ENDBRANCH  33  34
ENDBRANCH  32  33
ENDBRANCH  30  32
ENDBRANCH  26  28
ENDBRANCH  25  26
ENDBRANCH  24  25
ENDBRANCH   1  24
TORSDOF 16
