REMARK VINA RESULT:    -6.822      2.554      3.858
REMARK INTER + INTRA:         -12.707
REMARK INTER:                 -11.136
REMARK INTRA:                  -1.571
REMARK UNBOUND:                -1.499
REMARK  Name = lig_assembled_15.pdb
REMARK  11 active torsions:
REMARK  status: ('A' for Active; 'I' for Inactive)
REMARK    1  A    between atoms: _2  and  _8
REMARK    2  A    between atoms: _5  and  _6
REMARK    3  A    between atoms: _5  and  _13
REMARK    4  A    between atoms: _13  and  _15
REMARK    5  A    between atoms: _14  and  _19
REMARK    6  A    between atoms: _15  and  _18
REMARK    7  A    between atoms: _23  and  _33
REMARK    8  A    between atoms: _25  and  _26
REMARK    9  A    between atoms: _27  and  _29
REMARK   10  A    between atoms: _29  and  _31
REMARK   11  A    between atoms: _31  and  _33
REMARK                            x       y       z     vdW  Elec       q    Type
REMARK                         _______ _______ _______ _____ _____    ______ ____
ROOT
ATOM      1  C   UNL     1      28.780  16.923  -0.163  0.00  0.00    +0.400 C 
ATOM      2  N   UNL     1      30.093  16.817   0.232  0.00  0.00    -0.278 N 
ATOM      3  H   UNL     1      30.419  17.834   0.281  0.00  0.00    +0.152 HD
ATOM      4  O   UNL     1      28.269  18.040  -0.182  0.00  0.00    -0.226 OA
ENDROOT
BRANCH   1   5
ATOM      5  O   UNL     1      28.209  15.816  -0.511  0.00  0.00    -0.450 OA
BRANCH   5   6
ATOM      6  C   UNL     1      27.832  15.132  -1.683  0.00  0.00    +0.240 C 
BRANCH   6   7
ATOM      7  C   UNL     1      26.810  15.819  -2.609  0.00  0.00    +0.100 C 
BRANCH   7   9
ATOM      8  N   UNL     1      25.336  13.995  -1.821  0.00  0.00    -0.134 NA
ATOM      9  C   UNL     1      25.484  15.189  -2.466  0.00  0.00    +0.086 A 
ATOM     10  C   UNL     1      24.251  15.626  -2.891  0.00  0.00    +0.139 A 
ATOM     11  N   UNL     1      23.363  14.670  -2.454  0.00  0.00    -0.220 N 
ATOM     12  N   UNL     1      24.047  13.683  -1.823  0.00  0.00    -0.061 NA
BRANCH  11  13
ATOM     13  C   UNL     1      21.949  14.651  -2.570  0.00  0.00    +0.067 A 
ATOM     14  C   UNL     1      21.162  13.920  -1.669  0.00  0.00    +0.029 A 
ATOM     15  C   UNL     1      19.773  13.882  -1.822  0.00  0.00    +0.017 A 
ATOM     16  C   UNL     1      19.169  14.573  -2.871  0.00  0.00    +0.018 A 
ATOM     17 BR   UNL     1      17.293  14.493  -3.089  0.00  0.00    -0.050 Br
ATOM     18  C   UNL     1      19.939  15.315  -3.763  0.00  0.00    +0.017 A 
ATOM     19  C   UNL     1      21.328  15.358  -3.614  0.00  0.00    +0.029 A 
ENDBRANCH  11  13
ENDBRANCH   7   9
ENDBRANCH   6   7
ENDBRANCH   5   6
ENDBRANCH   1   5
BRANCH   2  20
ATOM     20  C   UNL     1      31.210  15.961   0.619  0.00  0.00    +0.152 C 
BRANCH  20  21
ATOM     21  C   UNL     1      31.640  14.897  -0.412  0.00  0.00    +0.193 C 
ATOM     22  O   UNL     1      32.716  15.477  -1.183  0.00  0.00    -0.219 OA
BRANCH  21  23
ATOM     23  C   UNL     1      32.224  13.573   0.128  0.00  0.00    +0.212 C 
ATOM     24  O   UNL     1      33.557  13.371  -0.371  0.00  0.00    -0.218 OA
BRANCH  23  25
ATOM     25  C   UNL     1      32.260  13.502   1.702  0.00  0.00    +0.171 C 
ATOM     26  O   UNL     1      33.541  13.138   2.206  0.00  0.00    -0.343 OA
ATOM     27  C   UNL     1      33.792  12.768   3.529  0.00  0.00    +0.220 C 
ATOM     28  C   UNL     1      32.817  11.679   4.011  0.00  0.00    +0.076 C 
ATOM     29  C   UNL     1      31.390  12.183   3.739  0.00  0.00    +0.177 C 
ATOM     30  O   UNL     1      30.446  11.229   4.204  0.00  0.00    -0.221 OA
ATOM     31  C   UNL     1      31.202  12.471   2.217  0.00  0.00    +0.155 C 
BRANCH  31  32
ATOM     32  N   UNL     1      29.845  12.943   1.954  0.00  0.00    -0.202 NA
ATOM     33  C   UNL     1      28.821  12.325   1.312  0.00  0.00    +0.242 C 
ATOM     34  C   UNL     1      27.440  12.914   1.438  0.00  0.00    +0.096 C 
ATOM     35  O   UNL     1      29.040  11.312   0.653  0.00  0.00    -0.273 OA
ENDBRANCH  31  32
BRANCH  27  36
ATOM     36  C   UNL     1      33.837  14.026   4.556  0.00  0.00    +0.391 C 
ATOM     37  O   UNL     1      33.790  13.474   5.784  0.00  0.00    -0.243 OA
ATOM     38  O   UNL     1      34.202  15.087   3.825  0.00  0.00    -0.243 OA
ENDBRANCH  27  36
ENDBRANCH  23  25
ENDBRANCH  21  23
ENDBRANCH  20  21
ENDBRANCH   2  20
TORSDOF 11
