REMARK VINA RESULT:    -6.903      3.012      8.643
REMARK INTER + INTRA:         -15.496
REMARK INTER:                 -12.626
REMARK INTRA:                  -2.870
REMARK UNBOUND:                -2.540
REMARK  Name = lig_assembled_31.pdb
REMARK  15 active torsions:
REMARK  status: ('A' for Active; 'I' for Inactive)
REMARK    1  A    between atoms: _2  and  _10
REMARK    2  A    between atoms: _3  and  _11
REMARK    3  A    between atoms: _4  and  _13
REMARK    4  A    between atoms: _7  and  _8
REMARK    5  A    between atoms: _7  and  _19
REMARK    6  A    between atoms: _10  and  _11
REMARK    7  A    between atoms: _13  and  _14
REMARK    8  A    between atoms: _19  and  _21
REMARK    9  A    between atoms: _20  and  _25
REMARK   10  A    between atoms: _21  and  _24
REMARK   11  A    between atoms: _29  and  _39
REMARK   12  A    between atoms: _31  and  _32
REMARK   13  A    between atoms: _33  and  _35
REMARK   14  A    between atoms: _35  and  _37
REMARK   15  A    between atoms: _37  and  _39
REMARK                            x       y       z     vdW  Elec       q    Type
REMARK                         _______ _______ _______ _____ _____    ______ ____
ROOT
ATOM      1  C   UNL     1      28.164  17.280  -0.870  0.00  0.00    +0.400 C 
ATOM      2  N   UNL     1      28.562  16.297   0.005  0.00  0.00    -0.278 N 
ATOM      3  H   UNL     1      29.056  16.842   0.781  0.00  0.00    +0.152 HD
ATOM      4  O   UNL     1      28.277  18.451  -0.516  0.00  0.00    -0.226 OA
ENDROOT
BRANCH   2   5
ATOM      5  C   UNL     1      28.600  14.878   0.349  0.00  0.00    +0.152 C 
BRANCH   5   6
ATOM      6  C   UNL     1      29.936  14.152   0.092  0.00  0.00    +0.193 C 
ATOM      7  O   UNL     1      30.045  13.975  -1.337  0.00  0.00    -0.219 OA
BRANCH   6   8
ATOM      8  C   UNL     1      31.236  14.885   0.490  0.00  0.00    +0.212 C 
ATOM      9  O   UNL     1      30.940  16.008   1.336  0.00  0.00    -0.218 OA
BRANCH   8  10
ATOM     10  C   UNL     1      32.275  13.957   1.229  0.00  0.00    +0.171 C 
ATOM     11  O   UNL     1      32.630  14.450   2.517  0.00  0.00    -0.343 OA
ATOM     12  C   UNL     1      33.697  13.967   3.279  0.00  0.00    +0.220 C 
ATOM     13  C   UNL     1      35.001  13.915   2.465  0.00  0.00    +0.076 C 
ATOM     14  C   UNL     1      34.713  13.122   1.179  0.00  0.00    +0.177 C 
ATOM     15  O   UNL     1      35.900  13.009   0.407  0.00  0.00    -0.221 OA
ATOM     16  C   UNL     1      33.572  13.810   0.368  0.00  0.00    +0.155 C 
BRANCH  16  17
ATOM     17  N   UNL     1      33.300  13.064  -0.858  0.00  0.00    -0.202 NA
ATOM     18  C   UNL     1      33.325  13.479  -2.150  0.00  0.00    +0.242 C 
ATOM     19  C   UNL     1      33.294  12.436  -3.237  0.00  0.00    +0.096 C 
ATOM     20  O   UNL     1      33.374  14.681  -2.401  0.00  0.00    -0.273 OA
ENDBRANCH  16  17
BRANCH  12  21
ATOM     21  C   UNL     1      33.385  12.545   4.000  0.00  0.00    +0.391 C 
ATOM     22  O   UNL     1      34.588  12.087   4.399  0.00  0.00    -0.243 OA
ATOM     23  O   UNL     1      32.061  12.509   4.192  0.00  0.00    -0.243 OA
ENDBRANCH  12  21
ENDBRANCH   8  10
ENDBRANCH   6   8
ENDBRANCH   5   6
ENDBRANCH   2   5
BRANCH   1  24
ATOM     24  O   UNL     1      27.729  16.868  -2.015  0.00  0.00    -0.450 OA
BRANCH  24  25
ATOM     25  C   UNL     1      26.949  17.333  -3.092  0.00  0.00    +0.240 C 
BRANCH  25  26
ATOM     26  C   UNL     1      26.731  16.375  -4.278  0.00  0.00    +0.100 C 
BRANCH  26  28
ATOM     27  N   UNL     1      25.645  14.152  -4.385  0.00  0.00    -0.134 NA
ATOM     28  C   UNL     1      25.599  15.467  -4.005  0.00  0.00    +0.086 A 
ATOM     29  C   UNL     1      24.395  15.713  -3.384  0.00  0.00    +0.133 A 
ATOM     30  N   UNL     1      23.752  14.511  -3.429  0.00  0.00    -0.250 N 
ATOM     31  N   UNL     1      24.507  13.574  -4.024  0.00  0.00    -0.065 NA
BRANCH  30  32
ATOM     32  C   UNL     1      22.431  14.184  -2.933  0.00  0.00    +0.164 C 
BRANCH  32  33
ATOM     33  C   UNL     1      22.506  13.400  -1.632  0.00  0.00    +0.129 C 
BRANCH  33  34
ATOM     34  N   UNL     1      23.743  13.582  -0.884  0.00  0.00    -0.298 N 
ATOM     35  H   UNL     1      24.243  14.459  -0.918  0.00  0.00    +0.150 HD
ATOM     36  C   UNL     1      24.439  12.465  -0.498  0.00  0.00    +0.300 C 
ATOM     37  O   UNL     1      24.013  11.325  -0.669  0.00  0.00    -0.253 OA
ATOM     38  N   UNL     1      25.626  12.726   0.114  0.00  0.00    -0.292 N 
ATOM     39  H   UNL     1      25.994  13.661   0.215  0.00  0.00    +0.151 HD
BRANCH  38  40
ATOM     40  C   UNL     1      26.430  11.614   0.563  0.00  0.00    +0.180 C 
BRANCH  40  41
ATOM     41  C   UNL     1      27.204  11.908   1.795  0.00  0.00    +0.122 A 
ATOM     42  O   UNL     1      26.726  12.840   2.673  0.00  0.00    -0.466 OA
ATOM     43  C   UNL     1      27.620  12.908   3.699  0.00  0.00    +0.195 A 
ATOM     44  C   UNL     1      28.665  12.037   3.492  0.00  0.00    +0.041 A 
ATOM     45  C   UNL     1      28.398  11.391   2.263  0.00  0.00    +0.046 A 
ENDBRANCH  40  41
ENDBRANCH  38  40
ENDBRANCH  33  34
ENDBRANCH  32  33
ENDBRANCH  30  32
ENDBRANCH  26  28
ENDBRANCH  25  26
ENDBRANCH  24  25
ENDBRANCH   1  24
TORSDOF 15
