REMARK VINA RESULT:    -6.359      3.505      7.746
REMARK INTER + INTRA:         -12.711
REMARK INTER:                 -10.184
REMARK INTRA:                  -2.527
REMARK UNBOUND:                -2.263
REMARK  Name = lig_assembled_52.pdb
REMARK  11 active torsions:
REMARK  status: ('A' for Active; 'I' for Inactive)
REMARK    1  A    between atoms: _2  and  _9
REMARK    2  A    between atoms: _6  and  _7
REMARK    3  A    between atoms: _6  and  _13
REMARK    4  A    between atoms: _13  and  _15
REMARK    5  A    between atoms: _14  and  _19
REMARK    6  A    between atoms: _15  and  _18
REMARK    7  A    between atoms: _23  and  _33
REMARK    8  A    between atoms: _25  and  _26
REMARK    9  A    between atoms: _27  and  _29
REMARK   10  A    between atoms: _29  and  _31
REMARK   11  A    between atoms: _31  and  _33
REMARK                            x       y       z     vdW  Elec       q    Type
REMARK                         _______ _______ _______ _____ _____    ______ ____
ROOT
ATOM      1  C   UNL     1      27.086  15.680  -2.393  0.00  0.00    +0.152 C 
ENDROOT
BRANCH   1   3
ATOM      2  C   UNL     1      28.309  17.346  -0.611  0.00  0.00    +0.400 C 
ATOM      3  N   UNL     1      27.373  16.658  -1.346  0.00  0.00    -0.278 N 
ATOM      4  H   UNL     1      26.443  17.032  -0.974  0.00  0.00    +0.152 HD
ATOM      5  O   UNL     1      27.923  18.275   0.095  0.00  0.00    -0.226 OA
BRANCH   2   6
ATOM      6  O   UNL     1      29.525  16.920  -0.714  0.00  0.00    -0.450 OA
BRANCH   6   7
ATOM      7  C   UNL     1      30.647  16.686   0.105  0.00  0.00    +0.240 C 
BRANCH   7   8
ATOM      8  C   UNL     1      31.067  15.221   0.334  0.00  0.00    +0.100 C 
BRANCH   8  10
ATOM      9  N   UNL     1      29.716  13.583  -0.935  0.00  0.00    -0.134 NA
ATOM     10  C   UNL     1      29.903  14.328   0.193  0.00  0.00    +0.086 A 
ATOM     11  C   UNL     1      28.873  14.076   1.071  0.00  0.00    +0.140 A 
ATOM     12  N   UNL     1      28.084  13.144   0.436  0.00  0.00    -0.218 N 
ATOM     13  N   UNL     1      28.609  12.871  -0.783  0.00  0.00    -0.060 NA
BRANCH  12  14
ATOM     14  C   UNL     1      26.913  12.513   0.906  0.00  0.00    +0.085 A 
ATOM     15  C   UNL     1      25.810  12.285   0.077  0.00  0.00    +0.031 A 
ATOM     16  C   UNL     1      24.675  11.677   0.607  0.00  0.00    +0.022 A 
ATOM     17  C   UNL     1      24.681  11.316   1.944  0.00  0.00    +0.111 A 
ATOM     18  N   UNL     1      25.730  11.516   2.767  0.00  0.00    -0.261 NA
ATOM     19  C   UNL     1      26.827  12.110   2.234  0.00  0.00    +0.138 A 
ENDBRANCH  12  14
ENDBRANCH   8  10
ENDBRANCH   7   8
ENDBRANCH   6   7
ENDBRANCH   2   6
ENDBRANCH   1   3
BRANCH   1  20
ATOM     20  C   UNL     1      25.948  16.043  -3.369  0.00  0.00    +0.193 C 
ATOM     21  O   UNL     1      26.288  17.323  -3.946  0.00  0.00    -0.219 OA
BRANCH  20  22
ATOM     22  C   UNL     1      25.728  15.118  -4.586  0.00  0.00    +0.212 C 
ATOM     23  O   UNL     1      26.483  15.586  -5.715  0.00  0.00    -0.218 OA
BRANCH  22  24
ATOM     24  C   UNL     1      26.116  13.616  -4.307  0.00  0.00    +0.171 C 
ATOM     25  O   UNL     1      26.927  13.060  -5.337  0.00  0.00    -0.343 OA
ATOM     26  C   UNL     1      27.210  11.698  -5.468  0.00  0.00    +0.220 C 
ATOM     27  C   UNL     1      25.932  10.843  -5.420  0.00  0.00    +0.076 C 
ATOM     28  C   UNL     1      25.168  11.225  -4.141  0.00  0.00    +0.177 C 
ATOM     29  O   UNL     1      23.994  10.432  -4.026  0.00  0.00    -0.221 OA
ATOM     30  C   UNL     1      24.825  12.747  -4.154  0.00  0.00    +0.155 C 
BRANCH  30  31
ATOM     31  N   UNL     1      24.093  13.112  -2.944  0.00  0.00    -0.202 NA
ATOM     32  C   UNL     1      22.886  13.719  -2.810  0.00  0.00    +0.242 C 
ATOM     33  C   UNL     1      22.229  13.712  -1.454  0.00  0.00    +0.096 C 
ATOM     34  O   UNL     1      22.362  14.252  -3.786  0.00  0.00    -0.273 OA
ENDBRANCH  30  31
BRANCH  26  35
ATOM     35  C   UNL     1      28.326  11.165  -4.415  0.00  0.00    +0.391 C 
ATOM     36  O   UNL     1      28.161   9.828  -4.381  0.00  0.00    -0.243 OA
ATOM     37  O   UNL     1      29.166  12.188  -4.216  0.00  0.00    -0.243 OA
ENDBRANCH  26  35
ENDBRANCH  22  24
ENDBRANCH  20  22
ENDBRANCH   1  20
TORSDOF 11
