REMARK VINA RESULT:    -6.961      1.597      2.125
REMARK INTER + INTRA:         -15.096
REMARK INTER:                 -12.561
REMARK INTRA:                  -2.535
REMARK UNBOUND:                -2.234
REMARK  Name = lig_assembled_83.pdb
REMARK  15 active torsions:
REMARK  status: ('A' for Active; 'I' for Inactive)
REMARK    1  A    between atoms: _2  and  _11
REMARK    2  A    between atoms: _3  and  _13
REMARK    3  A    between atoms: _8  and  _9
REMARK    4  A    between atoms: _8  and  _19
REMARK    5  A    between atoms: _11  and  _12
REMARK    6  A    between atoms: _12  and  _13
REMARK    7  A    between atoms: _12  and  _17
REMARK    8  A    between atoms: _19  and  _21
REMARK    9  A    between atoms: _20  and  _25
REMARK   10  A    between atoms: _21  and  _24
REMARK   11  A    between atoms: _29  and  _39
REMARK   12  A    between atoms: _31  and  _32
REMARK   13  A    between atoms: _33  and  _35
REMARK   14  A    between atoms: _35  and  _37
REMARK   15  A    between atoms: _37  and  _39
REMARK                            x       y       z     vdW  Elec       q    Type
REMARK                         _______ _______ _______ _____ _____    ______ ____
ROOT
ATOM      1  C   UNL     1      29.028  16.844  -0.490  0.00  0.00    +0.400 C 
ATOM      2  N   UNL     1      29.069  15.517  -0.131  0.00  0.00    -0.278 N 
ATOM      3  H   UNL     1      29.776  15.499   0.669  0.00  0.00    +0.152 HD
ATOM      4  O   UNL     1      29.600  17.657   0.231  0.00  0.00    -0.226 OA
ENDROOT
BRANCH   2   5
ATOM      5  C   UNL     1      28.579  14.156  -0.338  0.00  0.00    +0.152 C 
BRANCH   5   6
ATOM      6  C   UNL     1      28.275  13.342   0.936  0.00  0.00    +0.193 C 
ATOM      7  O   UNL     1      28.899  12.051   0.763  0.00  0.00    -0.219 OA
BRANCH   6   8
ATOM      8  C   UNL     1      28.841  13.869   2.273  0.00  0.00    +0.212 C 
ATOM      9  O   UNL     1      27.821  13.867   3.285  0.00  0.00    -0.218 OA
BRANCH   8  10
ATOM     10  C   UNL     1      30.074  13.039   2.799  0.00  0.00    +0.171 C 
ATOM     11  O   UNL     1      29.836  12.455   4.076  0.00  0.00    -0.343 OA
ATOM     12  C   UNL     1      30.827  11.880   4.876  0.00  0.00    +0.220 C 
ATOM     13  C   UNL     1      32.034  12.817   5.051  0.00  0.00    +0.076 C 
ATOM     14  C   UNL     1      32.500  13.239   3.648  0.00  0.00    +0.177 C 
ATOM     15  O   UNL     1      33.642  14.078   3.751  0.00  0.00    -0.221 OA
ATOM     16  C   UNL     1      31.339  13.954   2.888  0.00  0.00    +0.155 C 
BRANCH  16  17
ATOM     17  N   UNL     1      31.779  14.363   1.557  0.00  0.00    -0.202 NA
ATOM     18  C   UNL     1      32.192  13.605   0.509  0.00  0.00    +0.242 C 
ATOM     19  C   UNL     1      32.309  14.258  -0.844  0.00  0.00    +0.096 C 
ATOM     20  O   UNL     1      32.458  12.418   0.685  0.00  0.00    -0.273 OA
ENDBRANCH  16  17
BRANCH  12  21
ATOM     21  C   UNL     1      31.285  10.403   4.377  0.00  0.00    +0.391 C 
ATOM     22  O   UNL     1      32.433  10.154   5.038  0.00  0.00    -0.243 OA
ATOM     23  O   UNL     1      30.225   9.878   3.751  0.00  0.00    -0.243 OA
ENDBRANCH  12  21
ENDBRANCH   8  10
ENDBRANCH   6   8
ENDBRANCH   5   6
ENDBRANCH   2   5
BRANCH   1  24
ATOM     24  O   UNL     1      28.404  17.106  -1.592  0.00  0.00    -0.450 OA
BRANCH  24  25
ATOM     25  C   UNL     1      27.197  17.690  -2.022  0.00  0.00    +0.240 C 
BRANCH  25  26
ATOM     26  C   UNL     1      26.885  17.648  -3.531  0.00  0.00    +0.100 C 
BRANCH  26  28
ATOM     27  N   UNL     1      26.100  15.798  -4.989  0.00  0.00    -0.134 NA
ATOM     28  C   UNL     1      25.971  16.533  -3.838  0.00  0.00    +0.086 A 
ATOM     29  C   UNL     1      24.907  16.045  -3.114  0.00  0.00    +0.133 A 
ATOM     30  N   UNL     1      24.445  15.011  -3.867  0.00  0.00    -0.249 N 
ATOM     31  N   UNL     1      25.153  14.868  -4.998  0.00  0.00    -0.065 NA
BRANCH  30  32
ATOM     32  C   UNL     1      23.317  14.147  -3.588  0.00  0.00    +0.178 C 
BRANCH  32  33
ATOM     33  C   UNL     1      23.166  13.870  -2.089  0.00  0.00    +0.156 C 
BRANCH  33  34
ATOM     34  O   UNL     1      22.050  14.603  -1.570  0.00  0.00    -0.388 OA
ATOM     35  H   UNL     1      22.369  15.381  -1.070  0.00  0.00    +0.210 HD
ENDBRANCH  33  34
BRANCH  33  36
ATOM     36  C   UNL     1      22.982  12.366  -1.834  0.00  0.00    +0.162 C 
BRANCH  36  37
ATOM     37  N   UNL     1      23.604  11.930  -0.594  0.00  0.00    -0.269 N 
ATOM     38  C   UNL     1      24.948  11.660  -0.474  0.00  0.00    +0.113 A 
ATOM     39  C   UNL     1      25.139  11.313   0.843  0.00  0.00    +0.137 A 
ATOM     40  N   UNL     1      23.954  11.332   1.526  0.00  0.00    -0.172 NA
ATOM     41  C   UNL     1      23.048  11.711   0.644  0.00  0.00    +0.450 A 
ATOM     42  N   UNL     1      21.652  11.868   0.983  0.00  0.00    +0.120 N 
ATOM     43  O   UNL     1      20.877  12.230   0.083  0.00  0.00    +0.045 OA
ATOM     44  O   UNL     1      21.316  11.619   2.147  0.00  0.00    -0.573 OA
ENDBRANCH  36  37
ENDBRANCH  33  36
ENDBRANCH  32  33
ENDBRANCH  30  32
ENDBRANCH  26  28
ENDBRANCH  25  26
ENDBRANCH  24  25
ENDBRANCH   1  24
TORSDOF 15
