REMARK VINA RESULT:    -6.755      1.674      2.506
REMARK INTER + INTRA:         -12.907
REMARK INTER:                 -10.996
REMARK INTRA:                  -1.912
REMARK UNBOUND:                -1.808
REMARK  Name = lig_assembled_8.pdb
REMARK  11 active torsions:
REMARK  status: ('A' for Active; 'I' for Inactive)
REMARK    1  A    between atoms: _2  and  _8
REMARK    2  A    between atoms: _5  and  _6
REMARK    3  A    between atoms: _5  and  _13
REMARK    4  A    between atoms: _13  and  _15
REMARK    5  A    between atoms: _14  and  _19
REMARK    6  A    between atoms: _15  and  _18
REMARK    7  A    between atoms: _23  and  _33
REMARK    8  A    between atoms: _25  and  _26
REMARK    9  A    between atoms: _27  and  _29
REMARK   10  A    between atoms: _29  and  _31
REMARK   11  A    between atoms: _31  and  _33
REMARK                            x       y       z     vdW  Elec       q    Type
REMARK                         _______ _______ _______ _____ _____    ______ ____
ROOT
ATOM      1  C   UNL     1      28.011  15.551  -1.311  0.00  0.00    +0.400 C 
ATOM      2  N   UNL     1      28.914  15.893  -0.332  0.00  0.00    -0.278 N 
ATOM      3  H   UNL     1      28.760  15.148   0.418  0.00  0.00    +0.152 HD
ATOM      4  O   UNL     1      27.428  14.475  -1.210  0.00  0.00    -0.226 OA
ENDROOT
BRANCH   1   5
ATOM      5  O   UNL     1      27.838  16.428  -2.244  0.00  0.00    -0.450 OA
BRANCH   5   6
ATOM      6  C   UNL     1      26.795  17.164  -2.839  0.00  0.00    +0.240 C 
BRANCH   6   7
ATOM      7  C   UNL     1      26.125  16.564  -4.090  0.00  0.00    +0.100 C 
BRANCH   7   9
ATOM      8  N   UNL     1      24.815  14.518  -4.525  0.00  0.00    -0.134 NA
ATOM      9  C   UNL     1      25.126  15.554  -3.700  0.00  0.00    +0.086 A 
ATOM     10  C   UNL     1      24.382  15.442  -2.547  0.00  0.00    +0.139 A 
ATOM     11  N   UNL     1      23.630  14.291  -2.702  0.00  0.00    -0.219 N 
ATOM     12  N   UNL     1      23.909  13.768  -3.916  0.00  0.00    -0.061 NA
BRANCH  11  13
ATOM     13  C   UNL     1      22.718  13.703  -1.771  0.00  0.00    +0.081 A 
ATOM     14  C   UNL     1      21.386  14.176  -1.756  0.00  0.00    +0.029 A 
ATOM     15  C   UNL     1      20.440  13.670  -0.861  0.00  0.00    +0.002 A 
ATOM     16  C   UNL     1      20.798  12.680   0.040  0.00  0.00    +0.001 A 
ATOM     17  C   UNL     1      22.102  12.191   0.038  0.00  0.00    +0.017 A 
ATOM     18  C   UNL     1      23.068  12.688  -0.858  0.00  0.00    +0.043 A 
ATOM     19 BR   UNL     1      24.774  11.862  -0.672  0.00  0.00    -0.048 Br
ENDBRANCH  11  13
ENDBRANCH   7   9
ENDBRANCH   6   7
ENDBRANCH   5   6
ENDBRANCH   1   5
BRANCH   2  20
ATOM     20  C   UNL     1      29.973  16.789   0.126  0.00  0.00    +0.152 C 
BRANCH  20  21
ATOM     21  C   UNL     1      31.269  16.112   0.619  0.00  0.00    +0.193 C 
ATOM     22  O   UNL     1      30.974  15.546   1.915  0.00  0.00    -0.219 OA
BRANCH  21  23
ATOM     23  C   UNL     1      31.814  14.925  -0.205  0.00  0.00    +0.212 C 
ATOM     24  O   UNL     1      32.686  15.395  -1.246  0.00  0.00    -0.218 OA
BRANCH  23  25
ATOM     25  C   UNL     1      32.594  13.867   0.666  0.00  0.00    +0.171 C 
ATOM     26  O   UNL     1      34.005  13.947   0.491  0.00  0.00    -0.343 OA
ATOM     27  C   UNL     1      34.911  12.986   0.944  0.00  0.00    +0.220 C 
ATOM     28  C   UNL     1      34.505  11.568   0.507  0.00  0.00    +0.076 C 
ATOM     29  C   UNL     1      33.049  11.346   0.950  0.00  0.00    +0.177 C 
ATOM     30  O   UNL     1      32.635  10.032   0.604  0.00  0.00    -0.221 OA
ATOM     31  C   UNL     1      32.121  12.421   0.305  0.00  0.00    +0.155 C 
BRANCH  31  32
ATOM     32  N   UNL     1      30.736  12.210   0.719  0.00  0.00    -0.202 NA
ATOM     33  C   UNL     1      29.641  11.922  -0.030  0.00  0.00    +0.242 C 
ATOM     34  C   UNL     1      28.392  11.463   0.676  0.00  0.00    +0.096 C 
ATOM     35  O   UNL     1      29.693  12.040  -1.253  0.00  0.00    -0.273 OA
ENDBRANCH  31  32
BRANCH  27  36
ATOM     36  C   UNL     1      35.188  13.060   2.543  0.00  0.00    +0.391 C 
ATOM     37  O   UNL     1      35.607  11.825   2.882  0.00  0.00    -0.243 OA
ATOM     38  O   UNL     1      35.190  14.362   2.858  0.00  0.00    -0.243 OA
ENDBRANCH  27  36
ENDBRANCH  23  25
ENDBRANCH  21  23
ENDBRANCH  20  21
ENDBRANCH   2  20
TORSDOF 11
