REMARK VINA RESULT:    -6.935      2.378      2.936
REMARK INTER + INTRA:         -12.894
REMARK INTER:                 -11.675
REMARK INTRA:                  -1.219
REMARK UNBOUND:                -1.499
REMARK  Name = lig_assembled_15.pdb
REMARK  11 active torsions:
REMARK  status: ('A' for Active; 'I' for Inactive)
REMARK    1  A    between atoms: _2  and  _8
REMARK    2  A    between atoms: _5  and  _6
REMARK    3  A    between atoms: _5  and  _13
REMARK    4  A    between atoms: _13  and  _15
REMARK    5  A    between atoms: _14  and  _19
REMARK    6  A    between atoms: _15  and  _18
REMARK    7  A    between atoms: _23  and  _33
REMARK    8  A    between atoms: _25  and  _26
REMARK    9  A    between atoms: _27  and  _29
REMARK   10  A    between atoms: _29  and  _31
REMARK   11  A    between atoms: _31  and  _33
REMARK                            x       y       z     vdW  Elec       q    Type
REMARK                         _______ _______ _______ _____ _____    ______ ____
ROOT
ATOM      1  C   UNL     1      28.146  16.920  -0.714  0.00  0.00    +0.400 C 
ATOM      2  N   UNL     1      28.658  16.045   0.216  0.00  0.00    -0.278 N 
ATOM      3  H   UNL     1      29.040  16.690   0.978  0.00  0.00    +0.152 HD
ATOM      4  O   UNL     1      28.072  18.108  -0.412  0.00  0.00    -0.226 OA
ENDROOT
BRANCH   1   5
ATOM      5  O   UNL     1      27.815  16.399  -1.849  0.00  0.00    -0.450 OA
BRANCH   5   6
ATOM      6  C   UNL     1      26.799  15.592  -2.399  0.00  0.00    +0.240 C 
BRANCH   6   7
ATOM      7  C   UNL     1      26.457  15.795  -3.887  0.00  0.00    +0.100 C 
BRANCH   7   9
ATOM      8  N   UNL     1      24.723  14.697  -5.270  0.00  0.00    -0.134 NA
ATOM      9  C   UNL     1      25.060  15.401  -4.150  0.00  0.00    +0.086 A 
ATOM     10  C   UNL     1      23.927  15.622  -3.400  0.00  0.00    +0.139 A 
ATOM     11  N   UNL     1      22.913  15.003  -4.096  0.00  0.00    -0.220 N 
ATOM     12  N   UNL     1      23.418  14.464  -5.234  0.00  0.00    -0.061 NA
BRANCH  11  13
ATOM     13  C   UNL     1      21.545  14.871  -3.743  0.00  0.00    +0.067 A 
ATOM     14  C   UNL     1      21.106  13.800  -2.952  0.00  0.00    +0.029 A 
ATOM     15  C   UNL     1      19.748  13.664  -2.647  0.00  0.00    +0.017 A 
ATOM     16  C   UNL     1      18.830  14.595  -3.128  0.00  0.00    +0.018 A 
ATOM     17 BR   UNL     1      16.993  14.390  -2.736  0.00  0.00    -0.050 Br
ATOM     18  C   UNL     1      19.257  15.672  -3.903  0.00  0.00    +0.017 A 
ATOM     19  C   UNL     1      20.613  15.813  -4.209  0.00  0.00    +0.029 A 
ENDBRANCH  11  13
ENDBRANCH   7   9
ENDBRANCH   6   7
ENDBRANCH   5   6
ENDBRANCH   1   5
BRANCH   2  20
ATOM     20  C   UNL     1      28.895  14.664   0.626  0.00  0.00    +0.152 C 
BRANCH  20  21
ATOM     21  C   UNL     1      30.277  14.077   0.272  0.00  0.00    +0.193 C 
ATOM     22  O   UNL     1      30.373  14.081  -1.169  0.00  0.00    -0.219 OA
BRANCH  21  23
ATOM     23  C   UNL     1      31.525  14.854   0.744  0.00  0.00    +0.212 C 
ATOM     24  O   UNL     1      31.138  16.038   1.461  0.00  0.00    -0.218 OA
BRANCH  23  25
ATOM     25  C   UNL     1      32.483  14.001   1.660  0.00  0.00    +0.171 C 
ATOM     26  O   UNL     1      32.780  14.646   2.894  0.00  0.00    -0.343 OA
ATOM     27  C   UNL     1      33.781  14.236   3.778  0.00  0.00    +0.220 C 
ATOM     28  C   UNL     1      35.128  14.039   3.062  0.00  0.00    +0.076 C 
ATOM     29  C   UNL     1      34.887  13.095   1.873  0.00  0.00    +0.177 C 
ATOM     30  O   UNL     1      36.112  12.847   1.198  0.00  0.00    -0.221 OA
ATOM     31  C   UNL     1      33.822  13.705   0.909  0.00  0.00    +0.155 C 
BRANCH  31  32
ATOM     32  N   UNL     1      33.595  12.813  -0.226  0.00  0.00    -0.202 NA
ATOM     33  C   UNL     1      33.692  13.061  -1.557  0.00  0.00    +0.242 C 
ATOM     34  C   UNL     1      33.693  11.890  -2.504  0.00  0.00    +0.096 C 
ATOM     35  O   UNL     1      33.777  14.221  -1.954  0.00  0.00    -0.273 OA
ENDBRANCH  31  32
BRANCH  27  36
ATOM     36  C   UNL     1      33.374  12.930   4.654  0.00  0.00    +0.391 C 
ATOM     37  O   UNL     1      32.053  12.767   4.444  0.00  0.00    -0.243 OA
ATOM     38  O   UNL     1      34.527  12.343   5.001  0.00  0.00    -0.243 OA
ENDBRANCH  27  36
ENDBRANCH  23  25
ENDBRANCH  21  23
ENDBRANCH  20  21
ENDBRANCH   2  20
TORSDOF 11
