REMARK VINA RESULT:    -8.148      1.652      3.765
REMARK INTER + INTRA:         -15.150
REMARK INTER:                 -13.332
REMARK INTRA:                  -1.818
REMARK UNBOUND:                -1.762
REMARK  Name = lig_assembled_25.pdb
REMARK  11 active torsions:
REMARK  status: ('A' for Active; 'I' for Inactive)
REMARK    1  A    between atoms: _2  and  _8
REMARK    2  A    between atoms: _5  and  _6
REMARK    3  A    between atoms: _5  and  _20
REMARK    4  A    between atoms: _20  and  _22
REMARK    5  A    between atoms: _21  and  _26
REMARK    6  A    between atoms: _22  and  _25
REMARK    7  A    between atoms: _30  and  _40
REMARK    8  A    between atoms: _32  and  _33
REMARK    9  A    between atoms: _34  and  _36
REMARK   10  A    between atoms: _36  and  _38
REMARK   11  A    between atoms: _38  and  _40
REMARK                            x       y       z     vdW  Elec       q    Type
REMARK                         _______ _______ _______ _____ _____    ______ ____
ROOT
ATOM      1  C   UNL     1      27.884  17.372  -0.899  0.00  0.00    +0.400 C 
ATOM      2  N   UNL     1      28.495  16.484  -0.046  0.00  0.00    -0.278 N 
ATOM      3  H   UNL     1      28.617  17.048   0.853  0.00  0.00    +0.152 HD
ATOM      4  O   UNL     1      27.480  18.436  -0.436  0.00  0.00    -0.226 OA
ENDROOT
BRANCH   1   5
ATOM      5  O   UNL     1      27.820  17.006  -2.137  0.00  0.00    -0.450 OA
BRANCH   5   6
ATOM      6  C   UNL     1      27.104  17.321  -3.308  0.00  0.00    +0.240 C 
BRANCH   6   7
ATOM      7  C   UNL     1      26.653  16.150  -4.203  0.00  0.00    +0.100 C 
BRANCH   7   9
ATOM      8  N   UNL     1      24.688  16.198  -2.708  0.00  0.00    -0.134 NA
ATOM      9  C   UNL     1      25.396  15.568  -3.695  0.00  0.00    +0.086 A 
ATOM     10  C   UNL     1      24.750  14.402  -4.041  0.00  0.00    +0.134 A 
ATOM     11  N   UNL     1      23.661  14.366  -3.216  0.00  0.00    -0.240 N 
ATOM     12  N   UNL     1      23.626  15.459  -2.422  0.00  0.00    -0.065 NA
BRANCH  11  13
ATOM     13  C   UNL     1      22.659  13.328  -3.038  0.00  0.00    +0.170 C 
ATOM     14  C   UNL     1      21.240  13.852  -3.217  0.00  0.00    -0.011 A 
ATOM     15  C   UNL     1      20.472  13.564  -2.067  0.00  0.00    -0.012 A 
ATOM     16  C   UNL     1      21.308  12.883  -1.099  0.00  0.00    -0.012 A 
ATOM     17  C   UNL     1      21.000  12.373   0.151  0.00  0.00    +0.009 A 
ATOM     18  C   UNL     1      22.007  11.725   0.871  0.00  0.00    +0.001 A 
ATOM     19  C   UNL     1      23.303  11.597   0.343  0.00  0.00    +0.000 A 
ATOM     20  C   UNL     1      23.617  12.111  -0.917  0.00  0.00    +0.006 A 
ATOM     21  C   UNL     1      19.136  13.926  -2.007  0.00  0.00    +0.009 A 
ATOM     22  C   UNL     1      18.574  14.577  -3.109  0.00  0.00    +0.001 A 
ATOM     23  C   UNL     1      19.341  14.859  -4.251  0.00  0.00    +0.000 A 
ATOM     24  C   UNL     1      20.686  14.493  -4.316  0.00  0.00    +0.006 A 
ATOM     25  C   UNL     1      22.614  12.754  -1.628  0.00  0.00    -0.011 A 
ENDBRANCH  11  13
ENDBRANCH   7   9
ENDBRANCH   6   7
ENDBRANCH   5   6
ENDBRANCH   1   5
BRANCH   2  26
ATOM     26  C   UNL     1      29.026  15.142   0.182  0.00  0.00    +0.152 C 
BRANCH  26  27
ATOM     27  C   UNL     1      30.562  15.003   0.137  0.00  0.00    +0.193 C 
ATOM     28  O   UNL     1      31.079  15.741   1.267  0.00  0.00    -0.219 OA
BRANCH  27  29
ATOM     29  C   UNL     1      31.156  13.587   0.298  0.00  0.00    +0.212 C 
ATOM     30  O   UNL     1      32.096  13.315  -0.755  0.00  0.00    -0.218 OA
BRANCH  29  31
ATOM     31  C   UNL     1      31.873  13.364   1.684  0.00  0.00    +0.171 C 
ATOM     32  O   UNL     1      33.210  12.895   1.540  0.00  0.00    -0.343 OA
ATOM     33  C   UNL     1      33.985  12.388   2.586  0.00  0.00    +0.220 C 
ATOM     34  C   UNL     1      33.233  11.305   3.379  0.00  0.00    +0.076 C 
ATOM     35  C   UNL     1      31.880  11.897   3.804  0.00  0.00    +0.177 C 
ATOM     36  O   UNL     1      31.159  10.948   4.577  0.00  0.00    -0.221 OA
ATOM     37  C   UNL     1      31.068  12.338   2.547  0.00  0.00    +0.155 C 
BRANCH  37  38
ATOM     38  N   UNL     1      29.778  12.895   2.946  0.00  0.00    -0.202 NA
ATOM     39  C   UNL     1      28.522  12.444   2.696  0.00  0.00    +0.242 C 
ATOM     40  C   UNL     1      27.379  13.043   3.472  0.00  0.00    +0.096 C 
ATOM     41  O   UNL     1      28.349  11.566   1.853  0.00  0.00    -0.273 OA
ENDBRANCH  37  38
BRANCH  33  42
ATOM     42  C   UNL     1      34.582  13.539   3.565  0.00  0.00    +0.391 C 
ATOM     43  O   UNL     1      34.823  12.911   4.732  0.00  0.00    -0.243 OA
ATOM     44  O   UNL     1      34.887  14.575   2.774  0.00  0.00    -0.243 OA
ENDBRANCH  33  42
ENDBRANCH  29  31
ENDBRANCH  27  29
ENDBRANCH  26  27
ENDBRANCH   2  26
TORSDOF 11
