REMARK VINA RESULT:    -7.570      1.785      2.313
REMARK INTER + INTRA:         -14.789
REMARK INTER:                 -12.679
REMARK INTRA:                  -2.110
REMARK UNBOUND:                -1.466
REMARK  Name = lig_assembled_78.pdb
REMARK  13 active torsions:
REMARK  status: ('A' for Active; 'I' for Inactive)
REMARK    1  A    between atoms: _2  and  _8
REMARK    2  A    between atoms: _5  and  _6
REMARK    3  A    between atoms: _5  and  _16
REMARK    4  A    between atoms: _8  and  _44
REMARK    5  A    between atoms: _9  and  _44
REMARK    6  A    between atoms: _16  and  _18
REMARK    7  A    between atoms: _17  and  _22
REMARK    8  A    between atoms: _18  and  _21
REMARK    9  A    between atoms: _26  and  _36
REMARK   10  A    between atoms: _28  and  _29
REMARK   11  A    between atoms: _30  and  _32
REMARK   12  A    between atoms: _32  and  _34
REMARK   13  A    between atoms: _34  and  _36
REMARK                            x       y       z     vdW  Elec       q    Type
REMARK                         _______ _______ _______ _____ _____    ______ ____
ROOT
ATOM      1  C   UNL     1      27.900  17.332  -1.048  0.00  0.00    +0.400 C 
ATOM      2  N   UNL     1      28.307  16.269  -0.277  0.00  0.00    -0.278 N 
ATOM      3  H   UNL     1      28.539  16.720   0.664  0.00  0.00    +0.152 HD
ATOM      4  O   UNL     1      27.725  18.415  -0.495  0.00  0.00    -0.226 OA
ENDROOT
BRANCH   2   5
ATOM      5  C   UNL     1      28.544  14.832  -0.165  0.00  0.00    +0.152 C 
BRANCH   5   6
ATOM      6  C   UNL     1      29.586  14.396   0.885  0.00  0.00    +0.193 C 
ATOM      7  O   UNL     1      29.691  12.958   0.794  0.00  0.00    -0.219 OA
BRANCH   6   8
ATOM      8  C   UNL     1      31.035  14.900   0.707  0.00  0.00    +0.212 C 
ATOM      9  O   UNL     1      31.151  16.262   1.149  0.00  0.00    -0.218 OA
BRANCH   8  10
ATOM     10  C   UNL     1      32.099  14.028   1.478  0.00  0.00    +0.171 C 
ATOM     11  O   UNL     1      32.436  14.572   2.749  0.00  0.00    -0.343 OA
ATOM     12  C   UNL     1      33.514  14.147   3.529  0.00  0.00    +0.220 C 
ATOM     13  C   UNL     1      34.822  14.107   2.719  0.00  0.00    +0.076 C 
ATOM     14  C   UNL     1      34.561  13.265   1.460  0.00  0.00    +0.177 C 
ATOM     15  O   UNL     1      35.753  13.162   0.694  0.00  0.00    -0.221 OA
ATOM     16  C   UNL     1      33.402  13.892   0.624  0.00  0.00    +0.155 C 
BRANCH  16  17
ATOM     17  N   UNL     1      33.156  13.099  -0.577  0.00  0.00    -0.202 NA
ATOM     18  C   UNL     1      33.164  13.474  -1.882  0.00  0.00    +0.242 C 
ATOM     19  C   UNL     1      33.169  12.397  -2.936  0.00  0.00    +0.096 C 
ATOM     20  O   UNL     1      33.167  14.669  -2.170  0.00  0.00    -0.273 OA
ENDBRANCH  16  17
BRANCH  12  21
ATOM     21  C   UNL     1      33.243  12.740   4.295  0.00  0.00    +0.391 C 
ATOM     22  O   UNL     1      34.456  12.336   4.719  0.00  0.00    -0.243 OA
ATOM     23  O   UNL     1      31.919  12.668   4.478  0.00  0.00    -0.243 OA
ENDBRANCH  12  21
ENDBRANCH   8  10
ENDBRANCH   6   8
ENDBRANCH   5   6
ENDBRANCH   2   5
BRANCH   1  24
ATOM     24  O   UNL     1      27.767  17.090  -2.311  0.00  0.00    -0.450 OA
BRANCH  24  25
ATOM     25  C   UNL     1      26.878  17.373  -3.366  0.00  0.00    +0.240 C 
BRANCH  25  26
ATOM     26  C   UNL     1      26.393  16.190  -4.225  0.00  0.00    +0.100 C 
BRANCH  26  28
ATOM     27  N   UNL     1      27.086  13.945  -3.436  0.00  0.00    -0.134 NA
ATOM     28  C   UNL     1      26.204  14.991  -3.386  0.00  0.00    +0.086 A 
ATOM     29  C   UNL     1      25.214  14.701  -2.474  0.00  0.00    +0.135 A 
ATOM     30  N   UNL     1      25.583  13.494  -1.962  0.00  0.00    -0.230 N 
ATOM     31  N   UNL     1      26.683  13.022  -2.574  0.00  0.00    -0.064 NA
BRANCH  30  32
ATOM     32  C   UNL     1      24.915  12.696  -0.964  0.00  0.00    +0.316 C 
BRANCH  32  33
ATOM     33  S   UNL     1      23.711  11.580  -1.634  0.00  0.00    +0.017 S 
ATOM     34  O   UNL     1      24.046  11.259  -3.008  0.00  0.00    -0.168 OA
ATOM     35  O   UNL     1      23.484  10.527  -0.658  0.00  0.00    -0.168 OA
BRANCH  33  36
ATOM     36  C   UNL     1      22.218  12.546  -1.712  0.00  0.00    +0.090 A 
ATOM     37  C   UNL     1      21.491  12.776  -0.540  0.00  0.00    +0.027 A 
ATOM     38  C   UNL     1      20.335  13.554  -0.592  0.00  0.00    +0.002 A 
ATOM     39  C   UNL     1      19.922  14.110  -1.804  0.00  0.00    +0.000 A 
ATOM     40  C   UNL     1      20.662  13.894  -2.967  0.00  0.00    +0.002 A 
ATOM     41  C   UNL     1      21.815  13.110  -2.925  0.00  0.00    +0.027 A 
ENDBRANCH  33  36
ENDBRANCH  32  33
ENDBRANCH  30  32
ENDBRANCH  26  28
ENDBRANCH  25  26
ENDBRANCH  24  25
ENDBRANCH   1  24
TORSDOF 13
