REMARK VINA RESULT:    -6.362      1.814      3.858
REMARK INTER + INTRA:         -14.054
REMARK INTER:                 -12.156
REMARK INTRA:                  -1.898
REMARK UNBOUND:                -2.486
REMARK  Name = lig_assembled_29.pdb
REMARK  16 active torsions:
REMARK  status: ('A' for Active; 'I' for Inactive)
REMARK    1  A    between atoms: _2  and  _8
REMARK    2  A    between atoms: _5  and  _6
REMARK    3  A    between atoms: _5  and  _18
REMARK    4  A    between atoms: _8  and  _9
REMARK    5  A    between atoms: _11  and  _17
REMARK    6  A    between atoms: _12  and  _17
REMARK    7  A    between atoms: _13  and  _16
REMARK    8  A    between atoms: _14  and  _16
REMARK    9  A    between atoms: _18  and  _20
REMARK   10  A    between atoms: _19  and  _24
REMARK   11  A    between atoms: _20  and  _23
REMARK   12  A    between atoms: _28  and  _38
REMARK   13  A    between atoms: _30  and  _31
REMARK   14  A    between atoms: _32  and  _34
REMARK   15  A    between atoms: _34  and  _36
REMARK   16  A    between atoms: _36  and  _38
REMARK                            x       y       z     vdW  Elec       q    Type
REMARK                         _______ _______ _______ _____ _____    ______ ____
ROOT
ATOM      1  C   UNL     1      27.578  14.182  -1.836  0.00  0.00    +0.400 C 
ATOM      2  N   UNL     1      28.174  15.027  -0.929  0.00  0.00    -0.278 N 
ATOM      3  H   UNL     1      28.527  14.364  -0.169  0.00  0.00    +0.152 HD
ATOM      4  O   UNL     1      27.735  12.972  -1.690  0.00  0.00    -0.226 OA
ENDROOT
BRANCH   2   5
ATOM      5  C   UNL     1      28.543  16.389  -0.554  0.00  0.00    +0.152 C 
BRANCH   5   6
ATOM      6  C   UNL     1      30.030  16.621  -0.216  0.00  0.00    +0.193 C 
ATOM      7  O   UNL     1      30.101  17.869   0.509  0.00  0.00    -0.219 OA
BRANCH   6   8
ATOM      8  C   UNL     1      30.721  15.597   0.712  0.00  0.00    +0.212 C 
ATOM      9  O   UNL     1      29.741  14.794   1.390  0.00  0.00    -0.218 OA
BRANCH   8  10
ATOM     10  C   UNL     1      31.719  14.641  -0.046  0.00  0.00    +0.171 C 
ATOM     11  O   UNL     1      31.139  14.053  -1.206  0.00  0.00    -0.343 OA
ATOM     12  C   UNL     1      31.705  12.994  -1.920  0.00  0.00    +0.220 C 
ATOM     13  C   UNL     1      32.093  11.827  -0.996  0.00  0.00    +0.076 C 
ATOM     14  C   UNL     1      32.977  12.398   0.125  0.00  0.00    +0.177 C 
ATOM     15  O   UNL     1      33.397  11.351   0.988  0.00  0.00    -0.221 OA
ATOM     16  C   UNL     1      32.203  13.503   0.910  0.00  0.00    +0.155 C 
BRANCH  16  17
ATOM     17  N   UNL     1      33.037  14.043   1.981  0.00  0.00    -0.202 NA
ATOM     18  C   UNL     1      32.967  13.841   3.321  0.00  0.00    +0.242 C 
ATOM     19  C   UNL     1      34.129  14.282   4.172  0.00  0.00    +0.096 C 
ATOM     20  O   UNL     1      31.971  13.307   3.804  0.00  0.00    -0.273 OA
ENDBRANCH  16  17
BRANCH  12  21
ATOM     21  C   UNL     1      32.946  13.443  -2.868  0.00  0.00    +0.391 C 
ATOM     22  O   UNL     1      33.010  12.498  -3.826  0.00  0.00    -0.243 OA
ATOM     23  O   UNL     1      33.234  14.705  -2.528  0.00  0.00    -0.243 OA
ENDBRANCH  12  21
ENDBRANCH   8  10
ENDBRANCH   6   8
ENDBRANCH   5   6
ENDBRANCH   2   5
BRANCH   1  24
ATOM     24  O   UNL     1      26.872  14.755  -2.754  0.00  0.00    -0.450 OA
BRANCH  24  25
ATOM     25  C   UNL     1      25.740  15.586  -2.869  0.00  0.00    +0.240 C 
BRANCH  25  26
ATOM     26  C   UNL     1      24.733  15.264  -3.990  0.00  0.00    +0.100 C 
BRANCH  26  28
ATOM     27  N   UNL     1      22.441  15.649  -3.128  0.00  0.00    -0.134 NA
ATOM     28  C   UNL     1      23.461  14.783  -3.419  0.00  0.00    +0.086 A 
ATOM     29  C   UNL     1      23.065  13.501  -3.120  0.00  0.00    +0.134 A 
ATOM     30  N   UNL     1      21.761  13.642  -2.739  0.00  0.00    -0.247 N 
ATOM     31  N   UNL     1      21.404  14.939  -2.700  0.00  0.00    -0.065 NA
BRANCH  30  32
ATOM     32  C   UNL     1      20.794  12.600  -2.449  0.00  0.00    +0.180 C 
BRANCH  32  33
ATOM     33  C   UNL     1      21.145  11.885  -1.164  0.00  0.00    -0.022 A 
ATOM     34  C   UNL     1      21.651  10.574  -1.199  0.00  0.00    +0.054 A 
ATOM     35  C   UNL     1      22.054   9.928  -0.022  0.00  0.00    +0.162 A 
ATOM     36  C   UNL     1      21.942  10.598   1.213  0.00  0.00    +0.162 A 
ATOM     37  C   UNL     1      21.438  11.902   1.246  0.00  0.00    +0.050 A 
ATOM     38  C   UNL     1      21.041  12.540   0.067  0.00  0.00    +0.009 A 
BRANCH  36  39
ATOM     39  O   UNL     1      22.351   9.898   2.322  0.00  0.00    -0.491 OA
ATOM     40  C   UNL     1      23.600  10.248   2.900  0.00  0.00    +0.277 C 
ENDBRANCH  36  39
BRANCH  35  41
ATOM     41  O   UNL     1      22.576   8.660   0.025  0.00  0.00    -0.491 OA
ATOM     42  C   UNL     1      21.709   7.573  -0.270  0.00  0.00    +0.277 C 
ENDBRANCH  35  41
ENDBRANCH  32  33
ENDBRANCH  30  32
ENDBRANCH  26  28
ENDBRANCH  25  26
ENDBRANCH  24  25
ENDBRANCH   1  24
TORSDOF 14
