REMARK VINA RESULT:    -6.682      1.363      3.370
REMARK INTER + INTRA:         -14.579
REMARK INTER:                 -12.433
REMARK INTRA:                  -2.146
REMARK UNBOUND:                -2.234
REMARK  Name = lig_assembled_83.pdb
REMARK  15 active torsions:
REMARK  status: ('A' for Active; 'I' for Inactive)
REMARK    1  A    between atoms: _2  and  _11
REMARK    2  A    between atoms: _3  and  _13
REMARK    3  A    between atoms: _8  and  _9
REMARK    4  A    between atoms: _8  and  _19
REMARK    5  A    between atoms: _11  and  _12
REMARK    6  A    between atoms: _12  and  _13
REMARK    7  A    between atoms: _12  and  _17
REMARK    8  A    between atoms: _19  and  _21
REMARK    9  A    between atoms: _20  and  _25
REMARK   10  A    between atoms: _21  and  _24
REMARK   11  A    between atoms: _29  and  _39
REMARK   12  A    between atoms: _31  and  _32
REMARK   13  A    between atoms: _33  and  _35
REMARK   14  A    between atoms: _35  and  _37
REMARK   15  A    between atoms: _37  and  _39
REMARK                            x       y       z     vdW  Elec       q    Type
REMARK                         _______ _______ _______ _____ _____    ______ ____
ROOT
ATOM      1  C   UNL     1      27.865  17.392  -0.648  0.00  0.00    +0.400 C 
ATOM      2  N   UNL     1      28.525  16.477   0.138  0.00  0.00    -0.278 N 
ATOM      3  H   UNL     1      28.698  17.011   1.047  0.00  0.00    +0.152 HD
ATOM      4  O   UNL     1      27.488  18.439  -0.126  0.00  0.00    -0.226 OA
ENDROOT
BRANCH   2   5
ATOM      5  C   UNL     1      29.070  15.130   0.289  0.00  0.00    +0.152 C 
BRANCH   5   6
ATOM      6  C   UNL     1      30.341  14.816  -0.527  0.00  0.00    +0.193 C 
ATOM      7  O   UNL     1      31.166  16.002  -0.483  0.00  0.00    -0.219 OA
BRANCH   6   8
ATOM      8  C   UNL     1      31.261  13.688  -0.011  0.00  0.00    +0.212 C 
ATOM      9  O   UNL     1      30.557  12.435   0.007  0.00  0.00    -0.218 OA
BRANCH   8  10
ATOM     10  C   UNL     1      32.575  13.515  -0.863  0.00  0.00    +0.171 C 
ATOM     11  O   UNL     1      32.360  12.768  -2.056  0.00  0.00    -0.343 OA
ATOM     12  C   UNL     1      33.381  12.262  -2.864  0.00  0.00    +0.220 C 
ATOM     13  C   UNL     1      34.418  11.473  -2.046  0.00  0.00    +0.076 C 
ATOM     14  C   UNL     1      34.891  12.382  -0.899  0.00  0.00    +0.177 C 
ATOM     15  O   UNL     1      35.883  11.714  -0.133  0.00  0.00    -0.221 OA
ATOM     16  C   UNL     1      33.678  12.803  -0.012  0.00  0.00    +0.155 C 
BRANCH  16  17
ATOM     17  N   UNL     1      34.123  13.661   1.082  0.00  0.00    -0.202 NA
ATOM     18  C   UNL     1      34.072  13.454   2.423  0.00  0.00    +0.242 C 
ATOM     19  C   UNL     1      34.868  14.368   3.318  0.00  0.00    +0.096 C 
ATOM     20  O   UNL     1      33.388  12.536   2.870  0.00  0.00    -0.273 OA
ENDBRANCH  16  17
BRANCH  12  21
ATOM     21  C   UNL     1      34.088  13.389  -3.796  0.00  0.00    +0.391 C 
ATOM     22  O   UNL     1      35.261  12.844  -4.172  0.00  0.00    -0.243 OA
ATOM     23  O   UNL     1      33.134  14.284  -4.082  0.00  0.00    -0.243 OA
ENDBRANCH  12  21
ENDBRANCH   8  10
ENDBRANCH   6   8
ENDBRANCH   5   6
ENDBRANCH   2   5
BRANCH   1  24
ATOM     24  O   UNL     1      27.730  17.068  -1.892  0.00  0.00    -0.450 OA
BRANCH  24  25
ATOM     25  C   UNL     1      27.056  16.115  -2.680  0.00  0.00    +0.240 C 
BRANCH  25  26
ATOM     26  C   UNL     1      26.113  16.640  -3.780  0.00  0.00    +0.100 C 
BRANCH  26  28
ATOM     27  N   UNL     1      24.526  14.981  -4.724  0.00  0.00    -0.134 NA
ATOM     28  C   UNL     1      24.836  15.906  -3.759  0.00  0.00    +0.086 A 
ATOM     29  C   UNL     1      23.794  15.982  -2.864  0.00  0.00    +0.133 A 
ATOM     30  N   UNL     1      22.894  15.074  -3.329  0.00  0.00    -0.249 N 
ATOM     31  N   UNL     1      23.327  14.480  -4.452  0.00  0.00    -0.065 NA
BRANCH  30  32
ATOM     32  C   UNL     1      21.595  14.752  -2.778  0.00  0.00    +0.178 C 
BRANCH  32  33
ATOM     33  C   UNL     1      21.707  14.047  -1.423  0.00  0.00    +0.156 C 
BRANCH  33  34
ATOM     34  O   UNL     1      20.425  14.010  -0.786  0.00  0.00    -0.388 OA
ATOM     35  H   UNL     1      20.202  14.898  -0.441  0.00  0.00    +0.210 HD
ENDBRANCH  33  34
BRANCH  33  36
ATOM     36  C   UNL     1      22.257  12.623  -1.600  0.00  0.00    +0.162 C 
BRANCH  36  37
ATOM     37  N   UNL     1      23.454  12.384  -0.810  0.00  0.00    -0.269 N 
ATOM     38  C   UNL     1      24.724  12.683  -1.249  0.00  0.00    +0.113 A 
ATOM     39  C   UNL     1      25.562  12.342  -0.214  0.00  0.00    +0.137 A 
ATOM     40  N   UNL     1      24.854  11.816   0.831  0.00  0.00    -0.172 NA
ATOM     41  C   UNL     1      23.590  11.857   0.452  0.00  0.00    +0.450 A 
ATOM     42  N   UNL     1      22.511  11.396   1.296  0.00  0.00    +0.120 N 
ATOM     43  O   UNL     1      21.354  11.478   0.849  0.00  0.00    +0.045 OA
ATOM     44  O   UNL     1      22.809  10.939   2.405  0.00  0.00    -0.573 OA
ENDBRANCH  36  37
ENDBRANCH  33  36
ENDBRANCH  32  33
ENDBRANCH  30  32
ENDBRANCH  26  28
ENDBRANCH  25  26
ENDBRANCH  24  25
ENDBRANCH   1  24
TORSDOF 15
