REMARK VINA RESULT:    -6.554     21.983     25.232
REMARK INTER + INTRA:         -16.001
REMARK INTER:                 -11.973
REMARK INTRA:                  -4.029
REMARK UNBOUND:                -3.125
REMARK  Name = lig_assembled_47.pdb
REMARK  17 active torsions:
REMARK  status: ('A' for Active; 'I' for Inactive)
REMARK    1  A    between atoms: _2  and  _8
REMARK    2  A    between atoms: _5  and  _6
REMARK    3  A    between atoms: _5  and  _25
REMARK    4  A    between atoms: _8  and  _9
REMARK    5  A    between atoms: _9  and  _10
REMARK    6  A    between atoms: _9  and  _11
REMARK    7  A    between atoms: _10  and  _23
REMARK    8  A    between atoms: _11  and  _12
REMARK    9  A    between atoms: _11  and  _18
REMARK   10  A    between atoms: _25  and  _27
REMARK   11  A    between atoms: _26  and  _31
REMARK   12  A    between atoms: _27  and  _30
REMARK   13  A    between atoms: _35  and  _45
REMARK   14  A    between atoms: _37  and  _38
REMARK   15  A    between atoms: _39  and  _41
REMARK   16  A    between atoms: _41  and  _43
REMARK   17  A    between atoms: _43  and  _45
REMARK                            x       y       z     vdW  Elec       q    Type
REMARK                         _______ _______ _______ _____ _____    ______ ____
ROOT
ATOM      1  C   UNL     1      30.190  34.222  16.201  0.00  0.00    +0.100 C 
ENDROOT
BRANCH   1   3
ATOM      2  N   UNL     1      29.528  33.614  13.885  0.00  0.00    -0.134 NA
ATOM      3  C   UNL     1      29.360  34.405  14.993  0.00  0.00    +0.086 A 
ATOM      4  C   UNL     1      28.371  35.328  14.734  0.00  0.00    +0.133 A 
ATOM      5  N   UNL     1      28.013  35.078  13.441  0.00  0.00    -0.251 N 
ATOM      6  N   UNL     1      28.696  34.035  12.942  0.00  0.00    -0.065 NA
BRANCH   5   7
ATOM      7  C   UNL     1      27.154  35.875  12.579  0.00  0.00    +0.160 C 
BRANCH   7   8
ATOM      8  C   UNL     1      26.548  35.091  11.411  0.00  0.00    +0.131 C 
BRANCH   8   9
ATOM      9  C   UNL     1      25.346  34.326  11.947  0.00  0.00    +0.311 C 
ATOM     10  O   UNL     1      24.196  34.708  11.797  0.00  0.00    -0.251 OA
BRANCH   9  11
ATOM     11  O   UNL     1      25.592  33.128  12.516  0.00  0.00    -0.480 OA
ATOM     12  H   UNL     1      24.852  32.513  12.650  0.00  0.00    +0.295 HD
ENDBRANCH   9  11
ENDBRANCH   8   9
BRANCH   8  13
ATOM     13  C   UNL     1      26.180  35.958  10.165  0.00  0.00    +0.064 C 
BRANCH  13  14
ATOM     14  C   UNL     1      26.062  37.462  10.414  0.00  0.00    -0.039 A 
ATOM     15  C   UNL     1      24.796  38.032  10.661  0.00  0.00    +0.004 A 
ATOM     16  C   UNL     1      24.653  39.404  10.892  0.00  0.00    +0.000 A 
ATOM     17  C   UNL     1      25.767  40.237  10.865  0.00  0.00    +0.000 A 
ATOM     18  C   UNL     1      27.022  39.697  10.602  0.00  0.00    +0.000 A 
ATOM     19  C   UNL     1      27.170  38.322  10.389  0.00  0.00    +0.004 A 
ENDBRANCH  13  14
BRANCH  13  20
ATOM     20  C   UNL     1      27.108  35.617   8.991  0.00  0.00    -0.039 A 
ATOM     21  C   UNL     1      28.224  34.787   9.185  0.00  0.00    +0.004 A 
ATOM     22  C   UNL     1      29.165  34.611   8.165  0.00  0.00    +0.000 A 
ATOM     23  C   UNL     1      28.991  35.238   6.933  0.00  0.00    +0.000 A 
ATOM     24  C   UNL     1      27.871  36.030   6.712  0.00  0.00    +0.000 A 
ATOM     25  C   UNL     1      26.938  36.217   7.731  0.00  0.00    +0.004 A 
ENDBRANCH  13  20
ENDBRANCH   8  13
ENDBRANCH   7   8
ENDBRANCH   5   7
ENDBRANCH   1   3
BRANCH   1  26
ATOM     26  C   UNL     1      31.200  33.074  16.009  0.00  0.00    +0.240 C 
BRANCH  26  27
ATOM     27  O   UNL     1      30.825  31.796  16.467  0.00  0.00    -0.450 OA
BRANCH  27  28
ATOM     28  C   UNL     1      30.135  31.259  17.419  0.00  0.00    +0.400 C 
ATOM     29  N   UNL     1      29.109  30.436  17.020  0.00  0.00    -0.278 N 
ATOM     30  H   UNL     1      28.809  29.956  17.927  0.00  0.00    +0.152 HD
ATOM     31  O   UNL     1      30.333  31.395  18.624  0.00  0.00    -0.226 OA
BRANCH  29  32
ATOM     32  C   UNL     1      28.256  29.945  15.941  0.00  0.00    +0.152 C 
BRANCH  32  33
ATOM     33  C   UNL     1      26.743  29.897  16.239  0.00  0.00    +0.193 C 
ATOM     34  O   UNL     1      26.605  29.793  17.673  0.00  0.00    -0.219 OA
BRANCH  33  35
ATOM     35  C   UNL     1      25.900  31.135  15.859  0.00  0.00    +0.212 C 
ATOM     36  O   UNL     1      26.579  31.919  14.865  0.00  0.00    -0.218 OA
BRANCH  35  37
ATOM     37  C   UNL     1      24.464  30.771  15.320  0.00  0.00    +0.171 C 
ATOM     38  O   UNL     1      24.494  29.748  14.330  0.00  0.00    -0.343 OA
ATOM     39  C   UNL     1      23.410  29.406  13.518  0.00  0.00    +0.220 C 
ATOM     40  C   UNL     1      22.794  30.641  12.839  0.00  0.00    +0.076 C 
ATOM     41  C   UNL     1      22.478  31.666  13.942  0.00  0.00    +0.177 C 
ATOM     42  O   UNL     1      21.868  32.815  13.371  0.00  0.00    -0.221 OA
ATOM     43  C   UNL     1      23.780  32.041  14.715  0.00  0.00    +0.155 C 
BRANCH  43  44
ATOM     44  N   UNL     1      23.486  33.019  15.759  0.00  0.00    -0.202 NA
ATOM     45  C   UNL     1      23.913  34.300  15.893  0.00  0.00    +0.242 C 
ATOM     46  C   UNL     1      23.226  35.182  16.903  0.00  0.00    +0.096 C 
ATOM     47  O   UNL     1      24.840  34.708  15.196  0.00  0.00    -0.273 OA
ENDBRANCH  43  44
BRANCH  39  48
ATOM     48  C   UNL     1      22.283  28.520  14.282  0.00  0.00    +0.391 C 
ATOM     49  O   UNL     1      21.235  28.487  13.437  0.00  0.00    -0.243 OA
ATOM     50  O   UNL     1      22.913  27.917  15.298  0.00  0.00    -0.243 OA
ENDBRANCH  39  48
ENDBRANCH  35  37
ENDBRANCH  33  35
ENDBRANCH  32  33
ENDBRANCH  29  32
ENDBRANCH  27  28
ENDBRANCH  26  27
ENDBRANCH   1  26
TORSDOF 17
