REMARK VINA RESULT:    -6.070      2.716      4.543
REMARK INTER + INTRA:         -13.584
REMARK INTER:                 -11.285
REMARK INTRA:                  -2.299
REMARK UNBOUND:                -1.837
REMARK  Name = lig_assembled_45.pdb
REMARK  19 active torsions:
REMARK  status: ('A' for Active; 'I' for Inactive)
REMARK    1  A    between atoms: _2  and  _9
REMARK    2  A    between atoms: _3  and  _11
REMARK    3  A    between atoms: _3  and  _12
REMARK    4  A    between atoms: _3  and  _13
REMARK    5  A    between atoms: _3  and  _15
REMARK    6  A    between atoms: _5  and  _15
REMARK    7  A    between atoms: _6  and  _7
REMARK    8  A    between atoms: _6  and  _16
REMARK    9  A    between atoms: _9  and  _10
REMARK   10  A    between atoms: _10  and  _11
REMARK   11  A    between atoms: _13  and  _14
REMARK   12  A    between atoms: _16  and  _18
REMARK   13  A    between atoms: _17  and  _22
REMARK   14  A    between atoms: _18  and  _21
REMARK   15  A    between atoms: _26  and  _36
REMARK   16  A    between atoms: _28  and  _29
REMARK   17  A    between atoms: _30  and  _32
REMARK   18  A    between atoms: _32  and  _34
REMARK   19  A    between atoms: _34  and  _36
REMARK                            x       y       z     vdW  Elec       q    Type
REMARK                         _______ _______ _______ _____ _____    ______ ____
ROOT
ATOM      1  C   UNL     1      27.846  17.381  -0.757  0.00  0.00    +0.400 C 
ATOM      2  N   UNL     1      28.392  16.388   0.021  0.00  0.00    -0.278 N 
ATOM      3  H   UNL     1      28.616  16.888   0.939  0.00  0.00    +0.152 HD
ATOM      4  O   UNL     1      27.585  18.457  -0.225  0.00  0.00    -0.226 OA
ENDROOT
BRANCH   2   5
ATOM      5  C   UNL     1      28.780  14.987   0.159  0.00  0.00    +0.152 C 
BRANCH   5   6
ATOM      6  C   UNL     1      30.295  14.698   0.159  0.00  0.00    +0.193 C 
ATOM      7  O   UNL     1      30.707  14.644   1.542  0.00  0.00    -0.219 OA
BRANCH   6   8
ATOM      8  C   UNL     1      30.766  13.353  -0.436  0.00  0.00    +0.212 C 
ATOM      9  O   UNL     1      30.681  12.311   0.550  0.00  0.00    -0.218 OA
BRANCH   8  10
ATOM     10  C   UNL     1      29.947  12.911  -1.708  0.00  0.00    +0.171 C 
ATOM     11  O   UNL     1      28.878  12.025  -1.391  0.00  0.00    -0.343 OA
ATOM     12  C   UNL     1      28.152  11.295  -2.335  0.00  0.00    +0.220 C 
ATOM     13  C   UNL     1      29.077  10.525  -3.294  0.00  0.00    +0.076 C 
ATOM     14  C   UNL     1      30.076  11.535  -3.884  0.00  0.00    +0.177 C 
ATOM     15  O   UNL     1      30.931  10.881  -4.811  0.00  0.00    -0.221 OA
ATOM     16  C   UNL     1      30.892  12.214  -2.741  0.00  0.00    +0.155 C 
BRANCH  16  17
ATOM     17  N   UNL     1      31.847  13.169  -3.298  0.00  0.00    -0.202 NA
ATOM     18  C   UNL     1      33.182  13.042  -3.503  0.00  0.00    +0.242 C 
ATOM     19  C   UNL     1      33.875  14.067  -4.363  0.00  0.00    +0.096 C 
ATOM     20  O   UNL     1      33.789  12.103  -2.991  0.00  0.00    -0.273 OA
ENDBRANCH  16  17
BRANCH  12  21
ATOM     21  C   UNL     1      27.062  12.188  -3.145  0.00  0.00    +0.391 C 
ATOM     22  O   UNL     1      26.637  11.393  -4.145  0.00  0.00    -0.243 OA
ATOM     23  O   UNL     1      26.781  13.232  -2.356  0.00  0.00    -0.243 OA
ENDBRANCH  12  21
ENDBRANCH   8  10
ENDBRANCH   6   8
ENDBRANCH   5   6
ENDBRANCH   2   5
BRANCH   1  24
ATOM     24  O   UNL     1      27.686  17.089  -2.006  0.00  0.00    -0.450 OA
BRANCH  24  25
ATOM     25  C   UNL     1      26.851  17.437  -3.086  0.00  0.00    +0.240 C 
BRANCH  25  26
ATOM     26  C   UNL     1      26.727  16.428  -4.243  0.00  0.00    +0.100 C 
BRANCH  26  28
ATOM     27  N   UNL     1      25.053  14.831  -5.135  0.00  0.00    -0.134 NA
ATOM     28  C   UNL     1      25.432  15.727  -4.173  0.00  0.00    +0.086 A 
ATOM     29  C   UNL     1      24.435  15.820  -3.227  0.00  0.00    +0.133 A 
ATOM     30  N   UNL     1      23.489  14.953  -3.680  0.00  0.00    -0.251 N 
ATOM     31  N   UNL     1      23.850  14.365  -4.823  0.00  0.00    -0.065 NA
BRANCH  30  32
ATOM     32  C   UNL     1      22.205  14.664  -3.077  0.00  0.00    +0.150 C 
BRANCH  32  33
ATOM     33  C   UNL     1      22.320  14.203  -1.629  0.00  0.00    +0.074 C 
BRANCH  33  34
ATOM     34  C   UNL     1      23.374  13.131  -1.324  0.00  0.00    +0.134 C 
BRANCH  34  35
ATOM     35  N   UNL     1      22.934  11.886  -0.485  0.00  0.00    +0.241 N 
ATOM     36  C   UNL     1      24.023  11.585   0.559  0.00  0.00    +0.192 C 
BRANCH  35  37
ATOM     37  C   UNL     1      22.865  10.689  -1.490  0.00  0.00    +0.129 C 
ATOM     38  C   UNL     1      21.446  10.235  -1.816  0.00  0.00    +0.060 C 
ENDBRANCH  35  37
BRANCH  35  39
ATOM     39  C   UNL     1      21.581  12.038   0.236  0.00  0.00    +0.129 C 
ATOM     40  C   UNL     1      21.603  11.621   1.697  0.00  0.00    +0.060 C 
ENDBRANCH  35  39
ENDBRANCH  34  35
ENDBRANCH  33  34
ENDBRANCH  32  33
ENDBRANCH  30  32
ENDBRANCH  26  28
ENDBRANCH  25  26
ENDBRANCH  24  25
ENDBRANCH   1  24
TORSDOF 16
