REMARK VINA RESULT:    -7.610      1.717      2.435
REMARK INTER + INTRA:         -13.821
REMARK INTER:                 -11.954
REMARK INTRA:                  -1.867
REMARK UNBOUND:                -1.318
REMARK  Name = lig_assembled_40.pdb
REMARK  12 active torsions:
REMARK  status: ('A' for Active; 'I' for Inactive)
REMARK    1  A    between atoms: _2  and  _8
REMARK    2  A    between atoms: _5  and  _6
REMARK    3  A    between atoms: _5  and  _14
REMARK    4  A    between atoms: _11  and  _12
REMARK    5  A    between atoms: _14  and  _16
REMARK    6  A    between atoms: _15  and  _20
REMARK    7  A    between atoms: _16  and  _19
REMARK    8  A    between atoms: _24  and  _34
REMARK    9  A    between atoms: _26  and  _27
REMARK   10  A    between atoms: _28  and  _30
REMARK   11  A    between atoms: _30  and  _32
REMARK   12  A    between atoms: _32  and  _34
REMARK                            x       y       z     vdW  Elec       q    Type
REMARK                         _______ _______ _______ _____ _____    ______ ____
ROOT
ATOM      1  C   UNL     1      28.044  16.948  -0.868  0.00  0.00    +0.400 C 
ATOM      2  N   UNL     1      28.336  15.737  -0.287  0.00  0.00    -0.278 N 
ATOM      3  H   UNL     1      28.608  16.001   0.713  0.00  0.00    +0.152 HD
ATOM      4  O   UNL     1      27.976  17.937  -0.143  0.00  0.00    -0.226 OA
ENDROOT
BRANCH   1   5
ATOM      5  O   UNL     1      27.895  16.931  -2.152  0.00  0.00    -0.450 OA
BRANCH   5   6
ATOM      6  C   UNL     1      26.942  17.299  -3.122  0.00  0.00    +0.240 C 
BRANCH   6   7
ATOM      7  C   UNL     1      26.524  16.229  -4.149  0.00  0.00    +0.100 C 
BRANCH   7   9
ATOM      8  N   UNL     1      24.361  15.042  -4.353  0.00  0.00    -0.134 NA
ATOM      9  C   UNL     1      25.447  15.384  -3.600  0.00  0.00    +0.086 A 
ATOM     10  C   UNL     1      25.329  14.812  -2.356  0.00  0.00    +0.139 A 
ATOM     11  N   UNL     1      24.156  14.093  -2.403  0.00  0.00    -0.220 N 
ATOM     12  N   UNL     1      23.577  14.266  -3.617  0.00  0.00    -0.061 NA
BRANCH  11  13
ATOM     13  C   UNL     1      23.595  13.249  -1.409  0.00  0.00    +0.067 A 
ATOM     14  C   UNL     1      22.209  13.185  -1.222  0.00  0.00    +0.028 A 
ATOM     15  C   UNL     1      21.675  12.403  -0.193  0.00  0.00    +0.005 A 
ATOM     16  C   UNL     1      22.513  11.679   0.660  0.00  0.00    -0.050 A 
ATOM     17  C   UNL     1      23.897  11.717   0.449  0.00  0.00    +0.005 A 
ATOM     18  C   UNL     1      21.947  10.877   1.795  0.00  0.00    +0.044 C 
ATOM     19  C   UNL     1      24.438  12.497  -0.579  0.00  0.00    +0.028 A 
ENDBRANCH  11  13
ENDBRANCH   7   9
ENDBRANCH   6   7
ENDBRANCH   5   6
ENDBRANCH   1   5
BRANCH   2  20
ATOM     20  C   UNL     1      28.427  14.285  -0.415  0.00  0.00    +0.152 C 
BRANCH  20  21
ATOM     21  C   UNL     1      28.053  13.467   0.839  0.00  0.00    +0.193 C 
ATOM     22  O   UNL     1      28.543  12.126   0.621  0.00  0.00    -0.219 OA
BRANCH  21  23
ATOM     23  C   UNL     1      28.681  13.894   2.184  0.00  0.00    +0.212 C 
ATOM     24  O   UNL     1      27.674  13.965   3.207  0.00  0.00    -0.218 OA
BRANCH  23  25
ATOM     25  C   UNL     1      29.827  12.928   2.672  0.00  0.00    +0.171 C 
ATOM     26  O   UNL     1      29.627  12.470   4.005  0.00  0.00    -0.343 OA
ATOM     27  C   UNL     1      30.595  11.810   4.765  0.00  0.00    +0.220 C 
ATOM     28  C   UNL     1      31.933  12.570   4.770  0.00  0.00    +0.076 C 
ATOM     29  C   UNL     1      32.324  12.826   3.305  0.00  0.00    +0.177 C 
ATOM     30  O   UNL     1      33.577  13.493   3.250  0.00  0.00    -0.221 OA
ATOM     31  C   UNL     1      31.211  13.652   2.588  0.00  0.00    +0.155 C 
BRANCH  31  32
ATOM     32  N   UNL     1      31.582  13.904   1.198  0.00  0.00    -0.202 NA
ATOM     33  C   UNL     1      31.628  15.073   0.510  0.00  0.00    +0.242 C 
ATOM     34  C   UNL     1      32.327  15.091  -0.825  0.00  0.00    +0.096 C 
ATOM     35  O   UNL     1      31.106  16.079   0.986  0.00  0.00    -0.273 OA
ENDBRANCH  31  32
BRANCH  27  36
ATOM     36  C   UNL     1      30.795  10.252   4.348  0.00  0.00    +0.391 C 
ATOM     37  O   UNL     1      31.738   9.785   5.189  0.00  0.00    -0.243 OA
ATOM     38  O   UNL     1      29.760   9.947   3.555  0.00  0.00    -0.243 OA
ENDBRANCH  27  36
ENDBRANCH  23  25
ENDBRANCH  21  23
ENDBRANCH  20  21
ENDBRANCH   2  20
TORSDOF 11
