REMARK VINA RESULT:    -6.118      2.123      4.161
REMARK INTER + INTRA:         -13.695
REMARK INTER:                 -10.727
REMARK INTRA:                  -2.967
REMARK UNBOUND:                -1.675
REMARK  Name = lig_assembled_33.pdb
REMARK  17 active torsions:
REMARK  status: ('A' for Active; 'I' for Inactive)
REMARK    1  A    between atoms: _2  and  _8
REMARK    2  A    between atoms: _4  and  _12
REMARK    3  A    between atoms: _4  and  _13
REMARK    4  A    between atoms: _5  and  _6
REMARK    5  A    between atoms: _5  and  _15
REMARK    6  A    between atoms: _8  and  _9
REMARK    7  A    between atoms: _9  and  _10
REMARK    8  A    between atoms: _10  and  _11
REMARK    9  A    between atoms: _11  and  _12
REMARK   10  A    between atoms: _15  and  _17
REMARK   11  A    between atoms: _16  and  _21
REMARK   12  A    between atoms: _17  and  _20
REMARK   13  A    between atoms: _25  and  _35
REMARK   14  A    between atoms: _27  and  _28
REMARK   15  A    between atoms: _29  and  _31
REMARK   16  A    between atoms: _31  and  _33
REMARK   17  A    between atoms: _33  and  _35
REMARK                            x       y       z     vdW  Elec       q    Type
REMARK                         _______ _______ _______ _____ _____    ______ ____
ROOT
ATOM      1  C   UNL     1      27.831  12.596  -3.490  0.00  0.00    +0.400 C 
ATOM      2  N   UNL     1      26.989  11.932  -2.630  0.00  0.00    -0.278 N 
ATOM      3  H   UNL     1      27.456  10.977  -2.515  0.00  0.00    +0.152 HD
ATOM      4  O   UNL     1      28.913  12.080  -3.757  0.00  0.00    -0.226 OA
ENDROOT
BRANCH   1   5
ATOM      5  O   UNL     1      27.378  13.708  -3.969  0.00  0.00    -0.450 OA
BRANCH   5   6
ATOM      6  C   UNL     1      26.565  14.164  -5.025  0.00  0.00    +0.240 C 
BRANCH   6   7
ATOM      7  C   UNL     1      25.743  15.445  -4.787  0.00  0.00    +0.100 C 
BRANCH   7   9
ATOM      8  N   UNL     1      24.594  15.475  -2.597  0.00  0.00    -0.134 NA
ATOM      9  C   UNL     1      24.578  15.158  -3.929  0.00  0.00    +0.086 A 
ATOM     10  C   UNL     1      23.369  14.576  -4.239  0.00  0.00    +0.133 A 
ATOM     11  N   UNL     1      22.695  14.575  -3.056  0.00  0.00    -0.251 N 
ATOM     12  N   UNL     1      23.439  15.098  -2.067  0.00  0.00    -0.065 NA
BRANCH  11  13
ATOM     13  C   UNL     1      21.358  14.084  -2.785  0.00  0.00    +0.145 C 
BRANCH  13  14
ATOM     14  C   UNL     1      21.377  12.757  -2.030  0.00  0.00    +0.023 C 
BRANCH  14  15
ATOM     15  C   UNL     1      21.094  12.926  -0.535  0.00  0.00    +0.002 C 
BRANCH  15  16
ATOM     16  C   UNL     1      21.440  11.634   0.210  0.00  0.00    +0.011 C 
BRANCH  16  17
ATOM     17  C   UNL     1      21.460  11.810   1.725  0.00  0.00    +0.120 C 
BRANCH  17  18
ATOM     18  C   UNL     1      22.253  10.711   2.395  0.00  0.00    +0.305 C 
ATOM     19  O   UNL     1      21.851   9.579   2.612  0.00  0.00    -0.251 OA
BRANCH  18  20
ATOM     20  O   UNL     1      23.499  11.111   2.741  0.00  0.00    -0.481 OA
ATOM     21  H   UNL     1      24.207  10.681   2.228  0.00  0.00    +0.295 HD
ENDBRANCH  18  20
ENDBRANCH  17  18
ENDBRANCH  16  17
ENDBRANCH  15  16
ENDBRANCH  14  15
ENDBRANCH  13  14
ENDBRANCH  11  13
ENDBRANCH   7   9
ENDBRANCH   6   7
ENDBRANCH   5   6
ENDBRANCH   1   5
BRANCH   2  22
ATOM     22  C   UNL     1      25.781  11.950  -1.810  0.00  0.00    +0.152 C 
BRANCH  22  23
ATOM     23  C   UNL     1      25.884  12.695  -0.463  0.00  0.00    +0.193 C 
ATOM     24  O   UNL     1      24.637  12.472   0.231  0.00  0.00    -0.219 OA
BRANCH  23  25
ATOM     25  C   UNL     1      26.968  12.227   0.532  0.00  0.00    +0.212 C 
ATOM     26  O   UNL     1      27.546  10.985   0.097  0.00  0.00    -0.218 OA
BRANCH  25  27
ATOM     27  C   UNL     1      28.126  13.278   0.734  0.00  0.00    +0.171 C 
ATOM     28  O   UNL     1      28.675  13.731  -0.499  0.00  0.00    -0.343 OA
ATOM     29  C   UNL     1      29.857  14.466  -0.612  0.00  0.00    +0.220 C 
ATOM     30  C   UNL     1      31.016  13.806   0.156  0.00  0.00    +0.076 C 
ATOM     31  C   UNL     1      30.537  13.567   1.598  0.00  0.00    +0.177 C 
ATOM     32  O   UNL     1      31.586  12.993   2.365  0.00  0.00    -0.221 OA
ATOM     33  C   UNL     1      29.270  12.656   1.600  0.00  0.00    +0.155 C 
BRANCH  33  34
ATOM     34  N   UNL     1      28.817  12.421   2.968  0.00  0.00    -0.202 NA
ATOM     35  C   UNL     1      28.832  11.280   3.704  0.00  0.00    +0.242 C 
ATOM     36  C   UNL     1      28.578  11.381   5.185  0.00  0.00    +0.096 C 
ATOM     37  O   UNL     1      29.053  10.204   3.151  0.00  0.00    -0.273 OA
ENDBRANCH  33  34
BRANCH  29  38
ATOM     38  C   UNL     1      29.688  16.031  -0.208  0.00  0.00    +0.391 C 
ATOM     39  O   UNL     1      30.945  16.506  -0.122  0.00  0.00    -0.243 OA
ATOM     40  O   UNL     1      28.397  16.326  -0.407  0.00  0.00    -0.243 OA
ENDBRANCH  29  38
ENDBRANCH  25  27
ENDBRANCH  23  25
ENDBRANCH  22  23
ENDBRANCH   2  22
TORSDOF 17
