REMARK VINA RESULT:    -6.766      2.672      4.122
REMARK INTER + INTRA:         -12.726
REMARK INTER:                 -10.952
REMARK INTRA:                  -1.774
REMARK UNBOUND:                -1.609
REMARK  Name = lig_assembled_87.pdb
REMARK  12 active torsions:
REMARK  status: ('A' for Active; 'I' for Inactive)
REMARK    1  A    between atoms: _2  and  _9
REMARK    2  A    between atoms: _3  and  _12
REMARK    3  A    between atoms: _6  and  _7
REMARK    4  A    between atoms: _6  and  _16
REMARK    5  A    between atoms: _16  and  _18
REMARK    6  A    between atoms: _17  and  _22
REMARK    7  A    between atoms: _18  and  _21
REMARK    8  A    between atoms: _26  and  _36
REMARK    9  A    between atoms: _28  and  _29
REMARK   10  A    between atoms: _30  and  _32
REMARK   11  A    between atoms: _32  and  _34
REMARK   12  A    between atoms: _34  and  _36
REMARK                            x       y       z     vdW  Elec       q    Type
REMARK                         _______ _______ _______ _____ _____    ______ ____
ROOT
ATOM      1  C   UNL     1      27.173  12.838   2.289  0.00  0.00    +0.400 C 
ATOM      2  N   UNL     1      28.202  13.220   1.461  0.00  0.00    -0.278 N 
ATOM      3  H   UNL     1      28.781  13.876   2.074  0.00  0.00    +0.152 HD
ATOM      4  O   UNL     1      27.241  13.144   3.477  0.00  0.00    -0.226 OA
ENDROOT
BRANCH   1   5
ATOM      5  O   UNL     1      26.200  12.207   1.718  0.00  0.00    -0.450 OA
BRANCH   5   6
ATOM      6  C   UNL     1      25.555  10.956   1.780  0.00  0.00    +0.240 C 
BRANCH   6   7
ATOM      7  C   UNL     1      24.244  10.872   2.585  0.00  0.00    +0.100 C 
BRANCH   7   9
ATOM      8  N   UNL     1      21.934  11.691   2.272  0.00  0.00    -0.134 NA
ATOM      9  C   UNL     1      23.099  11.227   1.728  0.00  0.00    +0.086 A 
ATOM     10  C   UNL     1      22.973  11.193   0.357  0.00  0.00    +0.134 A 
ATOM     11  N   UNL     1      21.754  11.764   0.114  0.00  0.00    -0.248 N 
ATOM     12  N   UNL     1      21.099  11.947   1.279  0.00  0.00    -0.065 NA
BRANCH  11  13
ATOM     13  C   UNL     1      21.104  12.161  -1.149  0.00  0.00    +0.112 C 
ATOM     14  C   UNL     1      21.894  11.788  -2.435  0.00  0.00    +0.045 C 
ATOM     15  C   UNL     1      22.295  12.966  -3.337  0.00  0.00    +0.059 C 
ATOM     16  C   UNL     1      21.118  13.461  -4.192  0.00  0.00    +0.020 C 
ATOM     17  C   UNL     1      20.537  14.636  -3.406  0.00  0.00    +0.020 C 
ATOM     18  C   UNL     1      21.305  14.609  -2.084  0.00  0.00    +0.059 C 
ATOM     19  N   UNL     1      22.606  14.172  -2.581  0.00  0.00    -0.299 NA
ATOM     20  C   UNL     1      23.698  14.106  -1.635  0.00  0.00    +0.105 C 
ATOM     21  C   UNL     1      20.640  13.648  -1.096  0.00  0.00    +0.045 C 
ENDBRANCH  11  13
ENDBRANCH   7   9
ENDBRANCH   6   7
ENDBRANCH   5   6
ENDBRANCH   1   5
BRANCH   2  22
ATOM     22  C   UNL     1      28.851  13.121   0.157  0.00  0.00    +0.152 C 
BRANCH  22  23
ATOM     23  C   UNL     1      29.272  14.455  -0.495  0.00  0.00    +0.193 C 
ATOM     24  O   UNL     1      28.615  15.505   0.248  0.00  0.00    -0.219 OA
BRANCH  23  25
ATOM     25  C   UNL     1      30.769  14.831  -0.452  0.00  0.00    +0.212 C 
ATOM     26  O   UNL     1      30.927  16.229  -0.163  0.00  0.00    -0.218 OA
BRANCH  25  27
ATOM     27  C   UNL     1      31.591  14.001   0.606  0.00  0.00    +0.171 C 
ATOM     28  O   UNL     1      31.565  14.589   1.903  0.00  0.00    -0.343 OA
ATOM     29  C   UNL     1      32.395  14.205   2.959  0.00  0.00    +0.220 C 
ATOM     30  C   UNL     1      33.874  14.164   2.536  0.00  0.00    +0.076 C 
ATOM     31  C   UNL     1      33.973  13.281   1.281  0.00  0.00    +0.177 C 
ATOM     32  O   UNL     1      35.328  13.177   0.870  0.00  0.00    -0.221 OA
ATOM     33  C   UNL     1      33.078  13.863   0.142  0.00  0.00    +0.155 C 
BRANCH  33  34
ATOM     34  N   UNL     1      33.174  13.030  -1.054  0.00  0.00    -0.202 NA
ATOM     35  C   UNL     1      33.471  13.378  -2.332  0.00  0.00    +0.242 C 
ATOM     36  C   UNL     1      33.793  12.282  -3.315  0.00  0.00    +0.096 C 
ATOM     37  O   UNL     1      33.473  14.564  -2.654  0.00  0.00    -0.273 OA
ENDBRANCH  33  34
BRANCH  29  38
ATOM     38  C   UNL     1      31.939  12.817   3.669  0.00  0.00    +0.391 C 
ATOM     39  O   UNL     1      32.968  12.483   4.473  0.00  0.00    -0.243 OA
ATOM     40  O   UNL     1      30.628  12.692   3.429  0.00  0.00    -0.243 OA
ENDBRANCH  29  38
ENDBRANCH  25  27
ENDBRANCH  23  25
ENDBRANCH  22  23
ENDBRANCH   2  22
TORSDOF 11
