REMARK VINA RESULT:    -7.077      2.371      3.347
REMARK INTER + INTRA:         -14.663
REMARK INTER:                 -11.780
REMARK INTRA:                  -2.884
REMARK UNBOUND:                -1.794
REMARK  Name = lig_assembled_18.pdb
REMARK  14 active torsions:
REMARK  status: ('A' for Active; 'I' for Inactive)
REMARK    1  A    between atoms: _2  and  _9
REMARK    2  A    between atoms: _3  and  _11
REMARK    3  A    between atoms: _6  and  _7
REMARK    4  A    between atoms: _6  and  _16
REMARK    5  A    between atoms: _9  and  _10
REMARK    6  A    between atoms: _11  and  _12
REMARK    7  A    between atoms: _16  and  _18
REMARK    8  A    between atoms: _17  and  _22
REMARK    9  A    between atoms: _18  and  _21
REMARK   10  A    between atoms: _26  and  _36
REMARK   11  A    between atoms: _28  and  _29
REMARK   12  A    between atoms: _30  and  _32
REMARK   13  A    between atoms: _32  and  _34
REMARK   14  A    between atoms: _34  and  _36
REMARK                            x       y       z     vdW  Elec       q    Type
REMARK                         _______ _______ _______ _____ _____    ______ ____
ROOT
ATOM      1  C   UNL     1      28.080  16.950  -0.815  0.00  0.00    +0.400 C 
ATOM      2  N   UNL     1      28.334  15.734  -0.227  0.00  0.00    -0.278 N 
ATOM      3  H   UNL     1      28.636  15.996   0.764  0.00  0.00    +0.152 HD
ATOM      4  O   UNL     1      28.068  17.949  -0.099  0.00  0.00    -0.226 OA
ENDROOT
BRANCH   2   5
ATOM      5  C   UNL     1      28.362  14.278  -0.342  0.00  0.00    +0.152 C 
BRANCH   5   6
ATOM      6  C   UNL     1      27.956  13.489   0.919  0.00  0.00    +0.193 C 
ATOM      7  O   UNL     1      28.356  12.118   0.698  0.00  0.00    -0.219 OA
BRANCH   6   8
ATOM      8  C   UNL     1      28.631  13.877   2.253  0.00  0.00    +0.212 C 
ATOM      9  O   UNL     1      27.655  13.959   3.304  0.00  0.00    -0.218 OA
BRANCH   8  10
ATOM     10  C   UNL     1      29.763  12.873   2.695  0.00  0.00    +0.171 C 
ATOM     11  O   UNL     1      29.570  12.376   4.015  0.00  0.00    -0.343 OA
ATOM     12  C   UNL     1      30.533  11.672   4.742  0.00  0.00    +0.220 C 
ATOM     13  C   UNL     1      31.886  12.404   4.754  0.00  0.00    +0.076 C 
ATOM     14  C   UNL     1      32.265  12.700   3.293  0.00  0.00    +0.177 C 
ATOM     15  O   UNL     1      33.531  13.343   3.244  0.00  0.00    -0.221 OA
ATOM     16  C   UNL     1      31.160  13.571   2.617  0.00  0.00    +0.155 C 
BRANCH  16  17
ATOM     17  N   UNL     1      31.520  13.861   1.231  0.00  0.00    -0.202 NA
ATOM     18  C   UNL     1      31.609  15.053   0.589  0.00  0.00    +0.242 C 
ATOM     19  C   UNL     1      32.286  15.092  -0.756  0.00  0.00    +0.096 C 
ATOM     20  O   UNL     1      31.142  16.062   1.114  0.00  0.00    -0.273 OA
ENDBRANCH  16  17
BRANCH  12  21
ATOM     21  C   UNL     1      30.696  10.125   4.271  0.00  0.00    +0.391 C 
ATOM     22  O   UNL     1      31.843   9.707   4.841  0.00  0.00    -0.243 OA
ATOM     23  O   UNL     1      29.510   9.766   3.763  0.00  0.00    -0.243 OA
ENDBRANCH  12  21
ENDBRANCH   8  10
ENDBRANCH   6   8
ENDBRANCH   5   6
ENDBRANCH   2   5
BRANCH   1  24
ATOM     24  O   UNL     1      27.904  16.928  -2.095  0.00  0.00    -0.450 OA
BRANCH  24  25
ATOM     25  C   UNL     1      27.035  17.467  -3.064  0.00  0.00    +0.240 C 
BRANCH  25  26
ATOM     26  C   UNL     1      26.423  16.494  -4.090  0.00  0.00    +0.100 C 
BRANCH  26  28
ATOM     27  N   UNL     1      24.956  15.140  -2.622  0.00  0.00    -0.134 NA
ATOM     28  C   UNL     1      26.054  15.225  -3.436  0.00  0.00    +0.086 A 
ATOM     29  C   UNL     1      26.667  13.993  -3.493  0.00  0.00    +0.134 A 
ATOM     30  N   UNL     1      25.879  13.195  -2.719  0.00  0.00    -0.243 N 
ATOM     31  N   UNL     1      24.863  13.892  -2.178  0.00  0.00    -0.065 NA
BRANCH  30  32
ATOM     32  C   UNL     1      26.082  11.814  -2.348  0.00  0.00    +0.240 C 
BRANCH  32  33
ATOM     33  C   UNL     1      24.915  11.253  -1.571  0.00  0.00    +0.235 C 
ATOM     34  O   UNL     1      24.971  11.049  -0.359  0.00  0.00    -0.274 OA
ATOM     35  N   UNL     1      23.765  11.042  -2.307  0.00  0.00    -0.309 N 
ATOM     36  H   UNL     1      23.798  11.060  -3.317  0.00  0.00    +0.149 HD
BRANCH  35  37
ATOM     37  C   UNL     1      22.560  10.522  -1.695  0.00  0.00    +0.146 C 
BRANCH  37  38
ATOM     38  C   UNL     1      21.704  11.656  -1.230  0.00  0.00    +0.007 A 
ATOM     39  S   UNL     1      21.030  12.760  -2.354  0.00  0.00    -0.100 S 
ATOM     40  C   UNL     1      20.318  13.692  -1.109  0.00  0.00    +0.045 A 
ATOM     41  C   UNL     1      20.572  13.169   0.140  0.00  0.00    +0.008 A 
ATOM     42  C   UNL     1      21.366  11.988   0.068  0.00  0.00    +0.013 A 
ENDBRANCH  37  38
ENDBRANCH  35  37
ENDBRANCH  32  33
ENDBRANCH  30  32
ENDBRANCH  26  28
ENDBRANCH  25  26
ENDBRANCH  24  25
ENDBRANCH   1  24
TORSDOF 14
