REMARK VINA RESULT:    -6.849      3.152      8.418
REMARK INTER + INTRA:         -13.468
REMARK INTER:                 -11.013
REMARK INTRA:                  -2.456
REMARK UNBOUND:                -1.815
REMARK  Name = lig_assembled_71.pdb
REMARK  12 active torsions:
REMARK  status: ('A' for Active; 'I' for Inactive)
REMARK    1  A    between atoms: _2  and  _11
REMARK    2  A    between atoms: _8  and  _9
REMARK    3  A    between atoms: _8  and  _17
REMARK    4  A    between atoms: _11  and  _12
REMARK    5  A    between atoms: _17  and  _19
REMARK    6  A    between atoms: _18  and  _23
REMARK    7  A    between atoms: _19  and  _22
REMARK    8  A    between atoms: _27  and  _37
REMARK    9  A    between atoms: _29  and  _30
REMARK   10  A    between atoms: _31  and  _33
REMARK   11  A    between atoms: _33  and  _35
REMARK   12  A    between atoms: _35  and  _37
REMARK                            x       y       z     vdW  Elec       q    Type
REMARK                         _______ _______ _______ _____ _____    ______ ____
ROOT
ATOM      1  C   UNL     1      25.959  15.777  -4.638  0.00  0.00    +0.400 C 
ATOM      2  N   UNL     1      24.613  15.578  -4.447  0.00  0.00    -0.278 N 
ATOM      3  H   UNL     1      24.292  15.151  -5.373  0.00  0.00    +0.152 HD
ATOM      4  O   UNL     1      26.479  15.298  -5.643  0.00  0.00    -0.226 OA
ENDROOT
BRANCH   2   5
ATOM      5  C   UNL     1      23.454  15.671  -3.562  0.00  0.00    +0.152 C 
BRANCH   5   6
ATOM      6  C   UNL     1      23.339  14.581  -2.476  0.00  0.00    +0.193 C 
ATOM      7  O   UNL     1      22.033  14.731  -1.876  0.00  0.00    -0.219 OA
BRANCH   6   8
ATOM      8  C   UNL     1      23.386  13.107  -2.935  0.00  0.00    +0.212 C 
ATOM      9  O   UNL     1      23.397  13.028  -4.370  0.00  0.00    -0.218 OA
BRANCH   8  10
ATOM     10  C   UNL     1      24.631  12.319  -2.377  0.00  0.00    +0.171 C 
ATOM     11  O   UNL     1      25.513  11.887  -3.408  0.00  0.00    -0.343 OA
ATOM     12  C   UNL     1      26.552  10.971  -3.224  0.00  0.00    +0.220 C 
ATOM     13  C   UNL     1      26.069   9.696  -2.510  0.00  0.00    +0.076 C 
ATOM     14  C   UNL     1      25.353  10.131  -1.220  0.00  0.00    +0.177 C 
ATOM     15  O   UNL     1      24.921   8.985  -0.500  0.00  0.00    -0.221 OA
ATOM     16  C   UNL     1      24.156  11.072  -1.561  0.00  0.00    +0.155 C 
BRANCH  16  17
ATOM     17  N   UNL     1      23.469  11.481  -0.339  0.00  0.00    -0.202 NA
ATOM     18  C   UNL     1      22.163  11.351   0.008  0.00  0.00    +0.242 C 
ATOM     19  C   UNL     1      21.777  11.591   1.445  0.00  0.00    +0.096 C 
ATOM     20  O   UNL     1      21.336  11.042  -0.847  0.00  0.00    -0.273 OA
ENDBRANCH  16  17
BRANCH  12  21
ATOM     21  C   UNL     1      27.854  11.609  -2.491  0.00  0.00    +0.391 C 
ATOM     22  O   UNL     1      28.514  10.554  -1.974  0.00  0.00    -0.243 OA
ATOM     23  O   UNL     1      27.941  12.872  -2.925  0.00  0.00    -0.243 OA
ENDBRANCH  12  21
ENDBRANCH   8  10
ENDBRANCH   6   8
ENDBRANCH   5   6
ENDBRANCH   2   5
BRANCH   1  24
ATOM     24  O   UNL     1      26.553  16.491  -3.738  0.00  0.00    -0.450 OA
BRANCH  24  25
ATOM     25  C   UNL     1      26.386  16.867  -2.391  0.00  0.00    +0.240 C 
BRANCH  25  26
ATOM     26  C   UNL     1      27.476  17.754  -1.760  0.00  0.00    +0.100 C 
BRANCH  26  28
ATOM     27  N   UNL     1      28.572  15.570  -1.317  0.00  0.00    -0.134 NA
ATOM     28  C   UNL     1      28.489  16.919  -1.087  0.00  0.00    +0.086 A 
ATOM     29  C   UNL     1      29.465  17.279  -0.188  0.00  0.00    +0.134 A 
ATOM     30  N   UNL     1      30.099  16.108   0.107  0.00  0.00    -0.243 N 
ATOM     31  N   UNL     1      29.568  15.084  -0.586  0.00  0.00    -0.065 NA
BRANCH  30  32
ATOM     32  C   UNL     1      31.270  15.895   0.931  0.00  0.00    +0.241 C 
BRANCH  32  33
ATOM     33  C   UNL     1      31.098  14.716   1.855  0.00  0.00    +0.241 C 
ATOM     34  O   UNL     1      32.068  14.020   2.152  0.00  0.00    -0.273 OA
ATOM     35  N   UNL     1      29.796  14.475   2.239  0.00  0.00    -0.253 N 
ATOM     36  H   UNL     1      29.013  14.946   1.812  0.00  0.00    +0.158 HD
ATOM     37  C   UNL     1      29.422  13.456   3.107  0.00  0.00    +0.221 A 
ATOM     38  N   UNL     1      28.108  13.185   3.141  0.00  0.00    -0.223 NA
ATOM     39  C   UNL     1      27.734  12.148   3.920  0.00  0.00    +0.116 A 
ATOM     40  C   UNL     1      28.610  11.403   4.675  0.00  0.00    +0.039 A 
ATOM     41  C   UNL     1      29.920  11.793   4.602  0.00  0.00    +0.116 A 
ATOM     42  N   UNL     1      30.340  12.808   3.830  0.00  0.00    -0.223 NA
ENDBRANCH  32  33
ENDBRANCH  30  32
ENDBRANCH  26  28
ENDBRANCH  25  26
ENDBRANCH  24  25
ENDBRANCH   1  24
TORSDOF 12
