REMARK VINA RESULT:    -6.374      3.047      7.806
REMARK INTER + INTRA:         -16.161
REMARK INTER:                 -12.015
REMARK INTRA:                  -4.146
REMARK UNBOUND:                -3.824
REMARK  Name = lig_assembled_81.pdb
REMARK  17 active torsions:
REMARK  status: ('A' for Active; 'I' for Inactive)
REMARK    1  A    between atoms: _2  and  _11
REMARK    2  A    between atoms: _7  and  _23
REMARK    3  A    between atoms: _8  and  _9
REMARK    4  A    between atoms: _8  and  _25
REMARK    5  A    between atoms: _13  and  _14
REMARK    6  A    between atoms: _20  and  _21
REMARK    7  A    between atoms: _21  and  _22
REMARK    8  A    between atoms: _22  and  _24
REMARK    9  A    between atoms: _23  and  _24
REMARK   10  A    between atoms: _25  and  _27
REMARK   11  A    between atoms: _26  and  _31
REMARK   12  A    between atoms: _27  and  _30
REMARK   13  A    between atoms: _35  and  _45
REMARK   14  A    between atoms: _37  and  _38
REMARK   15  A    between atoms: _39  and  _41
REMARK   16  A    between atoms: _41  and  _43
REMARK   17  A    between atoms: _43  and  _45
REMARK                            x       y       z     vdW  Elec       q    Type
REMARK                         _______ _______ _______ _____ _____    ______ ____
ROOT
ATOM      1  C   UNL     1      22.185  13.889  -3.730  0.00  0.00    +0.096 C 
ENDROOT
BRANCH   1   3
ATOM      2  N   UNL     1      24.433  14.207  -4.657  0.00  0.00    -0.133 NA
ATOM      3  C   UNL     1      23.615  14.221  -3.568  0.00  0.00    +0.066 C 
ATOM      4  C   UNL     1      24.369  14.540  -2.453  0.00  0.00    +0.120 C 
ATOM      5  N   UNL     1      25.625  14.849  -2.956  0.00  0.00    -0.187 N 
ATOM      6  N   UNL     1      25.664  14.454  -4.244  0.00  0.00    -0.010 NA
BRANCH   5   7
ATOM      7  C   UNL     1      26.780  15.298  -2.233  0.00  0.00    +0.150 A 
ATOM      8  C   UNL     1      27.635  14.481  -1.450  0.00  0.00    +0.022 A 
ATOM      9  C   UNL     1      28.651  15.213  -0.782  0.00  0.00    +0.081 A 
ATOM     10  N   UNL     1      28.717  16.572  -0.849  0.00  0.00    -0.214 NA
ATOM     11  C   UNL     1      27.843  17.228  -1.592  0.00  0.00    +0.215 A 
ATOM     12  N   UNL     1      27.870  18.602  -1.573  0.00  0.00    -0.327 N 
ATOM     13  H   UNL     1      28.773  18.946  -1.283  0.00  0.00    +0.145 HD
ATOM     14  H   UNL     1      27.439  18.996  -2.395  0.00  0.00    +0.145 HD
ATOM     15  N   UNL     1      26.941  16.645  -2.357  0.00  0.00    -0.198 NA
BRANCH   9  16
ATOM     16  C   UNL     1      29.762  14.677   0.094  0.00  0.00    +0.001 A 
ATOM     17  C   UNL     1      29.628  14.336   1.452  0.00  0.00    +0.010 A 
ATOM     18  C   UNL     1      30.696  13.830   2.212  0.00  0.00    +0.001 A 
ATOM     19  C   UNL     1      31.924  13.588   1.625  0.00  0.00    +0.000 A 
ATOM     20  C   UNL     1      32.091  13.857   0.269  0.00  0.00    +0.001 A 
ATOM     21  C   UNL     1      31.031  14.402  -0.470  0.00  0.00    +0.010 A 
ENDBRANCH   9  16
BRANCH   8  22
ATOM     22  C   UNL     1      27.657  12.955  -1.339  0.00  0.00    +0.069 C 
BRANCH  22  23
ATOM     23  C   UNL     1      28.314  12.099  -2.404  0.00  0.00    +0.164 C 
BRANCH  23  24
ATOM     24  O   UNL     1      29.411  11.282  -1.978  0.00  0.00    -0.380 OA
BRANCH  24  25
ATOM     25  C   UNL     1      29.268  11.127  -0.553  0.00  0.00    +0.156 C 
ATOM     26  C   UNL     1      30.474  10.456   0.061  0.00  0.00    +0.034 C 
ENDBRANCH  24  25
ENDBRANCH  23  24
ENDBRANCH  22  23
ENDBRANCH   8  22
ENDBRANCH   5   7
ENDBRANCH   1   3
BRANCH   1  27
ATOM     27  C   UNL     1      21.392  14.314  -2.479  0.00  0.00    +0.240 C 
BRANCH  27  28
ATOM     28  O   UNL     1      21.334  13.403  -1.406  0.00  0.00    -0.450 OA
BRANCH  28  29
ATOM     29  C   UNL     1      21.107  12.148  -1.196  0.00  0.00    +0.400 C 
ATOM     30  N   UNL     1      21.193  11.738   0.113  0.00  0.00    -0.278 N 
ATOM     31  H   UNL     1      20.787  10.750   0.090  0.00  0.00    +0.152 HD
ATOM     32  O   UNL     1      20.799  11.315  -2.045  0.00  0.00    -0.226 OA
BRANCH  30  33
ATOM     33  C   UNL     1      21.594  12.034   1.486  0.00  0.00    +0.152 C 
BRANCH  33  34
ATOM     34  C   UNL     1      22.527  11.007   2.158  0.00  0.00    +0.193 C 
ATOM     35  O   UNL     1      21.853   9.730   2.096  0.00  0.00    -0.219 OA
BRANCH  34  36
ATOM     36  C   UNL     1      23.900  10.750   1.500  0.00  0.00    +0.212 C 
ATOM     37  O   UNL     1      24.158  11.727   0.478  0.00  0.00    -0.218 OA
BRANCH  36  38
ATOM     38  C   UNL     1      25.098  10.766   2.525  0.00  0.00    +0.171 C 
ATOM     39  O   UNL     1      26.232  11.471   2.031  0.00  0.00    -0.343 OA
ATOM     40  C   UNL     1      27.499  11.435   2.619  0.00  0.00    +0.220 C 
ATOM     41  C   UNL     1      27.969   9.993   2.875  0.00  0.00    +0.076 C 
ATOM     42  C   UNL     1      26.864   9.282   3.675  0.00  0.00    +0.177 C 
ATOM     43  O   UNL     1      27.266   7.952   3.974  0.00  0.00    -0.221 OA
ATOM     44  C   UNL     1      25.524   9.303   2.876  0.00  0.00    +0.155 C 
BRANCH  44  45
ATOM     45  N   UNL     1      24.474   8.622   3.629  0.00  0.00    -0.202 NA
ATOM     46  C   UNL     1      23.904   7.408   3.419  0.00  0.00    +0.242 C 
ATOM     47  C   UNL     1      23.053   6.819   4.514  0.00  0.00    +0.096 C 
ATOM     48  O   UNL     1      24.092   6.824   2.354  0.00  0.00    -0.273 OA
ENDBRANCH  44  45
BRANCH  40  49
ATOM     49  C   UNL     1      27.617  12.349   3.957  0.00  0.00    +0.391 C 
ATOM     50  O   UNL     1      28.494  11.697   4.746  0.00  0.00    -0.243 OA
ATOM     51  O   UNL     1      27.053  13.524   3.654  0.00  0.00    -0.243 OA
ENDBRANCH  40  49
ENDBRANCH  36  38
ENDBRANCH  34  36
ENDBRANCH  33  34
ENDBRANCH  30  33
ENDBRANCH  28  29
ENDBRANCH  27  28
ENDBRANCH   1  27
TORSDOF 16
