REMARK VINA RESULT:    -6.727      0.757      1.983
REMARK INTER + INTRA:         -14.651
REMARK INTER:                 -12.741
REMARK INTRA:                  -1.910
REMARK UNBOUND:                -2.025
REMARK  Name = lig_assembled_10.pdb
REMARK  16 active torsions:
REMARK  status: ('A' for Active; 'I' for Inactive)
REMARK    1  A    between atoms: _2  and  _8
REMARK    2  A    between atoms: _4  and  _8
REMARK    3  A    between atoms: _4  and  _11
REMARK    4  A    between atoms: _5  and  _6
REMARK    5  A    between atoms: _5  and  _15
REMARK    6  A    between atoms: _8  and  _9
REMARK    7  A    between atoms: _9  and  _10
REMARK    8  A    between atoms: _10  and  _13
REMARK    9  A    between atoms: _15  and  _17
REMARK   10  A    between atoms: _16  and  _21
REMARK   11  A    between atoms: _17  and  _20
REMARK   12  A    between atoms: _25  and  _35
REMARK   13  A    between atoms: _27  and  _28
REMARK   14  A    between atoms: _29  and  _31
REMARK   15  A    between atoms: _31  and  _33
REMARK   16  A    between atoms: _33  and  _35
REMARK                            x       y       z     vdW  Elec       q    Type
REMARK                         _______ _______ _______ _____ _____    ______ ____
ROOT
ATOM      1  C   UNL     1      27.961  17.063  -0.624  0.00  0.00    +0.400 C 
ATOM      2  N   UNL     1      28.468  16.108   0.225  0.00  0.00    -0.278 N 
ATOM      3  H   UNL     1      28.869  16.682   1.033  0.00  0.00    +0.152 HD
ATOM      4  O   UNL     1      27.910  18.224  -0.225  0.00  0.00    -0.226 OA
ENDROOT
BRANCH   2   5
ATOM      5  C   UNL     1      28.687  14.694   0.518  0.00  0.00    +0.152 C 
BRANCH   5   6
ATOM      6  C   UNL     1      30.069  14.126   0.134  0.00  0.00    +0.193 C 
ATOM      7  O   UNL     1      30.144  14.157  -1.309  0.00  0.00    -0.219 OA
BRANCH   6   8
ATOM      8  C   UNL     1      31.317  14.905   0.602  0.00  0.00    +0.212 C 
ATOM      9  O   UNL     1      30.934  16.032   1.406  0.00  0.00    -0.218 OA
BRANCH   8  10
ATOM     10  C   UNL     1      32.332  14.022   1.423  0.00  0.00    +0.171 C 
ATOM     11  O   UNL     1      32.632  14.577   2.700  0.00  0.00    -0.343 OA
ATOM     12  C   UNL     1      33.671  14.139   3.525  0.00  0.00    +0.220 C 
ATOM     13  C   UNL     1      35.008  14.061   2.767  0.00  0.00    +0.076 C 
ATOM     14  C   UNL     1      34.777  13.208   1.509  0.00  0.00    +0.177 C 
ATOM     15  O   UNL     1      35.994  13.070   0.790  0.00  0.00    -0.221 OA
ATOM     16  C   UNL     1      33.664  13.847   0.622  0.00  0.00    +0.155 C 
BRANCH  16  17
ATOM     17  N   UNL     1      33.446  13.043  -0.578  0.00  0.00    -0.202 NA
ATOM     18  C   UNL     1      33.441  13.415  -1.883  0.00  0.00    +0.242 C 
ATOM     19  C   UNL     1      33.485  12.337  -2.934  0.00  0.00    +0.096 C 
ATOM     20  O   UNL     1      33.402  14.609  -2.174  0.00  0.00    -0.273 OA
ENDBRANCH  16  17
BRANCH  12  21
ATOM     21  C   UNL     1      33.342  12.749   4.299  0.00  0.00    +0.391 C 
ATOM     22  O   UNL     1      34.520  12.353   4.818  0.00  0.00    -0.243 OA
ATOM     23  O   UNL     1      32.008  12.682   4.386  0.00  0.00    -0.243 OA
ENDBRANCH  12  21
ENDBRANCH   8  10
ENDBRANCH   6   8
ENDBRANCH   5   6
ENDBRANCH   2   5
BRANCH   1  24
ATOM     24  O   UNL     1      27.610  16.643  -1.794  0.00  0.00    -0.450 OA
BRANCH  24  25
ATOM     25  C   UNL     1      26.800  17.044  -2.874  0.00  0.00    +0.240 C 
BRANCH  25  26
ATOM     26  C   UNL     1      26.696  16.088  -4.078  0.00  0.00    +0.100 C 
BRANCH  26  28
ATOM     27  N   UNL     1      24.925  14.854  -5.293  0.00  0.00    -0.134 NA
ATOM     28  C   UNL     1      25.325  15.554  -4.189  0.00  0.00    +0.086 A 
ATOM     29  C   UNL     1      24.276  15.632  -3.301  0.00  0.00    +0.134 A 
ATOM     30  N   UNL     1      23.280  14.923  -3.898  0.00  0.00    -0.237 N 
ATOM     31  N   UNL     1      23.668  14.479  -5.110  0.00  0.00    -0.065 NA
BRANCH  30  32
ATOM     32  C   UNL     1      21.938  14.597  -3.444  0.00  0.00    +0.227 C 
BRANCH  32  33
ATOM     33  C   UNL     1      20.848  15.477  -4.018  0.00  0.00    +0.330 C 
ATOM     34  O   UNL     1      19.848  15.768  -3.373  0.00  0.00    -0.249 OA
BRANCH  33  35
ATOM     35  O   UNL     1      21.038  15.971  -5.259  0.00  0.00    -0.479 OA
ATOM     36  H   UNL     1      20.516  15.551  -5.991  0.00  0.00    +0.295 HD
ENDBRANCH  33  35
ENDBRANCH  32  33
BRANCH  32  37
ATOM     37  C   UNL     1      21.810  14.429  -1.923  0.00  0.00    +0.158 C 
BRANCH  37  38
ATOM     38  C   UNL     1      21.179  13.117  -1.551  0.00  0.00    +0.307 C 
ATOM     39  O   UNL     1      21.622  12.371  -0.688  0.00  0.00    -0.251 OA
BRANCH  38  40
ATOM     40  O   UNL     1      20.026  12.868  -2.200  0.00  0.00    -0.481 OA
ATOM     41  H   UNL     1      19.493  12.133  -1.836  0.00  0.00    +0.295 HD
ENDBRANCH  38  40
ENDBRANCH  37  38
ENDBRANCH  32  37
ENDBRANCH  30  32
ENDBRANCH  26  28
ENDBRANCH  25  26
ENDBRANCH  24  25
ENDBRANCH   1  24
TORSDOF 16
