REMARK VINA RESULT:    -7.173      1.572      3.761
REMARK INTER + INTRA:         -13.594
REMARK INTER:                 -12.429
REMARK INTRA:                  -1.165
REMARK UNBOUND:                -1.808
REMARK  Name = lig_assembled_8.pdb
REMARK  11 active torsions:
REMARK  status: ('A' for Active; 'I' for Inactive)
REMARK    1  A    between atoms: _2  and  _8
REMARK    2  A    between atoms: _5  and  _6
REMARK    3  A    between atoms: _5  and  _13
REMARK    4  A    between atoms: _13  and  _15
REMARK    5  A    between atoms: _14  and  _19
REMARK    6  A    between atoms: _15  and  _18
REMARK    7  A    between atoms: _23  and  _33
REMARK    8  A    between atoms: _25  and  _26
REMARK    9  A    between atoms: _27  and  _29
REMARK   10  A    between atoms: _29  and  _31
REMARK   11  A    between atoms: _31  and  _33
REMARK                            x       y       z     vdW  Elec       q    Type
REMARK                         _______ _______ _______ _____ _____    ______ ____
ROOT
ATOM      1  C   UNL     1      27.803  17.421  -0.703  0.00  0.00    +0.400 C 
ATOM      2  N   UNL     1      28.416  16.444   0.045  0.00  0.00    -0.278 N 
ATOM      3  H   UNL     1      28.599  16.928   0.981  0.00  0.00    +0.152 HD
ATOM      4  O   UNL     1      27.461  18.456  -0.137  0.00  0.00    -0.226 OA
ENDROOT
BRANCH   1   5
ATOM      5  O   UNL     1      27.671  17.161  -1.963  0.00  0.00    -0.450 OA
BRANCH   5   6
ATOM      6  C   UNL     1      26.780  17.426  -3.021  0.00  0.00    +0.240 C 
BRANCH   6   7
ATOM      7  C   UNL     1      26.629  16.347  -4.110  0.00  0.00    +0.100 C 
BRANCH   7   9
ATOM      8  N   UNL     1      25.451  14.195  -4.384  0.00  0.00    -0.134 NA
ATOM      9  C   UNL     1      25.586  15.378  -3.728  0.00  0.00    +0.086 A 
ATOM     10  C   UNL     1      24.636  15.444  -2.734  0.00  0.00    +0.139 A 
ATOM     11  N   UNL     1      23.942  14.249  -2.804  0.00  0.00    -0.219 N 
ATOM     12  N   UNL     1      24.455  13.526  -3.824  0.00  0.00    -0.061 NA
BRANCH  11  13
ATOM     13  C   UNL     1      22.876  13.798  -1.965  0.00  0.00    +0.081 A 
ATOM     14  C   UNL     1      23.162  12.801  -1.005  0.00  0.00    +0.029 A 
ATOM     15  C   UNL     1      22.170  12.290  -0.163  0.00  0.00    +0.002 A 
ATOM     16  C   UNL     1      20.871  12.762  -0.257  0.00  0.00    +0.001 A 
ATOM     17  C   UNL     1      20.566  13.751  -1.189  0.00  0.00    +0.017 A 
ATOM     18  C   UNL     1      21.553  14.278  -2.045  0.00  0.00    +0.043 A 
ATOM     19 BR   UNL     1      20.897  15.620  -3.226  0.00  0.00    -0.048 Br
ENDBRANCH  11  13
ENDBRANCH   7   9
ENDBRANCH   6   7
ENDBRANCH   5   6
ENDBRANCH   1   5
BRANCH   2  20
ATOM     20  C   UNL     1      28.906  15.071   0.139  0.00  0.00    +0.152 C 
BRANCH  20  21
ATOM     21  C   UNL     1      30.244  14.777  -0.571  0.00  0.00    +0.193 C 
ATOM     22  O   UNL     1      30.985  16.017  -0.589  0.00  0.00    -0.219 OA
BRANCH  21  23
ATOM     23  C   UNL     1      31.200  13.765   0.098  0.00  0.00    +0.212 C 
ATOM     24  O   UNL     1      30.538  12.506   0.299  0.00  0.00    -0.218 OA
BRANCH  23  25
ATOM     25  C   UNL     1      32.520  13.515  -0.726  0.00  0.00    +0.171 C 
ATOM     26  O   UNL     1      32.291  12.756  -1.909  0.00  0.00    -0.343 OA
ATOM     27  C   UNL     1      33.302  12.188  -2.689  0.00  0.00    +0.220 C 
ATOM     28  C   UNL     1      34.286  11.367  -1.837  0.00  0.00    +0.076 C 
ATOM     29  C   UNL     1      34.780  12.275  -0.698  0.00  0.00    +0.177 C 
ATOM     30  O   UNL     1      35.726  11.576   0.099  0.00  0.00    -0.221 OA
ATOM     31  C   UNL     1      33.572  12.769   0.158  0.00  0.00    +0.155 C 
BRANCH  31  32
ATOM     32  N   UNL     1      34.038  13.626   1.245  0.00  0.00    -0.202 NA
ATOM     33  C   UNL     1      33.925  13.464   2.588  0.00  0.00    +0.242 C 
ATOM     34  C   UNL     1      34.751  14.345   3.488  0.00  0.00    +0.096 C 
ATOM     35  O   UNL     1      33.161  12.610   3.034  0.00  0.00    -0.273 OA
ENDBRANCH  31  32
BRANCH  27  36
ATOM     36  C   UNL     1      34.077  13.263  -3.628  0.00  0.00    +0.391 C 
ATOM     37  O   UNL     1      33.307  14.368  -3.600  0.00  0.00    -0.243 OA
ATOM     38  O   UNL     1      35.305  12.767  -3.821  0.00  0.00    -0.243 OA
ENDBRANCH  27  36
ENDBRANCH  23  25
ENDBRANCH  21  23
ENDBRANCH  20  21
ENDBRANCH   2  20
TORSDOF 11
