REMARK VINA RESULT:    -7.082      1.635      3.344
REMARK INTER + INTRA:         -13.865
REMARK INTER:                 -11.854
REMARK INTRA:                  -2.010
REMARK UNBOUND:                -1.815
REMARK  Name = lig_assembled_71.pdb
REMARK  12 active torsions:
REMARK  status: ('A' for Active; 'I' for Inactive)
REMARK    1  A    between atoms: _2  and  _11
REMARK    2  A    between atoms: _8  and  _9
REMARK    3  A    between atoms: _8  and  _17
REMARK    4  A    between atoms: _11  and  _12
REMARK    5  A    between atoms: _17  and  _19
REMARK    6  A    between atoms: _18  and  _23
REMARK    7  A    between atoms: _19  and  _22
REMARK    8  A    between atoms: _27  and  _37
REMARK    9  A    between atoms: _29  and  _30
REMARK   10  A    between atoms: _31  and  _33
REMARK   11  A    between atoms: _33  and  _35
REMARK   12  A    between atoms: _35  and  _37
REMARK                            x       y       z     vdW  Elec       q    Type
REMARK                         _______ _______ _______ _____ _____    ______ ____
ROOT
ATOM      1  C   UNL     1      27.687  15.841  -1.538  0.00  0.00    +0.400 C 
ATOM      2  N   UNL     1      28.051  14.933  -0.572  0.00  0.00    -0.278 N 
ATOM      3  H   UNL     1      28.982  15.316  -0.211  0.00  0.00    +0.152 HD
ATOM      4  O   UNL     1      28.337  16.880  -1.631  0.00  0.00    -0.226 OA
ENDROOT
BRANCH   2   5
ATOM      5  C   UNL     1      27.737  13.718   0.175  0.00  0.00    +0.152 C 
BRANCH   5   6
ATOM      6  C   UNL     1      28.183  13.693   1.651  0.00  0.00    +0.193 C 
ATOM      7  O   UNL     1      27.122  13.055   2.396  0.00  0.00    -0.219 OA
BRANCH   6   8
ATOM      8  C   UNL     1      29.446  12.875   2.002  0.00  0.00    +0.212 C 
ATOM      9  O   UNL     1      29.332  11.535   1.498  0.00  0.00    -0.218 OA
BRANCH   8  10
ATOM     10  C   UNL     1      30.777  13.511   1.446  0.00  0.00    +0.171 C 
ATOM     11  O   UNL     1      30.841  13.491   0.024  0.00  0.00    -0.343 OA
ATOM     12  C   UNL     1      31.993  13.762  -0.717  0.00  0.00    +0.220 C 
ATOM     13  C   UNL     1      33.196  12.940  -0.222  0.00  0.00    +0.076 C 
ATOM     14  C   UNL     1      33.328  13.179   1.292  0.00  0.00    +0.177 C 
ATOM     15  O   UNL     1      34.453  12.471   1.795  0.00  0.00    -0.221 OA
ATOM     16  C   UNL     1      32.016  12.750   2.020  0.00  0.00    +0.155 C 
BRANCH  16  17
ATOM     17  N   UNL     1      32.140  12.969   3.459  0.00  0.00    -0.202 NA
ATOM     18  C   UNL     1      32.068  12.079   4.481  0.00  0.00    +0.242 C 
ATOM     19  C   UNL     1      32.524  12.521   5.847  0.00  0.00    +0.096 C 
ATOM     20  O   UNL     1      31.638  10.947   4.272  0.00  0.00    -0.273 OA
ENDBRANCH  16  17
BRANCH  12  21
ATOM     21  C   UNL     1      32.348  15.345  -0.806  0.00  0.00    +0.391 C 
ATOM     22  O   UNL     1      33.501  15.404  -1.501  0.00  0.00    -0.243 OA
ATOM     23  O   UNL     1      31.239  15.994  -0.433  0.00  0.00    -0.243 OA
ENDBRANCH  12  21
ENDBRANCH   8  10
ENDBRANCH   6   8
ENDBRANCH   5   6
ENDBRANCH   2   5
BRANCH   1  24
ATOM     24  O   UNL     1      26.695  15.492  -2.289  0.00  0.00    -0.450 OA
BRANCH  24  25
ATOM     25  C   UNL     1      26.454  14.756  -3.466  0.00  0.00    +0.240 C 
BRANCH  25  26
ATOM     26  C   UNL     1      25.412  15.315  -4.453  0.00  0.00    +0.100 C 
BRANCH  26  28
ATOM     27  N   UNL     1      23.591  13.639  -4.654  0.00  0.00    -0.134 NA
ATOM     28  C   UNL     1      24.067  14.809  -4.121  0.00  0.00    +0.086 A 
ATOM     29  C   UNL     1      23.111  15.343  -3.290  0.00  0.00    +0.134 A 
ATOM     30  N   UNL     1      22.069  14.466  -3.370  0.00  0.00    -0.243 N 
ATOM     31  N   UNL     1      22.368  13.434  -4.180  0.00  0.00    -0.065 NA
BRANCH  30  32
ATOM     32  C   UNL     1      20.822  14.471  -2.633  0.00  0.00    +0.241 C 
BRANCH  32  33
ATOM     33  C   UNL     1      20.953  13.769  -1.306  0.00  0.00    +0.241 C 
ATOM     34  O   UNL     1      20.134  13.982  -0.413  0.00  0.00    -0.273 OA
ATOM     35  N   UNL     1      22.071  12.971  -1.188  0.00  0.00    -0.253 N 
ATOM     36  H   UNL     1      22.816  12.986  -1.867  0.00  0.00    +0.158 HD
ATOM     37  C   UNL     1      22.368  12.217  -0.059  0.00  0.00    +0.221 A 
ATOM     38  N   UNL     1      23.621  11.739  -0.001  0.00  0.00    -0.223 NA
ATOM     39  C   UNL     1      23.950  11.068   1.123  0.00  0.00    +0.116 A 
ATOM     40  C   UNL     1      23.077  10.838   2.161  0.00  0.00    +0.039 A 
ATOM     41  C   UNL     1      21.811  11.328   1.978  0.00  0.00    +0.116 A 
ATOM     42  N   UNL     1      21.443  12.014   0.884  0.00  0.00    -0.223 NA
ENDBRANCH  32  33
ENDBRANCH  30  32
ENDBRANCH  26  28
ENDBRANCH  25  26
ENDBRANCH  24  25
ENDBRANCH   1  24
TORSDOF 12
