REMARK VINA RESULT:    -6.837      3.188      8.408
REMARK INTER + INTRA:         -12.618
REMARK INTER:                 -10.770
REMARK INTRA:                  -1.848
REMARK UNBOUND:                -1.385
REMARK  Name = lig_assembled_56.pdb
REMARK  11 active torsions:
REMARK  status: ('A' for Active; 'I' for Inactive)
REMARK    1  A    between atoms: _2  and  _9
REMARK    2  A    between atoms: _6  and  _7
REMARK    3  A    between atoms: _6  and  _13
REMARK    4  A    between atoms: _13  and  _15
REMARK    5  A    between atoms: _14  and  _19
REMARK    6  A    between atoms: _15  and  _18
REMARK    7  A    between atoms: _23  and  _33
REMARK    8  A    between atoms: _25  and  _26
REMARK    9  A    between atoms: _27  and  _29
REMARK   10  A    between atoms: _29  and  _31
REMARK   11  A    between atoms: _31  and  _33
REMARK                            x       y       z     vdW  Elec       q    Type
REMARK                         _______ _______ _______ _____ _____    ______ ____
ROOT
ATOM      1  C   UNL     1      27.546  14.959  -1.978  0.00  0.00    +0.152 C 
ENDROOT
BRANCH   1   3
ATOM      2  C   UNL     1      28.219  17.391  -0.939  0.00  0.00    +0.400 C 
ATOM      3  N   UNL     1      27.520  16.296  -1.391  0.00  0.00    -0.278 N 
ATOM      4  H   UNL     1      26.500  16.578  -1.248  0.00  0.00    +0.152 HD
ATOM      5  O   UNL     1      27.590  18.414  -0.681  0.00  0.00    -0.226 OA
BRANCH   2   6
ATOM      6  O   UNL     1      29.493  17.223  -0.798  0.00  0.00    -0.450 OA
BRANCH   6   7
ATOM      7  C   UNL     1      30.408  16.740   0.158  0.00  0.00    +0.240 C 
BRANCH   7   8
ATOM      8  C   UNL     1      31.371  15.620  -0.280  0.00  0.00    +0.100 C 
BRANCH   8  10
ATOM      9  N   UNL     1      31.284  13.259   0.451  0.00  0.00    -0.134 NA
ATOM     10  C   UNL     1      31.451  14.577   0.760  0.00  0.00    +0.086 A 
ATOM     11  C   UNL     1      31.691  14.696   2.110  0.00  0.00    +0.139 A 
ATOM     12  N   UNL     1      31.677  13.407   2.588  0.00  0.00    -0.220 N 
ATOM     13  N   UNL     1      31.418  12.554   1.567  0.00  0.00    -0.061 NA
BRANCH  12  14
ATOM     14  C   UNL     1      31.898  12.947   3.909  0.00  0.00    +0.070 A 
ATOM     15  C   UNL     1      30.862  12.383   4.659  0.00  0.00    +0.047 A 
ATOM     16  C   UNL     1      31.146  11.969   5.951  0.00  0.00    +0.113 A 
ATOM     17  N   UNL     1      32.360  12.077   6.526  0.00  0.00    -0.263 NA
ATOM     18  C   UNL     1      33.344  12.622   5.780  0.00  0.00    +0.113 A 
ATOM     19  C   UNL     1      33.169  13.068   4.481  0.00  0.00    +0.047 A 
ENDBRANCH  12  14
ENDBRANCH   8  10
ENDBRANCH   7   8
ENDBRANCH   6   7
ENDBRANCH   2   6
ENDBRANCH   1   3
BRANCH   1  20
ATOM     20  C   UNL     1      26.177  14.351  -2.343  0.00  0.00    +0.193 C 
ATOM     21  O   UNL     1      26.159  14.202  -3.780  0.00  0.00    -0.219 OA
BRANCH  20  22
ATOM     22  C   UNL     1      25.855  12.939  -1.806  0.00  0.00    +0.212 C 
ATOM     23  O   UNL     1      26.671  11.954  -2.460  0.00  0.00    -0.218 OA
BRANCH  22  24
ATOM     24  C   UNL     1      26.053  12.804  -0.248  0.00  0.00    +0.171 C 
ATOM     25  O   UNL     1      27.381  12.429   0.105  0.00  0.00    -0.343 OA
ATOM     26  C   UNL     1      27.769  12.006   1.378  0.00  0.00    +0.220 C 
ATOM     27  C   UNL     1      26.852  10.893   1.914  0.00  0.00    +0.076 C 
ATOM     28  C   UNL     1      25.403  11.398   1.812  0.00  0.00    +0.177 C 
ATOM     29  O   UNL     1      24.514  10.419   2.333  0.00  0.00    -0.221 OA
ATOM     30  C   UNL     1      25.058  11.746   0.331  0.00  0.00    +0.155 C 
BRANCH  30  31
ATOM     31  N   UNL     1      23.680  12.220   0.230  0.00  0.00    -0.202 NA
ATOM     32  C   UNL     1      22.605  11.643  -0.365  0.00  0.00    +0.242 C 
ATOM     33  C   UNL     1      21.237  12.201  -0.069  0.00  0.00    +0.096 C 
ATOM     34  O   UNL     1      22.770  10.688  -1.122  0.00  0.00    -0.273 OA
ENDBRANCH  30  31
BRANCH  26  35
ATOM     35  C   UNL     1      27.918  13.222   2.446  0.00  0.00    +0.391 C 
ATOM     36  O   UNL     1      28.165  14.314   1.697  0.00  0.00    -0.243 OA
ATOM     37  O   UNL     1      27.449  12.752   3.609  0.00  0.00    -0.243 OA
ENDBRANCH  26  35
ENDBRANCH  22  24
ENDBRANCH  20  22
ENDBRANCH   1  20
TORSDOF 11
