REMARK VINA RESULT:    -7.368      1.558      2.032
REMARK INTER + INTRA:         -13.423
REMARK INTER:                 -11.998
REMARK INTRA:                  -1.425
REMARK UNBOUND:                -1.318
REMARK  Name = lig_assembled_40.pdb
REMARK  12 active torsions:
REMARK  status: ('A' for Active; 'I' for Inactive)
REMARK    1  A    between atoms: _2  and  _8
REMARK    2  A    between atoms: _5  and  _6
REMARK    3  A    between atoms: _5  and  _14
REMARK    4  A    between atoms: _11  and  _12
REMARK    5  A    between atoms: _14  and  _16
REMARK    6  A    between atoms: _15  and  _20
REMARK    7  A    between atoms: _16  and  _19
REMARK    8  A    between atoms: _24  and  _34
REMARK    9  A    between atoms: _26  and  _27
REMARK   10  A    between atoms: _28  and  _30
REMARK   11  A    between atoms: _30  and  _32
REMARK   12  A    between atoms: _32  and  _34
REMARK                            x       y       z     vdW  Elec       q    Type
REMARK                         _______ _______ _______ _____ _____    ______ ____
ROOT
ATOM      1  C   UNL     1      27.882  17.391  -0.822  0.00  0.00    +0.400 C 
ATOM      2  N   UNL     1      28.614  16.486  -0.091  0.00  0.00    -0.278 N 
ATOM      3  H   UNL     1      28.810  17.006   0.822  0.00  0.00    +0.152 HD
ATOM      4  O   UNL     1      27.491  18.410  -0.259  0.00  0.00    -0.226 OA
ENDROOT
BRANCH   1   5
ATOM      5  O   UNL     1      27.700  17.089  -2.066  0.00  0.00    -0.450 OA
BRANCH   5   6
ATOM      6  C   UNL     1      26.982  17.556  -3.185  0.00  0.00    +0.240 C 
BRANCH   6   7
ATOM      7  C   UNL     1      26.417  16.503  -4.157  0.00  0.00    +0.100 C 
BRANCH   7   9
ATOM      8  N   UNL     1      26.777  14.142  -3.505  0.00  0.00    -0.134 NA
ATOM      9  C   UNL     1      26.031  15.282  -3.424  0.00  0.00    +0.086 A 
ATOM     10  C   UNL     1      24.965  15.063  -2.585  0.00  0.00    +0.139 A 
ATOM     11  N   UNL     1      25.118  13.768  -2.144  0.00  0.00    -0.220 N 
ATOM     12  N   UNL     1      26.212  13.225  -2.733  0.00  0.00    -0.061 NA
BRANCH  11  13
ATOM     13  C   UNL     1      24.334  13.058  -1.198  0.00  0.00    +0.067 A 
ATOM     14  C   UNL     1      24.941  12.298  -0.190  0.00  0.00    +0.028 A 
ATOM     15  C   UNL     1      24.157  11.547   0.691  0.00  0.00    +0.005 A 
ATOM     16  C   UNL     1      22.763  11.543   0.578  0.00  0.00    -0.050 A 
ATOM     17  C   UNL     1      22.157  12.331  -0.408  0.00  0.00    +0.005 A 
ATOM     18  C   UNL     1      21.921  10.701   1.491  0.00  0.00    +0.044 C 
ATOM     19  C   UNL     1      22.935  13.085  -1.292  0.00  0.00    +0.028 A 
ENDBRANCH  11  13
ENDBRANCH   7   9
ENDBRANCH   6   7
ENDBRANCH   5   6
ENDBRANCH   1   5
BRANCH   2  20
ATOM     20  C   UNL     1      29.216  15.158   0.002  0.00  0.00    +0.152 C 
BRANCH  20  21
ATOM     21  C   UNL     1      30.595  15.085   0.690  0.00  0.00    +0.193 C 
ATOM     22  O   UNL     1      31.070  16.443   0.816  0.00  0.00    -0.219 OA
BRANCH  21  23
ATOM     23  C   UNL     1      30.646  14.524   2.129  0.00  0.00    +0.212 C 
ATOM     24  O   UNL     1      29.531  13.650   2.367  0.00  0.00    -0.218 OA
BRANCH  23  25
ATOM     25  C   UNL     1      31.977  13.741   2.446  0.00  0.00    +0.171 C 
ATOM     26  O   UNL     1      32.995  14.584   2.977  0.00  0.00    -0.343 OA
ATOM     27  C   UNL     1      34.334  14.210   3.117  0.00  0.00    +0.220 C 
ATOM     28  C   UNL     1      34.901  13.621   1.814  0.00  0.00    +0.076 C 
ATOM     29  C   UNL     1      33.957  12.492   1.367  0.00  0.00    +0.177 C 
ATOM     30  O   UNL     1      34.458  11.885   0.185  0.00  0.00    -0.221 OA
ATOM     31  C   UNL     1      32.516  13.050   1.151  0.00  0.00    +0.155 C 
BRANCH  31  32
ATOM     32  N   UNL     1      31.618  11.982   0.720  0.00  0.00    -0.202 NA
ATOM     33  C   UNL     1      31.183  11.664  -0.526  0.00  0.00    +0.242 C 
ATOM     34  C   UNL     1      30.499  10.337  -0.727  0.00  0.00    +0.096 C 
ATOM     35  O   UNL     1      31.356  12.456  -1.450  0.00  0.00    -0.273 OA
ENDBRANCH  31  32
BRANCH  27  36
ATOM     36  C   UNL     1      34.602  13.228   4.383  0.00  0.00    +0.391 C 
ATOM     37  O   UNL     1      35.740  12.573   4.079  0.00  0.00    -0.243 OA
ATOM     38  O   UNL     1      33.786  13.649   5.357  0.00  0.00    -0.243 OA
ENDBRANCH  27  36
ENDBRANCH  23  25
ENDBRANCH  21  23
ENDBRANCH  20  21
ENDBRANCH   2  20
TORSDOF 11
