REMARK VINA RESULT:    -6.259      2.436      3.716
REMARK INTER + INTRA:         -13.555
REMARK INTER:                 -11.640
REMARK INTRA:                  -1.915
REMARK UNBOUND:                -1.808
REMARK  Name = lig_assembled_43.pdb
REMARK  15 active torsions:
REMARK  status: ('A' for Active; 'I' for Inactive)
REMARK    1  A    between atoms: _2  and  _8
REMARK    2  A    between atoms: _5  and  _6
REMARK    3  A    between atoms: _5  and  _13
REMARK    4  A    between atoms: _8  and  _9
REMARK    5  A    between atoms: _9  and  _10
REMARK    6  A    between atoms: _10  and  _11
REMARK    7  A    between atoms: _11  and  _12
REMARK    8  A    between atoms: _13  and  _15
REMARK    9  A    between atoms: _14  and  _19
REMARK   10  A    between atoms: _15  and  _18
REMARK   11  A    between atoms: _23  and  _33
REMARK   12  A    between atoms: _25  and  _26
REMARK   13  A    between atoms: _27  and  _29
REMARK   14  A    between atoms: _29  and  _31
REMARK   15  A    between atoms: _31  and  _33
REMARK                            x       y       z     vdW  Elec       q    Type
REMARK                         _______ _______ _______ _____ _____    ______ ____
ROOT
ATOM      1  C   UNL     1      27.891  14.340  -1.389  0.00  0.00    +0.152 C 
ENDROOT
BRANCH   1   3
ATOM      2  C   UNL     1      27.931  17.066  -1.274  0.00  0.00    +0.400 C 
ATOM      3  N   UNL     1      28.025  15.730  -0.961  0.00  0.00    -0.278 N 
ATOM      4  H   UNL     1      28.322  15.736   0.065  0.00  0.00    +0.152 HD
ATOM      5  O   UNL     1      28.009  17.882  -0.358  0.00  0.00    -0.226 OA
BRANCH   2   6
ATOM      6  O   UNL     1      27.798  17.339  -2.530  0.00  0.00    -0.450 OA
BRANCH   6   7
ATOM      7  C   UNL     1      26.781  17.432  -3.501  0.00  0.00    +0.240 C 
BRANCH   7   8
ATOM      8  C   UNL     1      26.525  16.195  -4.383  0.00  0.00    +0.100 C 
BRANCH   8  10
ATOM      9  N   UNL     1      24.613  14.687  -4.829  0.00  0.00    -0.134 NA
ATOM     10  C   UNL     1      25.282  15.519  -3.969  0.00  0.00    +0.086 A 
ATOM     11  C   UNL     1      24.599  15.575  -2.776  0.00  0.00    +0.133 A 
ATOM     12  N   UNL     1      23.525  14.762  -2.975  0.00  0.00    -0.251 N 
ATOM     13  N   UNL     1      23.535  14.228  -4.207  0.00  0.00    -0.065 NA
BRANCH  12  14
ATOM     14  C   UNL     1      22.442  14.474  -2.059  0.00  0.00    +0.145 C 
BRANCH  14  15
ATOM     15  C   UNL     1      21.480  13.442  -2.639  0.00  0.00    +0.024 C 
BRANCH  15  16
ATOM     16  C   UNL     1      20.302  13.165  -1.704  0.00  0.00    +0.006 C 
BRANCH  16  17
ATOM     17  C   UNL     1      20.744  13.260  -0.241  0.00  0.00    +0.026 C 
BRANCH  17  18
ATOM     18  C   UNL     1      21.316  11.967   0.259  0.00  0.00    -0.034 C 
ATOM     19  C   UNL     1      21.558  11.708   1.551  0.00  0.00    +0.004 C 
ENDBRANCH  17  18
ENDBRANCH  16  17
ENDBRANCH  15  16
ENDBRANCH  14  15
ENDBRANCH  12  14
ENDBRANCH   8  10
ENDBRANCH   7   8
ENDBRANCH   6   7
ENDBRANCH   2   6
ENDBRANCH   1   3
BRANCH   1  20
ATOM     20  C   UNL     1      27.975  13.275  -0.276  0.00  0.00    +0.193 C 
ATOM     21  O   UNL     1      28.611  12.116  -0.858  0.00  0.00    -0.219 OA
BRANCH  20  22
ATOM     22  C   UNL     1      28.835  13.605   0.964  0.00  0.00    +0.212 C 
ATOM     23  O   UNL     1      28.313  14.757   1.645  0.00  0.00    -0.218 OA
BRANCH  22  24
ATOM     24  C   UNL     1      28.930  12.413   1.992  0.00  0.00    +0.171 C 
ATOM     25  O   UNL     1      27.665  12.061   2.541  0.00  0.00    -0.343 OA
ATOM     26  C   UNL     1      27.490  11.217   3.641  0.00  0.00    +0.220 C 
ATOM     27  C   UNL     1      28.371  11.639   4.830  0.00  0.00    +0.076 C 
ATOM     28  C   UNL     1      29.817  11.746   4.319  0.00  0.00    +0.177 C 
ATOM     29  O   UNL     1      30.682  12.096   5.390  0.00  0.00    -0.221 OA
ATOM     30  C   UNL     1      29.902  12.786   3.159  0.00  0.00    +0.155 C 
BRANCH  30  31
ATOM     31  N   UNL     1      31.276  12.896   2.675  0.00  0.00    -0.202 NA
ATOM     32  C   UNL     1      32.060  13.994   2.529  0.00  0.00    +0.242 C 
ATOM     33  C   UNL     1      33.534  13.795   2.291  0.00  0.00    +0.096 C 
ATOM     34  O   UNL     1      31.556  15.114   2.596  0.00  0.00    -0.273 OA
ENDBRANCH  30  31
BRANCH  26  35
ATOM     35  C   UNL     1      27.681   9.643   3.286  0.00  0.00    +0.391 C 
ATOM     36  O   UNL     1      27.792   9.029   4.479  0.00  0.00    -0.243 OA
ATOM     37  O   UNL     1      27.360   9.514   1.993  0.00  0.00    -0.243 OA
ENDBRANCH  26  35
ENDBRANCH  22  24
ENDBRANCH  20  22
ENDBRANCH   1  20
TORSDOF 15
