REMARK VINA RESULT:    -6.604      2.029      3.012
REMARK INTER + INTRA:         -13.750
REMARK INTER:                 -11.680
REMARK INTRA:                  -2.070
REMARK UNBOUND:                -2.513
REMARK  Name = lig_assembled_28.pdb
REMARK  12 active torsions:
REMARK  status: ('A' for Active; 'I' for Inactive)
REMARK    1  A    between atoms: _2  and  _8
REMARK    2  A    between atoms: _5  and  _6
REMARK    3  A    between atoms: _5  and  _17
REMARK    4  A    between atoms: _8  and  _9
REMARK    5  A    between atoms: _17  and  _19
REMARK    6  A    between atoms: _18  and  _23
REMARK    7  A    between atoms: _19  and  _22
REMARK    8  A    between atoms: _27  and  _37
REMARK    9  A    between atoms: _29  and  _30
REMARK   10  A    between atoms: _31  and  _33
REMARK   11  A    between atoms: _33  and  _35
REMARK   12  A    between atoms: _35  and  _37
REMARK                            x       y       z     vdW  Elec       q    Type
REMARK                         _______ _______ _______ _____ _____    ______ ____
ROOT
ATOM      1  C   UNL     1      29.053  14.675   0.312  0.00  0.00    +0.400 C 
ATOM      2  N   UNL     1      29.638  13.667  -0.417  0.00  0.00    -0.278 N 
ATOM      3  H   UNL     1      29.593  12.827   0.242  0.00  0.00    +0.152 HD
ATOM      4  O   UNL     1      28.493  14.378   1.365  0.00  0.00    -0.226 OA
ENDROOT
BRANCH   2   5
ATOM      5  C   UNL     1      30.266  13.236  -1.663  0.00  0.00    +0.152 C 
BRANCH   5   6
ATOM      6  C   UNL     1      31.729  12.758  -1.558  0.00  0.00    +0.193 C 
ATOM      7  O   UNL     1      32.230  12.653  -2.909  0.00  0.00    -0.219 OA
BRANCH   6   8
ATOM      8  C   UNL     1      32.735  13.688  -0.845  0.00  0.00    +0.212 C 
ATOM      9  O   UNL     1      32.312  15.057  -0.946  0.00  0.00    -0.218 OA
BRANCH   8  10
ATOM     10  C   UNL     1      32.941  13.335   0.678  0.00  0.00    +0.171 C 
ATOM     11  O   UNL     1      32.131  14.129   1.538  0.00  0.00    -0.343 OA
ATOM     12  C   UNL     1      32.287  14.198   2.925  0.00  0.00    +0.220 C 
ATOM     13  C   UNL     1      33.746  14.487   3.321  0.00  0.00    +0.076 C 
ATOM     14  C   UNL     1      34.631  13.443   2.622  0.00  0.00    +0.177 C 
ATOM     15  O   UNL     1      35.989  13.641   2.987  0.00  0.00    -0.221 OA
ATOM     16  C   UNL     1      34.442  13.527   1.075  0.00  0.00    +0.155 C 
BRANCH  16  17
ATOM     17  N   UNL     1      35.286  12.541   0.406  0.00  0.00    -0.202 NA
ATOM     18  C   UNL     1      36.273  12.721  -0.508  0.00  0.00    +0.242 C 
ATOM     19  C   UNL     1      37.184  11.561  -0.815  0.00  0.00    +0.096 C 
ATOM     20  O   UNL     1      36.401  13.813  -1.057  0.00  0.00    -0.273 OA
ENDBRANCH  16  17
BRANCH  12  21
ATOM     21  C   UNL     1      31.702  12.901   3.707  0.00  0.00    +0.391 C 
ATOM     22  O   UNL     1      32.366  12.872   4.879  0.00  0.00    -0.243 OA
ATOM     23  O   UNL     1      30.596  12.537   3.045  0.00  0.00    -0.243 OA
ENDBRANCH  12  21
ENDBRANCH   8  10
ENDBRANCH   6   8
ENDBRANCH   5   6
ENDBRANCH   2   5
BRANCH   1  24
ATOM     24  O   UNL     1      29.177  15.865  -0.177  0.00  0.00    -0.450 OA
BRANCH  24  25
ATOM     25  C   UNL     1      28.496  17.098  -0.174  0.00  0.00    +0.240 C 
BRANCH  25  26
ATOM     26  C   UNL     1      28.321  17.816  -1.526  0.00  0.00    +0.100 C 
BRANCH  26  28
ATOM     27  N   UNL     1      26.987  17.568  -3.600  0.00  0.00    -0.134 NA
ATOM     28  C   UNL     1      27.328  17.110  -2.357  0.00  0.00    +0.086 A 
ATOM     29  C   UNL     1      26.636  15.948  -2.100  0.00  0.00    +0.134 A 
ATOM     30  N   UNL     1      25.965  15.696  -3.262  0.00  0.00    -0.247 N 
ATOM     31  N   UNL     1      26.141  16.701  -4.143  0.00  0.00    -0.065 NA
BRANCH  30  32
ATOM     32  C   UNL     1      25.215  14.520  -3.684  0.00  0.00    +0.180 C 
BRANCH  32  33
ATOM     33  C   UNL     1      24.210  14.044  -2.660  0.00  0.00    -0.022 A 
ATOM     34  C   UNL     1      22.953  14.665  -2.563  0.00  0.00    +0.055 A 
ATOM     35  C   UNL     1      22.028  14.123  -1.695  0.00  0.00    +0.167 A 
ATOM     36  O   UNL     1      20.753  14.562  -1.521  0.00  0.00    -0.453 OA
ATOM     37  C   UNL     1      20.245  13.556  -0.617  0.00  0.00    +0.466 C 
ATOM     38  O   UNL     1      21.258  12.635  -0.159  0.00  0.00    -0.453 OA
ATOM     39  C   UNL     1      22.315  13.027  -0.919  0.00  0.00    +0.166 A 
ATOM     40  C   UNL     1      23.549  12.413  -0.960  0.00  0.00    +0.050 A 
ATOM     41  C   UNL     1      24.502  12.925  -1.846  0.00  0.00    +0.009 A 
ENDBRANCH  32  33
ENDBRANCH  30  32
ENDBRANCH  26  28
ENDBRANCH  25  26
ENDBRANCH  24  25
ENDBRANCH   1  24
TORSDOF 12
