REMARK VINA RESULT:    -6.674      1.924      3.179
REMARK INTER + INTRA:         -13.171
REMARK INTER:                 -11.356
REMARK INTRA:                  -1.815
REMARK UNBOUND:                -1.815
REMARK  Name = lig_assembled_71.pdb
REMARK  12 active torsions:
REMARK  status: ('A' for Active; 'I' for Inactive)
REMARK    1  A    between atoms: _2  and  _11
REMARK    2  A    between atoms: _8  and  _9
REMARK    3  A    between atoms: _8  and  _17
REMARK    4  A    between atoms: _11  and  _12
REMARK    5  A    between atoms: _17  and  _19
REMARK    6  A    between atoms: _18  and  _23
REMARK    7  A    between atoms: _19  and  _22
REMARK    8  A    between atoms: _27  and  _37
REMARK    9  A    between atoms: _29  and  _30
REMARK   10  A    between atoms: _31  and  _33
REMARK   11  A    between atoms: _33  and  _35
REMARK   12  A    between atoms: _35  and  _37
REMARK                            x       y       z     vdW  Elec       q    Type
REMARK                         _______ _______ _______ _____ _____    ______ ____
ROOT
ATOM      1  C   UNL     1      27.875  17.238  -0.869  0.00  0.00    +0.400 C 
ATOM      2  N   UNL     1      28.641  16.417  -0.075  0.00  0.00    -0.278 N 
ATOM      3  H   UNL     1      28.987  17.072   0.695  0.00  0.00    +0.152 HD
ATOM      4  O   UNL     1      27.624  18.369  -0.461  0.00  0.00    -0.226 OA
ENDROOT
BRANCH   2   5
ATOM      5  C   UNL     1      29.169  15.081   0.189  0.00  0.00    +0.152 C 
BRANCH   5   6
ATOM      6  C   UNL     1      30.702  14.970   0.318  0.00  0.00    +0.193 C 
ATOM      7  O   UNL     1      31.068  15.658   1.534  0.00  0.00    -0.219 OA
BRANCH   6   8
ATOM      8  C   UNL     1      31.305  13.557   0.478  0.00  0.00    +0.212 C 
ATOM      9  O   UNL     1      32.249  13.292  -0.572  0.00  0.00    -0.218 OA
BRANCH   8  10
ATOM     10  C   UNL     1      32.021  13.337   1.866  0.00  0.00    +0.171 C 
ATOM     11  O   UNL     1      33.352  12.854   1.725  0.00  0.00    -0.343 OA
ATOM     12  C   UNL     1      34.122  12.347   2.775  0.00  0.00    +0.220 C 
ATOM     13  C   UNL     1      33.360  11.278   3.577  0.00  0.00    +0.076 C 
ATOM     14  C   UNL     1      32.013  11.888   3.998  0.00  0.00    +0.177 C 
ATOM     15  O   UNL     1      31.283  10.952   4.778  0.00  0.00    -0.221 OA
ATOM     16  C   UNL     1      31.205  12.327   2.737  0.00  0.00    +0.155 C 
BRANCH  16  17
ATOM     17  N   UNL     1      29.921  12.901   3.132  0.00  0.00    -0.202 NA
ATOM     18  C   UNL     1      28.660  12.487   2.845  0.00  0.00    +0.242 C 
ATOM     19  C   UNL     1      27.516  13.087   3.621  0.00  0.00    +0.096 C 
ATOM     20  O   UNL     1      28.483  11.642   1.970  0.00  0.00    -0.273 OA
ENDBRANCH  16  17
BRANCH  12  21
ATOM     21  C   UNL     1      34.731  13.500   3.745  0.00  0.00    +0.391 C 
ATOM     22  O   UNL     1      34.955  14.553   2.935  0.00  0.00    -0.243 OA
ATOM     23  O   UNL     1      34.502  13.087   4.998  0.00  0.00    -0.243 OA
ENDBRANCH  12  21
ENDBRANCH   8  10
ENDBRANCH   6   8
ENDBRANCH   5   6
ENDBRANCH   2   5
BRANCH   1  24
ATOM     24  O   UNL     1      27.512  16.738  -2.005  0.00  0.00    -0.450 OA
BRANCH  24  25
ATOM     25  C   UNL     1      26.843  17.132  -3.180  0.00  0.00    +0.240 C 
BRANCH  25  26
ATOM     26  C   UNL     1      26.405  16.022  -4.155  0.00  0.00    +0.100 C 
BRANCH  26  28
ATOM     27  N   UNL     1      24.390  15.935  -2.705  0.00  0.00    -0.134 NA
ATOM     28  C   UNL     1      25.189  15.352  -3.655  0.00  0.00    +0.086 A 
ATOM     29  C   UNL     1      24.656  14.133  -4.001  0.00  0.00    +0.134 A 
ATOM     30  N   UNL     1      23.543  14.020  -3.220  0.00  0.00    -0.243 N 
ATOM     31  N   UNL     1      23.378  15.114  -2.453  0.00  0.00    -0.065 NA
BRANCH  30  32
ATOM     32  C   UNL     1      22.536  12.980  -3.224  0.00  0.00    +0.241 C 
BRANCH  32  33
ATOM     33  C   UNL     1      22.338  12.387  -1.852  0.00  0.00    +0.241 C 
ATOM     34  O   UNL     1      21.202  12.221  -1.411  0.00  0.00    -0.273 OA
ATOM     35  N   UNL     1      23.505  12.141  -1.161  0.00  0.00    -0.253 N 
ATOM     36  H   UNL     1      24.400  12.478  -1.480  0.00  0.00    +0.158 HD
ATOM     37  C   UNL     1      23.549  11.573   0.107  0.00  0.00    +0.221 A 
ATOM     38  N   UNL     1      24.727  11.675   0.741  0.00  0.00    -0.223 NA
ATOM     39  C   UNL     1      24.767  11.197   2.002  0.00  0.00    +0.116 A 
ATOM     40  C   UNL     1      23.696  10.605   2.631  0.00  0.00    +0.039 A 
ATOM     41  C   UNL     1      22.556  10.512   1.878  0.00  0.00    +0.116 A 
ATOM     42  N   UNL     1      22.466  10.986   0.626  0.00  0.00    -0.223 NA
ENDBRANCH  32  33
ENDBRANCH  30  32
ENDBRANCH  26  28
ENDBRANCH  25  26
ENDBRANCH  24  25
ENDBRANCH   1  24
TORSDOF 12
