REMARK VINA RESULT:    -6.717      3.087      5.553
REMARK INTER + INTRA:         -12.973
REMARK INTER:                 -11.429
REMARK INTRA:                  -1.544
REMARK UNBOUND:                -1.544
REMARK  Name = lig_assembled_69.pdb
REMARK  13 active torsions:
REMARK  status: ('A' for Active; 'I' for Inactive)
REMARK    1  A    between atoms: _2  and  _8
REMARK    2  A    between atoms: _5  and  _6
REMARK    3  A    between atoms: _5  and  _16
REMARK    4  A    between atoms: _10  and  _15
REMARK    5  A    between atoms: _13  and  _14
REMARK    6  A    between atoms: _16  and  _18
REMARK    7  A    between atoms: _17  and  _22
REMARK    8  A    between atoms: _18  and  _21
REMARK    9  A    between atoms: _26  and  _36
REMARK   10  A    between atoms: _28  and  _29
REMARK   11  A    between atoms: _30  and  _32
REMARK   12  A    between atoms: _32  and  _34
REMARK   13  A    between atoms: _34  and  _36
REMARK                            x       y       z     vdW  Elec       q    Type
REMARK                         _______ _______ _______ _____ _____    ______ ____
ROOT
ATOM      1  C   UNL     1      28.657  16.612  -0.519  0.00  0.00    +0.400 C 
ATOM      2  N   UNL     1      27.918  15.455  -0.594  0.00  0.00    -0.278 N 
ATOM      3  H   UNL     1      26.914  15.794  -0.453  0.00  0.00    +0.152 HD
ATOM      4  O   UNL     1      28.057  17.683  -0.504  0.00  0.00    -0.226 OA
ENDROOT
BRANCH   1   5
ATOM      5  O   UNL     1      29.938  16.453  -0.441  0.00  0.00    -0.450 OA
BRANCH   5   6
ATOM      6  C   UNL     1      30.898  15.947   0.457  0.00  0.00    +0.240 C 
BRANCH   6   7
ATOM      7  C   UNL     1      31.486  14.555   0.159  0.00  0.00    +0.100 C 
BRANCH   7   9
ATOM      8  N   UNL     1      31.736  12.577   1.619  0.00  0.00    -0.134 NA
ATOM      9  C   UNL     1      31.943  13.913   1.405  0.00  0.00    +0.086 A 
ATOM     10  C   UNL     1      32.589  14.450   2.496  0.00  0.00    +0.134 A 
ATOM     11  N   UNL     1      32.734  13.393   3.345  0.00  0.00    -0.248 N 
ATOM     12  N   UNL     1      32.219  12.271   2.814  0.00  0.00    -0.065 NA
BRANCH  11  13
ATOM     13  C   UNL     1      33.302  13.391   4.692  0.00  0.00    +0.114 C 
ATOM     14  C   UNL     1      34.806  13.094   4.667  0.00  0.00    +0.062 C 
ATOM     15  C   UNL     1      35.203  11.615   4.635  0.00  0.00    +0.139 C 
ATOM     16  C   UNL     1      34.959  10.829   5.892  0.00  0.00    +0.002 C 
ATOM     17  C   UNL     1      34.110  11.097   6.897  0.00  0.00    +0.002 C 
ATOM     18  C   UNL     1      33.074  12.177   6.962  0.00  0.00    +0.139 C 
ATOM     19  C   UNL     1      32.439  12.525   5.621  0.00  0.00    +0.062 C 
BRANCH  18  20
ATOM     20  O   UNL     1      33.639  13.334   7.559  0.00  0.00    -0.388 OA
ATOM     21  H   UNL     1      34.102  13.826   6.858  0.00  0.00    +0.210 HD
ENDBRANCH  18  20
BRANCH  15  22
ATOM     22  O   UNL     1      36.620  11.568   4.423  0.00  0.00    -0.388 OA
ATOM     23  H   UNL     1      36.782  10.943   3.697  0.00  0.00    +0.210 HD
ENDBRANCH  15  22
ENDBRANCH  11  13
ENDBRANCH   7   9
ENDBRANCH   6   7
ENDBRANCH   5   6
ENDBRANCH   1   5
BRANCH   2  24
ATOM     24  C   UNL     1      27.887  14.008  -0.789  0.00  0.00    +0.152 C 
BRANCH  24  25
ATOM     25  C   UNL     1      28.151  13.510  -2.225  0.00  0.00    +0.193 C 
ATOM     26  O   UNL     1      29.156  12.478  -2.129  0.00  0.00    -0.219 OA
BRANCH  25  27
ATOM     27  C   UNL     1      26.979  12.839  -2.976  0.00  0.00    +0.212 C 
ATOM     28  O   UNL     1      27.163  11.414  -3.021  0.00  0.00    -0.218 OA
BRANCH  27  29
ATOM     29  C   UNL     1      25.571  13.145  -2.336  0.00  0.00    +0.171 C 
ATOM     30  O   UNL     1      24.721  12.003  -2.312  0.00  0.00    -0.343 OA
ATOM     31  C   UNL     1      23.353  12.045  -2.030  0.00  0.00    +0.220 C 
ATOM     32  C   UNL     1      22.627  13.102  -2.881  0.00  0.00    +0.076 C 
ATOM     33  C   UNL     1      23.368  14.436  -2.692  0.00  0.00    +0.177 C 
ATOM     34  O   UNL     1      22.713  15.459  -3.427  0.00  0.00    -0.221 OA
ATOM     35  C   UNL     1      24.859  14.290  -3.129  0.00  0.00    +0.155 C 
BRANCH  35  36
ATOM     36  N   UNL     1      25.564  15.557  -2.958  0.00  0.00    -0.202 NA
ATOM     37  C   UNL     1      26.182  16.338  -3.880  0.00  0.00    +0.242 C 
ATOM     38  C   UNL     1      26.575  17.738  -3.484  0.00  0.00    +0.096 C 
ATOM     39  O   UNL     1      26.402  15.892  -5.004  0.00  0.00    -0.273 OA
ENDBRANCH  35  36
BRANCH  31  40
ATOM     40  C   UNL     1      23.023  12.221  -0.449  0.00  0.00    +0.391 C 
ATOM     41  O   UNL     1      24.215  12.107   0.169  0.00  0.00    -0.243 OA
ATOM     42  O   UNL     1      21.777  12.704  -0.383  0.00  0.00    -0.243 OA
ENDBRANCH  31  40
ENDBRANCH  27  29
ENDBRANCH  25  27
ENDBRANCH  24  25
ENDBRANCH   2  24
TORSDOF 13
