REMARK VINA RESULT:    -7.019     23.290     26.156
REMARK INTER + INTRA:         -14.143
REMARK INTER:                 -12.605
REMARK INTRA:                  -1.538
REMARK UNBOUND:                -1.585
REMARK  Name = lig_assembled_16.pdb
REMARK  14 active torsions:
REMARK  status: ('A' for Active; 'I' for Inactive)
REMARK    1  A    between atoms: _2  and  _8
REMARK    2  A    between atoms: _5  and  _6
REMARK    3  A    between atoms: _5  and  _17
REMARK    4  A    between atoms: _8  and  _9
REMARK    5  A    between atoms: _12  and  _13
REMARK    6  A    between atoms: _13  and  _15
REMARK    7  A    between atoms: _17  and  _19
REMARK    8  A    between atoms: _18  and  _23
REMARK    9  A    between atoms: _19  and  _22
REMARK   10  A    between atoms: _27  and  _37
REMARK   11  A    between atoms: _29  and  _30
REMARK   12  A    between atoms: _31  and  _33
REMARK   13  A    between atoms: _33  and  _35
REMARK   14  A    between atoms: _35  and  _37
REMARK                            x       y       z     vdW  Elec       q    Type
REMARK                         _______ _______ _______ _____ _____    ______ ____
ROOT
ATOM      1  C   UNL     1      32.636  40.637   4.862  0.00  0.00    +0.400 C 
ATOM      2  N   UNL     1      33.731  40.073   5.474  0.00  0.00    -0.278 N 
ATOM      3  H   UNL     1      34.109  39.402   4.733  0.00  0.00    +0.152 HD
ATOM      4  O   UNL     1      32.464  40.418   3.665  0.00  0.00    -0.226 OA
ENDROOT
BRANCH   2   5
ATOM      5  C   UNL     1      34.596  39.993   6.647  0.00  0.00    +0.152 C 
BRANCH   5   6
ATOM      6  C   UNL     1      36.111  39.906   6.370  0.00  0.00    +0.193 C 
ATOM      7  O   UNL     1      36.761  39.778   7.654  0.00  0.00    -0.219 OA
BRANCH   6   8
ATOM      8  C   UNL     1      36.621  38.695   5.558  0.00  0.00    +0.212 C 
ATOM      9  O   UNL     1      35.657  37.630   5.587  0.00  0.00    -0.218 OA
BRANCH   8  10
ATOM     10  C   UNL     1      36.943  39.043   4.055  0.00  0.00    +0.171 C 
ATOM     11  O   UNL     1      36.050  40.010   3.512  0.00  0.00    -0.343 OA
ATOM     12  C   UNL     1      35.952  40.317   2.153  0.00  0.00    +0.220 C 
ATOM     13  C   UNL     1      35.790  39.053   1.292  0.00  0.00    +0.076 C 
ATOM     14  C   UNL     1      36.934  38.094   1.658  0.00  0.00    +0.177 C 
ATOM     15  O   UNL     1      36.854  36.921   0.860  0.00  0.00    -0.221 OA
ATOM     16  C   UNL     1      36.881  37.749   3.179  0.00  0.00    +0.155 C 
BRANCH  16  17
ATOM     17  N   UNL     1      37.963  36.832   3.529  0.00  0.00    -0.202 NA
ATOM     18  C   UNL     1      39.295  37.067   3.651  0.00  0.00    +0.242 C 
ATOM     19  C   UNL     1      40.149  36.016   4.311  0.00  0.00    +0.096 C 
ATOM     20  O   UNL     1      39.767  38.120   3.228  0.00  0.00    -0.273 OA
ENDBRANCH  16  17
BRANCH  12  21
ATOM     21  C   UNL     1      37.164  41.255   1.614  0.00  0.00    +0.391 C 
ATOM     22  O   UNL     1      37.114  41.149   0.272  0.00  0.00    -0.243 OA
ATOM     23  O   UNL     1      37.550  41.998   2.658  0.00  0.00    -0.243 OA
ENDBRANCH  12  21
ENDBRANCH   8  10
ENDBRANCH   6   8
ENDBRANCH   5   6
ENDBRANCH   2   5
BRANCH   1  24
ATOM     24  O   UNL     1      31.862  41.333   5.629  0.00  0.00    -0.450 OA
BRANCH  24  25
ATOM     25  C   UNL     1      30.597  41.236   6.241  0.00  0.00    +0.240 C 
BRANCH  25  26
ATOM     26  C   UNL     1      30.399  40.128   7.293  0.00  0.00    +0.100 C 
BRANCH  26  28
ATOM     27  N   UNL     1      29.705  38.818   5.309  0.00  0.00    -0.134 NA
ATOM     28  C   UNL     1      29.798  38.935   6.671  0.00  0.00    +0.086 A 
ATOM     29  C   UNL     1      29.286  37.799   7.256  0.00  0.00    +0.134 A 
ATOM     30  N   UNL     1      28.989  36.995   6.197  0.00  0.00    -0.247 N 
ATOM     31  N   UNL     1      29.190  37.629   5.028  0.00  0.00    -0.065 NA
BRANCH  30  32
ATOM     32  C   UNL     1      28.536  35.618   6.222  0.00  0.00    +0.180 C 
BRANCH  32  33
ATOM     33  C   UNL     1      27.983  35.246   7.579  0.00  0.00    -0.026 A 
ATOM     34  C   UNL     1      28.737  34.470   8.471  0.00  0.00    +0.006 A 
ATOM     35  C   UNL     1      28.236  34.161   9.738  0.00  0.00    +0.015 A 
ATOM     36  C   UNL     1      26.972  34.610  10.127  0.00  0.00    +0.059 A 
ATOM     37  C   UNL     1      26.199  35.370   9.236  0.00  0.00    +0.015 A 
ATOM     38  C   UNL     1      26.701  35.672   7.966  0.00  0.00    +0.006 A 
BRANCH  36  39
ATOM     39  C   UNL     1      26.519  34.315  11.513  0.00  0.00    +0.337 C 
ATOM     40  O   UNL     1      25.343  34.175  11.803  0.00  0.00    -0.245 OA
BRANCH  39  41
ATOM     41  O   UNL     1      27.515  34.252  12.417  0.00  0.00    -0.477 OA
ATOM     42  H   UNL     1      28.278  33.704  12.156  0.00  0.00    +0.295 HD
ENDBRANCH  39  41
ENDBRANCH  36  39
ENDBRANCH  32  33
ENDBRANCH  30  32
ENDBRANCH  26  28
ENDBRANCH  25  26
ENDBRANCH  24  25
ENDBRANCH   1  24
TORSDOF 14
