REMARK VINA RESULT:    -5.985      2.984      6.204
REMARK INTER + INTRA:         -14.673
REMARK INTER:                 -12.395
REMARK INTRA:                  -2.278
REMARK UNBOUND:                -3.439
REMARK  Name = lig_assembled_84.pdb
REMARK  16 active torsions:
REMARK  status: ('A' for Active; 'I' for Inactive)
REMARK    1  A    between atoms: _2  and  _10
REMARK    2  A    between atoms: _3  and  _13
REMARK    3  A    between atoms: _4  and  _16
REMARK    4  A    between atoms: _7  and  _8
REMARK    5  A    between atoms: _7  and  _23
REMARK    6  A    between atoms: _10  and  _11
REMARK    7  A    between atoms: _11  and  _12
REMARK    8  A    between atoms: _11  and  _13
REMARK    9  A    between atoms: _23  and  _25
REMARK   10  A    between atoms: _24  and  _29
REMARK   11  A    between atoms: _25  and  _28
REMARK   12  A    between atoms: _33  and  _43
REMARK   13  A    between atoms: _35  and  _36
REMARK   14  A    between atoms: _37  and  _39
REMARK   15  A    between atoms: _39  and  _41
REMARK   16  A    between atoms: _41  and  _43
REMARK                            x       y       z     vdW  Elec       q    Type
REMARK                         _______ _______ _______ _____ _____    ______ ____
ROOT
ATOM      1  C   UNL     1      29.266  15.773  -0.120  0.00  0.00    +0.240 C 
ENDROOT
BRANCH   1   2
ATOM      2  C   UNL     1      28.765  14.331  -0.328  0.00  0.00    +0.100 C 
BRANCH   2   4
ATOM      3  N   UNL     1      28.512  14.354   2.137  0.00  0.00    -0.134 NA
ATOM      4  C   UNL     1      28.221  13.780   0.927  0.00  0.00    +0.086 A 
ATOM      5  C   UNL     1      27.427  12.674   1.133  0.00  0.00    +0.133 A 
ATOM      6  N   UNL     1      27.326  12.591   2.490  0.00  0.00    -0.251 N 
ATOM      7  N   UNL     1      27.959  13.613   3.090  0.00  0.00    -0.065 NA
BRANCH   6   8
ATOM      8  C   UNL     1      26.769  11.505   3.272  0.00  0.00    +0.149 C 
BRANCH   8   9
ATOM      9  C   UNL     1      26.418  10.250   2.455  0.00  0.00    +0.021 C 
ATOM     10  C   UNL     1      27.497   9.167   2.605  0.00  0.00    +0.010 C 
BRANCH   9  11
ATOM     11  C   UNL     1      25.055   9.659   2.890  0.00  0.00    +0.089 C 
BRANCH  11  12
ATOM     12  N   UNL     1      23.931   9.913   1.978  0.00  0.00    -0.299 NA
ATOM     13  C   UNL     1      24.440  10.228   0.616  0.00  0.00    +0.103 C 
ATOM     14  C   UNL     1      23.291  10.419  -0.394  0.00  0.00    +0.120 C 
ATOM     15  N   UNL     1      22.405  11.495   0.064  0.00  0.00    -0.327 N 
ATOM     16  C   UNL     1      21.887  11.315   1.428  0.00  0.00    +0.120 C 
ATOM     17  C   UNL     1      23.058  11.034   2.413  0.00  0.00    +0.103 C 
BRANCH  15  18
ATOM     18  C   UNL     1      22.048  12.555  -0.738  0.00  0.00    +0.030 A 
ATOM     19  C   UNL     1      23.016  13.314  -1.422  0.00  0.00    +0.024 A 
ATOM     20  C   UNL     1      22.676  14.410  -2.220  0.00  0.00    +0.022 A 
ATOM     21  C   UNL     1      21.345  14.767  -2.361  0.00  0.00    +0.041 A 
ATOM     22 CL   UNL     1      20.917  16.117  -3.338  0.00  0.00    -0.084 Cl
ATOM     23  C   UNL     1      20.356  14.042  -1.705  0.00  0.00    +0.022 A 
ATOM     24  C   UNL     1      20.712  12.949  -0.901  0.00  0.00    +0.024 A 
ENDBRANCH  15  18
ENDBRANCH  11  12
ENDBRANCH   9  11
ENDBRANCH   8   9
ENDBRANCH   6   8
ENDBRANCH   2   4
ENDBRANCH   1   2
BRANCH   1  25
ATOM     25  O   UNL     1      30.644  15.956   0.104  0.00  0.00    -0.450 OA
BRANCH  25  26
ATOM     26  C   UNL     1      31.761  15.334  -0.092  0.00  0.00    +0.400 C 
ATOM     27  N   UNL     1      32.252  14.637   0.987  0.00  0.00    -0.278 N 
ATOM     28  H   UNL     1      33.043  14.055   0.565  0.00  0.00    +0.152 HD
ATOM     29  O   UNL     1      32.391  15.290  -1.146  0.00  0.00    -0.226 OA
BRANCH  27  30
ATOM     30  C   UNL     1      32.188  14.352   2.418  0.00  0.00    +0.152 C 
BRANCH  30  31
ATOM     31  C   UNL     1      32.602  12.930   2.847  0.00  0.00    +0.193 C 
ATOM     32  O   UNL     1      33.156  12.288   1.677  0.00  0.00    -0.219 OA
BRANCH  31  33
ATOM     33  C   UNL     1      33.708  12.800   3.917  0.00  0.00    +0.212 C 
ATOM     34  O   UNL     1      34.144  14.099   4.349  0.00  0.00    -0.218 OA
BRANCH  33  35
ATOM     35  C   UNL     1      33.259  11.973   5.182  0.00  0.00    +0.171 C 
ATOM     36  O   UNL     1      32.518  12.756   6.113  0.00  0.00    -0.343 OA
ATOM     37  C   UNL     1      32.210  12.351   7.414  0.00  0.00    +0.220 C 
ATOM     38  C   UNL     1      33.457  11.855   8.167  0.00  0.00    +0.076 C 
ATOM     39  C   UNL     1      34.126  10.779   7.296  0.00  0.00    +0.177 C 
ATOM     40  O   UNL     1      35.265  10.257   7.965  0.00  0.00    -0.221 OA
ATOM     41  C   UNL     1      34.510  11.376   5.906  0.00  0.00    +0.155 C 
BRANCH  41  42
ATOM     42  N   UNL     1      35.152  10.359   5.077  0.00  0.00    -0.202 NA
ATOM     43  C   UNL     1      36.379  10.361   4.496  0.00  0.00    +0.242 C 
ATOM     44  C   UNL     1      36.910   9.064   3.941  0.00  0.00    +0.096 C 
ATOM     45  O   UNL     1      37.022  11.407   4.437  0.00  0.00    -0.273 OA
ENDBRANCH  41  42
BRANCH  37  46
ATOM     46  C   UNL     1      31.000  11.270   7.486  0.00  0.00    +0.391 C 
ATOM     47  O   UNL     1      31.013  10.817   8.755  0.00  0.00    -0.243 OA
ATOM     48  O   UNL     1      30.272  11.455   6.378  0.00  0.00    -0.243 OA
ENDBRANCH  37  46
ENDBRANCH  33  35
ENDBRANCH  31  33
ENDBRANCH  30  31
ENDBRANCH  27  30
ENDBRANCH  25  26
ENDBRANCH   1  25
TORSDOF 15
