REMARK VINA RESULT:    -6.139      1.576      1.712
REMARK INTER + INTRA:         -13.048
REMARK INTER:                 -11.224
REMARK INTRA:                  -1.824
REMARK UNBOUND:                -2.422
REMARK  Name = lig_assembled_53.pdb
REMARK  13 active torsions:
REMARK  status: ('A' for Active; 'I' for Inactive)
REMARK    1  A    between atoms: _2  and  _8
REMARK    2  A    between atoms: _4  and  _8
REMARK    3  A    between atoms: _4  and  _9
REMARK    4  A    between atoms: _5  and  _6
REMARK    5  A    between atoms: _5  and  _11
REMARK    6  A    between atoms: _11  and  _13
REMARK    7  A    between atoms: _12  and  _17
REMARK    8  A    between atoms: _13  and  _16
REMARK    9  A    between atoms: _21  and  _31
REMARK   10  A    between atoms: _23  and  _24
REMARK   11  A    between atoms: _25  and  _27
REMARK   12  A    between atoms: _27  and  _29
REMARK   13  A    between atoms: _29  and  _31
REMARK                            x       y       z     vdW  Elec       q    Type
REMARK                         _______ _______ _______ _____ _____    ______ ____
ROOT
ATOM      1  C   UNL     1      28.501  14.792  -0.118  0.00  0.00    +0.152 C 
ENDROOT
BRANCH   1   3
ATOM      2  C   UNL     1      27.924  17.318  -0.973  0.00  0.00    +0.400 C 
ATOM      3  N   UNL     1      28.294  16.235  -0.212  0.00  0.00    -0.278 N 
ATOM      4  H   UNL     1      28.518  16.666   0.740  0.00  0.00    +0.152 HD
ATOM      5  O   UNL     1      27.760  18.396  -0.406  0.00  0.00    -0.226 OA
BRANCH   2   6
ATOM      6  O   UNL     1      27.811  17.098  -2.242  0.00  0.00    -0.450 OA
BRANCH   6   7
ATOM      7  C   UNL     1      26.955  17.427  -3.311  0.00  0.00    +0.240 C 
BRANCH   7   8
ATOM      8  C   UNL     1      26.374  16.265  -4.139  0.00  0.00    +0.100 C 
BRANCH   8  10
ATOM      9  N   UNL     1      25.865  14.372  -2.626  0.00  0.00    -0.134 NA
ATOM     10  C   UNL     1      25.438  15.468  -3.325  0.00  0.00    +0.086 A 
ATOM     11  C   UNL     1      24.088  15.637  -3.117  0.00  0.00    +0.134 A 
ATOM     12  N   UNL     1      23.736  14.575  -2.338  0.00  0.00    -0.241 N 
ATOM     13  N   UNL     1      24.818  13.843  -2.007  0.00  0.00    -0.065 NA
BRANCH  12  14
ATOM     14  C   UNL     1      22.467  14.244  -1.724  0.00  0.00    +0.265 C 
BRANCH  14  15
ATOM     15  C   UNL     1      22.298  12.800  -1.335  0.00  0.00    +0.326 C 
ATOM     16  O   UNL     1      22.093  12.364  -0.212  0.00  0.00    -0.249 OA
BRANCH  15  17
ATOM     17  O   UNL     1      22.412  11.959  -2.398  0.00  0.00    -0.479 OA
ATOM     18  H   UNL     1      22.453  12.384  -3.276  0.00  0.00    +0.295 HD
ENDBRANCH  15  17
ENDBRANCH  14  15
ENDBRANCH  12  14
ENDBRANCH   8  10
ENDBRANCH   7   8
ENDBRANCH   6   7
ENDBRANCH   2   6
ENDBRANCH   1   3
BRANCH   1  19
ATOM     19  C   UNL     1      29.569  14.322   0.891  0.00  0.00    +0.193 C 
ATOM     20  O   UNL     1      29.711  12.895   0.710  0.00  0.00    -0.219 OA
BRANCH  19  21
ATOM     21  C   UNL     1      31.001  14.876   0.727  0.00  0.00    +0.212 C 
ATOM     22  O   UNL     1      31.068  16.237   1.183  0.00  0.00    -0.218 OA
BRANCH  21  23
ATOM     23  C   UNL     1      32.089  14.033   1.495  0.00  0.00    +0.171 C 
ATOM     24  O   UNL     1      32.463  14.623   2.736  0.00  0.00    -0.343 OA
ATOM     25  C   UNL     1      33.565  14.226   3.497  0.00  0.00    +0.220 C 
ATOM     26  C   UNL     1      34.848  14.158   2.651  0.00  0.00    +0.076 C 
ATOM     27  C   UNL     1      34.551  13.271   1.430  0.00  0.00    +0.177 C 
ATOM     28  O   UNL     1      35.719  13.143   0.633  0.00  0.00    -0.221 OA
ATOM     29  C   UNL     1      33.366  13.868   0.608  0.00  0.00    +0.155 C 
BRANCH  29  30
ATOM     30  N   UNL     1      33.085  13.032  -0.556  0.00  0.00    -0.202 NA
ATOM     31  C   UNL     1      33.079  13.354  -1.874  0.00  0.00    +0.242 C 
ATOM     32  C   UNL     1      33.047  12.236  -2.884  0.00  0.00    +0.096 C 
ATOM     33  O   UNL     1      33.101  14.537  -2.211  0.00  0.00    -0.273 OA
ENDBRANCH  29  30
BRANCH  25  34
ATOM     34  C   UNL     1      33.319  12.847   4.321  0.00  0.00    +0.391 C 
ATOM     35  O   UNL     1      34.529  12.516   4.812  0.00  0.00    -0.243 OA
ATOM     36  O   UNL     1      31.993  12.728   4.455  0.00  0.00    -0.243 OA
ENDBRANCH  25  34
ENDBRANCH  21  23
ENDBRANCH  19  21
ENDBRANCH   1  19
TORSDOF 13
