REMARK VINA RESULT:    -7.656      3.286     11.416
REMARK INTER + INTRA:         -14.347
REMARK INTER:                 -12.489
REMARK INTRA:                  -1.858
REMARK UNBOUND:                -1.768
REMARK  Name = lig_assembled_91.pdb
REMARK  11 active torsions:
REMARK  status: ('A' for Active; 'I' for Inactive)
REMARK    1  A    between atoms: _2  and  _9
REMARK    2  A    between atoms: _6  and  _7
REMARK    3  A    between atoms: _6  and  _21
REMARK    4  A    between atoms: _21  and  _23
REMARK    5  A    between atoms: _22  and  _27
REMARK    6  A    between atoms: _23  and  _26
REMARK    7  A    between atoms: _31  and  _41
REMARK    8  A    between atoms: _33  and  _34
REMARK    9  A    between atoms: _35  and  _37
REMARK   10  A    between atoms: _37  and  _39
REMARK   11  A    between atoms: _39  and  _41
REMARK                            x       y       z     vdW  Elec       q    Type
REMARK                         _______ _______ _______ _____ _____    ______ ____
ROOT
ATOM      1  C   UNL     1      27.125  16.949  -2.799  0.00  0.00    +0.400 C 
ATOM      2  N   UNL     1      26.324  16.567  -3.849  0.00  0.00    -0.278 N 
ATOM      3  H   UNL     1      25.701  17.421  -4.007  0.00  0.00    +0.152 HD
ATOM      4  O   UNL     1      27.089  18.122  -2.438  0.00  0.00    -0.226 OA
ENDROOT
BRANCH   1   5
ATOM      5  O   UNL     1      27.831  16.007  -2.262  0.00  0.00    -0.450 OA
BRANCH   5   6
ATOM      6  C   UNL     1      27.644  14.785  -1.588  0.00  0.00    +0.240 C 
BRANCH   6   7
ATOM      7  C   UNL     1      28.305  14.626  -0.206  0.00  0.00    +0.100 C 
BRANCH   7   9
ATOM      8  N   UNL     1      30.384  15.940  -0.428  0.00  0.00    -0.134 NA
ATOM      9  C   UNL     1      29.773  14.728  -0.319  0.00  0.00    +0.086 A 
ATOM     10  C   UNL     1      30.734  13.743  -0.318  0.00  0.00    +0.139 A 
ATOM     11  N   UNL     1      31.938  14.401  -0.479  0.00  0.00    -0.219 N 
ATOM     12  N   UNL     1      31.689  15.735  -0.521  0.00  0.00    -0.060 NA
BRANCH  11  13
ATOM     13  C   UNL     1      33.259  13.867  -0.598  0.00  0.00    +0.085 A 
ATOM     14  C   UNL     1      33.820  13.606  -1.899  0.00  0.00    +0.026 A 
ATOM     15  C   UNL     1      35.118  13.058  -1.903  0.00  0.00    +0.074 A 
ATOM     16  C   UNL     1      35.762  12.762  -3.094  0.00  0.00    +0.028 A 
ATOM     17  C   UNL     1      35.173  12.995  -4.334  0.00  0.00    +0.002 A 
ATOM     18  C   UNL     1      33.917  13.564  -4.380  0.00  0.00    +0.001 A 
ATOM     19  N   UNL     1      35.821  12.807  -0.800  0.00  0.00    -0.247 NA
ATOM     20  C   UNL     1      35.309  13.077   0.400  0.00  0.00    +0.074 A 
ATOM     21  C   UNL     1      36.128  12.774   1.483  0.00  0.00    +0.028 A 
ATOM     22  C   UNL     1      35.720  12.964   2.799  0.00  0.00    +0.002 A 
ATOM     23  C   UNL     1      34.453  13.459   3.042  0.00  0.00    +0.001 A 
ATOM     24  C   UNL     1      33.616  13.763   1.964  0.00  0.00    +0.012 A 
ATOM     25  C   UNL     1      33.260  13.885  -3.186  0.00  0.00    +0.012 A 
ATOM     26  C   UNL     1      34.021  13.602   0.599  0.00  0.00    +0.026 A 
ENDBRANCH  11  13
ENDBRANCH   7   9
ENDBRANCH   6   7
ENDBRANCH   5   6
ENDBRANCH   1   5
BRANCH   2  27
ATOM     27  C   UNL     1      25.961  15.549  -4.831  0.00  0.00    +0.152 C 
BRANCH  27  28
ATOM     28  C   UNL     1      24.635  14.803  -4.578  0.00  0.00    +0.193 C 
ATOM     29  O   UNL     1      24.895  13.402  -4.814  0.00  0.00    -0.219 OA
BRANCH  28  30
ATOM     30  C   UNL     1      24.048  14.851  -3.150  0.00  0.00    +0.212 C 
ATOM     31  O   UNL     1      23.820  16.211  -2.747  0.00  0.00    -0.218 OA
BRANCH  30  32
ATOM     32  C   UNL     1      22.700  14.048  -3.002  0.00  0.00    +0.171 C 
ATOM     33  O   UNL     1      21.556  14.895  -2.990  0.00  0.00    -0.343 OA
ATOM     34  C   UNL     1      20.272  14.480  -2.631  0.00  0.00    +0.220 C 
ATOM     35  C   UNL     1      20.268  13.737  -1.283  0.00  0.00    +0.076 C 
ATOM     36  C   UNL     1      21.311  12.610  -1.374  0.00  0.00    +0.177 C 
ATOM     37  O   UNL     1      21.320  11.864  -0.165  0.00  0.00    -0.221 OA
ATOM     38  C   UNL     1      22.720  13.205  -1.684  0.00  0.00    +0.155 C 
BRANCH  38  39
ATOM     39  N   UNL     1      23.714  12.139  -1.764  0.00  0.00    -0.202 NA
ATOM     40  C   UNL     1      24.751  11.855  -0.936  0.00  0.00    +0.242 C 
ATOM     41  C   UNL     1      25.444  10.525  -1.086  0.00  0.00    +0.096 C 
ATOM     42  O   UNL     1      25.096  12.678  -0.090  0.00  0.00    -0.273 OA
ENDBRANCH  38  39
BRANCH  34  43
ATOM     43  C   UNL     1      19.522  13.622  -3.788  0.00  0.00    +0.391 C 
ATOM     44  O   UNL     1      18.447  13.083  -3.180  0.00  0.00    -0.243 OA
ATOM     45  O   UNL     1      20.066  14.010  -4.948  0.00  0.00    -0.243 OA
ENDBRANCH  34  43
ENDBRANCH  30  32
ENDBRANCH  28  30
ENDBRANCH  27  28
ENDBRANCH   2  27
TORSDOF 11
