REMARK VINA RESULT:    -6.842      1.729      2.423
REMARK INTER + INTRA:         -13.522
REMARK INTER:                 -11.941
REMARK INTRA:                  -1.582
REMARK UNBOUND:                -1.681
REMARK  Name = lig_assembled_59.pdb
REMARK  13 active torsions:
REMARK  status: ('A' for Active; 'I' for Inactive)
REMARK    1  A    between atoms: _2  and  _9
REMARK    2  A    between atoms: _6  and  _7
REMARK    3  A    between atoms: _6  and  _15
REMARK    4  A    between atoms: _12  and  _13
REMARK    5  A    between atoms: _13  and  _14
REMARK    6  A    between atoms: _15  and  _17
REMARK    7  A    between atoms: _16  and  _21
REMARK    8  A    between atoms: _17  and  _20
REMARK    9  A    between atoms: _25  and  _35
REMARK   10  A    between atoms: _27  and  _28
REMARK   11  A    between atoms: _29  and  _31
REMARK   12  A    between atoms: _31  and  _33
REMARK   13  A    between atoms: _33  and  _35
REMARK                            x       y       z     vdW  Elec       q    Type
REMARK                         _______ _______ _______ _____ _____    ______ ____
ROOT
ATOM      1  C   UNL     1      26.528  16.524  -3.722  0.00  0.00    +0.400 C 
ATOM      2  N   UNL     1      26.890  15.667  -2.710  0.00  0.00    -0.278 N 
ATOM      3  H   UNL     1      27.303  16.318  -1.970  0.00  0.00    +0.152 HD
ATOM      4  O   UNL     1      26.572  17.732  -3.501  0.00  0.00    -0.226 OA
ENDROOT
BRANCH   1   5
ATOM      5  O   UNL     1      26.198  15.964  -4.839  0.00  0.00    -0.450 OA
BRANCH   5   6
ATOM      6  C   UNL     1      25.696  14.736  -5.311  0.00  0.00    +0.240 C 
BRANCH   6   7
ATOM      7  C   UNL     1      24.174  14.512  -5.233  0.00  0.00    +0.100 C 
BRANCH   7   9
ATOM      8  N   UNL     1      23.422  15.310  -3.018  0.00  0.00    -0.134 NA
ATOM      9  C   UNL     1      23.764  14.270  -3.837  0.00  0.00    +0.087 A 
ATOM     10  C   UNL     1      23.652  13.091  -3.138  0.00  0.00    +0.141 A 
ATOM     11  N   UNL     1      23.234  13.465  -1.880  0.00  0.00    -0.202 N 
ATOM     12  N   UNL     1      23.097  14.814  -1.831  0.00  0.00    -0.059 NA
BRANCH  11  13
ATOM     13  C   UNL     1      22.982  12.618  -0.768  0.00  0.00    +0.156 A 
ATOM     14  C   UNL     1      21.668  12.426  -0.346  0.00  0.00    +0.048 A 
ATOM     15  C   UNL     1      21.433  11.629   0.773  0.00  0.00    +0.011 A 
ATOM     16  C   UNL     1      22.504  11.033   1.443  0.00  0.00    -0.004 A 
ATOM     17  C   UNL     1      23.780  11.280   0.949  0.00  0.00    +0.119 A 
ATOM     18  N   UNL     1      24.045  12.045  -0.137  0.00  0.00    -0.236 NA
BRANCH  16  19
ATOM     19  C   UNL     1      22.280  10.247   2.702  0.00  0.00    +0.192 C 
BRANCH  19  20
ATOM     20  O   UNL     1      23.453  10.205   3.501  0.00  0.00    -0.390 OA
ATOM     21  H   UNL     1      23.168  10.025   4.413  0.00  0.00    +0.210 HD
ENDBRANCH  19  20
ENDBRANCH  16  19
ENDBRANCH  11  13
ENDBRANCH   7   9
ENDBRANCH   6   7
ENDBRANCH   5   6
ENDBRANCH   1   5
BRANCH   2  22
ATOM     22  C   UNL     1      26.950  14.300  -2.200  0.00  0.00    +0.152 C 
BRANCH  22  23
ATOM     23  C   UNL     1      27.748  14.095  -0.896  0.00  0.00    +0.193 C 
ATOM     24  O   UNL     1      27.748  12.676  -0.627  0.00  0.00    -0.219 OA
BRANCH  23  25
ATOM     25  C   UNL     1      29.243  14.485  -0.904  0.00  0.00    +0.212 C 
ATOM     26  O   UNL     1      29.390  15.910  -0.786  0.00  0.00    -0.218 OA
BRANCH  25  27
ATOM     27  C   UNL     1      30.074  13.795   0.244  0.00  0.00    +0.171 C 
ATOM     28  O   UNL     1      29.805  14.353   1.526  0.00  0.00    -0.343 OA
ATOM     29  C   UNL     1      30.568  14.104   2.670  0.00  0.00    +0.220 C 
ATOM     30  C   UNL     1      32.069  14.324   2.413  0.00  0.00    +0.076 C 
ATOM     31  C   UNL     1      32.456  13.487   1.182  0.00  0.00    +0.177 C 
ATOM     32  O   UNL     1      33.846  13.623   0.924  0.00  0.00    -0.221 OA
ATOM     33  C   UNL     1      31.605  13.921  -0.052  0.00  0.00    +0.155 C 
BRANCH  33  34
ATOM     34  N   UNL     1      31.974  13.133  -1.225  0.00  0.00    -0.202 NA
ATOM     35  C   UNL     1      32.822  13.434  -2.241  0.00  0.00    +0.242 C 
ATOM     36  C   UNL     1      33.248  12.326  -3.169  0.00  0.00    +0.096 C 
ATOM     37  O   UNL     1      33.221  14.589  -2.378  0.00  0.00    -0.273 OA
ENDBRANCH  33  34
BRANCH  29  38
ATOM     38  C   UNL     1      30.283  12.649   3.334  0.00  0.00    +0.391 C 
ATOM     39  O   UNL     1      29.179  12.193   2.710  0.00  0.00    -0.243 OA
ATOM     40  O   UNL     1      31.392  12.328   4.011  0.00  0.00    -0.243 OA
ENDBRANCH  29  38
ENDBRANCH  25  27
ENDBRANCH  23  25
ENDBRANCH  22  23
ENDBRANCH   2  22
TORSDOF 13
