REMARK VINA RESULT:    -7.018      1.942      3.038
REMARK INTER + INTRA:         -13.143
REMARK INTER:                 -12.046
REMARK INTRA:                  -1.097
REMARK UNBOUND:                -1.202
REMARK  Name = lig_assembled_38.pdb
REMARK  12 active torsions:
REMARK  status: ('A' for Active; 'I' for Inactive)
REMARK    1  A    between atoms: _2  and  _8
REMARK    2  A    between atoms: _5  and  _6
REMARK    3  A    between atoms: _5  and  _14
REMARK    4  A    between atoms: _8  and  _9
REMARK    5  A    between atoms: _14  and  _16
REMARK    6  A    between atoms: _15  and  _20
REMARK    7  A    between atoms: _16  and  _19
REMARK    8  A    between atoms: _24  and  _34
REMARK    9  A    between atoms: _26  and  _27
REMARK   10  A    between atoms: _28  and  _30
REMARK   11  A    between atoms: _30  and  _32
REMARK   12  A    between atoms: _32  and  _34
REMARK                            x       y       z     vdW  Elec       q    Type
REMARK                         _______ _______ _______ _____ _____    ______ ____
ROOT
ATOM      1  C   UNL     1      29.142  17.058  -0.507  0.00  0.00    +0.400 C 
ATOM      2  N   UNL     1      29.762  15.909  -0.077  0.00  0.00    -0.278 N 
ATOM      3  H   UNL     1      30.472  16.263   0.639  0.00  0.00    +0.152 HD
ATOM      4  O   UNL     1      29.376  18.103   0.097  0.00  0.00    -0.226 OA
ENDROOT
BRANCH   2   5
ATOM      5  C   UNL     1      29.873  14.454  -0.148  0.00  0.00    +0.152 C 
BRANCH   5   6
ATOM      6  C   UNL     1      31.249  13.859   0.214  0.00  0.00    +0.193 C 
ATOM      7  O   UNL     1      32.053  13.912  -0.985  0.00  0.00    -0.219 OA
BRANCH   6   8
ATOM      8  C   UNL     1      32.092  14.599   1.276  0.00  0.00    +0.212 C 
ATOM      9  O   UNL     1      31.237  15.235   2.240  0.00  0.00    -0.218 OA
BRANCH   8  10
ATOM     10  C   UNL     1      33.100  13.658   2.039  0.00  0.00    +0.171 C 
ATOM     11  O   UNL     1      34.334  13.501   1.346  0.00  0.00    -0.343 OA
ATOM     12  C   UNL     1      35.301  12.545   1.666  0.00  0.00    +0.220 C 
ATOM     13  C   UNL     1      34.693  11.136   1.785  0.00  0.00    +0.076 C 
ATOM     14  C   UNL     1      33.517  11.222   2.771  0.00  0.00    +0.177 C 
ATOM     15  O   UNL     1      32.942   9.935   2.948  0.00  0.00    -0.221 OA
ATOM     16  C   UNL     1      32.459  12.249   2.259  0.00  0.00    +0.155 C 
BRANCH  16  17
ATOM     17  N   UNL     1      31.337  12.328   3.190  0.00  0.00    -0.202 NA
ATOM     18  C   UNL     1      30.092  11.796   3.095  0.00  0.00    +0.242 C 
ATOM     19  C   UNL     1      29.225  11.779   4.327  0.00  0.00    +0.096 C 
ATOM     20  O   UNL     1      29.705  11.343   2.019  0.00  0.00    -0.273 OA
ENDBRANCH  16  17
BRANCH  12  21
ATOM     21  C   UNL     1      36.181  12.928   2.977  0.00  0.00    +0.391 C 
ATOM     22  O   UNL     1      35.679  14.104   3.401  0.00  0.00    -0.243 OA
ATOM     23  O   UNL     1      36.849  11.817   3.311  0.00  0.00    -0.243 OA
ENDBRANCH  12  21
ENDBRANCH   8  10
ENDBRANCH   6   8
ENDBRANCH   5   6
ENDBRANCH   2   5
BRANCH   1  24
ATOM     24  O   UNL     1      28.383  16.931  -1.545  0.00  0.00    -0.450 OA
BRANCH  24  25
ATOM     25  C   UNL     1      27.145  17.399  -2.026  0.00  0.00    +0.240 C 
BRANCH  25  26
ATOM     26  C   UNL     1      26.868  17.255  -3.535  0.00  0.00    +0.100 C 
BRANCH  26  28
ATOM     27  N   UNL     1      25.708  15.686  -5.061  0.00  0.00    -0.134 NA
ATOM     28  C   UNL     1      25.963  16.115  -3.786  0.00  0.00    +0.086 A 
ATOM     29  C   UNL     1      25.291  15.309  -2.895  0.00  0.00    +0.134 A 
ATOM     30  N   UNL     1      24.690  14.372  -3.688  0.00  0.00    -0.247 N 
ATOM     31  N   UNL     1      24.933  14.612  -4.989  0.00  0.00    -0.065 NA
BRANCH  30  32
ATOM     32  C   UNL     1      24.084  13.120  -3.274  0.00  0.00    +0.180 C 
BRANCH  32  33
ATOM     33  C   UNL     1      22.904  13.298  -2.351  0.00  0.00    -0.025 A 
ATOM     34  C   UNL     1      21.814  14.099  -2.721  0.00  0.00    +0.005 A 
ATOM     35  C   UNL     1      20.684  14.187  -1.902  0.00  0.00    +0.001 A 
ATOM     36  C   UNL     1      20.631  13.478  -0.703  0.00  0.00    +0.015 A 
ATOM     37  C   UNL     1      21.714  12.689  -0.323  0.00  0.00    +0.018 A 
ATOM     38 BR   UNL     1      21.643  11.716   1.297  0.00  0.00    -0.050 Br
ATOM     39  C   UNL     1      22.845  12.594  -1.136  0.00  0.00    +0.020 A 
ENDBRANCH  32  33
ENDBRANCH  30  32
ENDBRANCH  26  28
ENDBRANCH  25  26
ENDBRANCH  24  25
ENDBRANCH   1  24
TORSDOF 12
