REMARK VINA RESULT:    -6.156      1.962      3.016
REMARK INTER + INTRA:         -13.362
REMARK INTER:                 -12.130
REMARK INTRA:                  -1.232
REMARK UNBOUND:                -1.808
REMARK  Name = lig_assembled_43.pdb
REMARK  15 active torsions:
REMARK  status: ('A' for Active; 'I' for Inactive)
REMARK    1  A    between atoms: _2  and  _8
REMARK    2  A    between atoms: _5  and  _6
REMARK    3  A    between atoms: _5  and  _13
REMARK    4  A    between atoms: _8  and  _9
REMARK    5  A    between atoms: _9  and  _10
REMARK    6  A    between atoms: _10  and  _11
REMARK    7  A    between atoms: _11  and  _12
REMARK    8  A    between atoms: _13  and  _15
REMARK    9  A    between atoms: _14  and  _19
REMARK   10  A    between atoms: _15  and  _18
REMARK   11  A    between atoms: _23  and  _33
REMARK   12  A    between atoms: _25  and  _26
REMARK   13  A    between atoms: _27  and  _29
REMARK   14  A    between atoms: _29  and  _31
REMARK   15  A    between atoms: _31  and  _33
REMARK                            x       y       z     vdW  Elec       q    Type
REMARK                         _______ _______ _______ _____ _____    ______ ____
ROOT
ATOM      1  C   UNL     1      30.699  16.689  -0.137  0.00  0.00    +0.152 C 
ENDROOT
BRANCH   1   3
ATOM      2  C   UNL     1      28.190  17.642  -0.625  0.00  0.00    +0.400 C 
ATOM      3  N   UNL     1      29.439  17.426  -0.093  0.00  0.00    -0.278 N 
ATOM      4  H   UNL     1      29.480  18.108   0.729  0.00  0.00    +0.152 HD
ATOM      5  O   UNL     1      27.408  18.351   0.004  0.00  0.00    -0.226 OA
BRANCH   2   6
ATOM      6  O   UNL     1      27.967  17.093  -1.773  0.00  0.00    -0.450 OA
BRANCH   6   7
ATOM      7  C   UNL     1      26.912  16.927  -2.691  0.00  0.00    +0.240 C 
BRANCH   7   8
ATOM      8  C   UNL     1      26.669  15.510  -3.246  0.00  0.00    +0.100 C 
BRANCH   8  10
ATOM      9  N   UNL     1      24.779  14.804  -4.682  0.00  0.00    -0.134 NA
ATOM     10  C   UNL     1      25.230  15.292  -3.483  0.00  0.00    +0.086 A 
ATOM     11  C   UNL     1      24.154  15.511  -2.653  0.00  0.00    +0.133 A 
ATOM     12  N   UNL     1      23.080  15.144  -3.407  0.00  0.00    -0.251 N 
ATOM     13  N   UNL     1      23.456  14.718  -4.624  0.00  0.00    -0.065 NA
BRANCH  12  14
ATOM     14  C   UNL     1      21.679  15.200  -3.050  0.00  0.00    +0.145 C 
BRANCH  14  15
ATOM     15  C   UNL     1      21.077  13.803  -2.931  0.00  0.00    +0.024 C 
BRANCH  15  16
ATOM     16  C   UNL     1      20.133  13.683  -1.733  0.00  0.00    +0.006 C 
BRANCH  16  17
ATOM     17  C   UNL     1      20.930  13.596  -0.429  0.00  0.00    +0.026 C 
BRANCH  17  18
ATOM     18  C   UNL     1      21.015  12.188   0.084  0.00  0.00    -0.034 C 
ATOM     19  C   UNL     1      21.890  11.281  -0.369  0.00  0.00    +0.004 C 
ENDBRANCH  17  18
ENDBRANCH  16  17
ENDBRANCH  15  16
ENDBRANCH  14  15
ENDBRANCH  12  14
ENDBRANCH   8  10
ENDBRANCH   7   8
ENDBRANCH   6   7
ENDBRANCH   2   6
ENDBRANCH   1   3
BRANCH   1  20
ATOM     20  C   UNL     1      30.656  15.237   0.381  0.00  0.00    +0.193 C 
ATOM     21  O   UNL     1      31.005  14.387  -0.735  0.00  0.00    -0.219 OA
BRANCH  20  22
ATOM     22  C   UNL     1      31.655  14.844   1.491  0.00  0.00    +0.212 C 
ATOM     23  O   UNL     1      31.706  15.862   2.504  0.00  0.00    -0.218 OA
BRANCH  22  24
ATOM     24  C   UNL     1      31.315  13.466   2.178  0.00  0.00    +0.171 C 
ATOM     25  O   UNL     1      30.093  13.506   2.909  0.00  0.00    -0.343 OA
ATOM     26  C   UNL     1      29.678  12.516   3.804  0.00  0.00    +0.220 C 
ATOM     27  C   UNL     1      30.777  12.171   4.824  0.00  0.00    +0.076 C 
ATOM     28  C   UNL     1      32.052  11.835   4.034  0.00  0.00    +0.177 C 
ATOM     29  O   UNL     1      33.092  11.469   4.930  0.00  0.00    -0.221 OA
ATOM     30  C   UNL     1      32.470  13.049   3.146  0.00  0.00    +0.155 C 
BRANCH  30  31
ATOM     31  N   UNL     1      33.686  12.736   2.399  0.00  0.00    -0.202 NA
ATOM     32  C   UNL     1      34.907  13.326   2.442  0.00  0.00    +0.242 C 
ATOM     33  C   UNL     1      36.066  12.622   1.787  0.00  0.00    +0.096 C 
ATOM     34  O   UNL     1      35.039  14.409   3.009  0.00  0.00    -0.273 OA
ENDBRANCH  30  31
BRANCH  26  35
ATOM     35  C   UNL     1      29.102  11.185   3.073  0.00  0.00    +0.391 C 
ATOM     36  O   UNL     1      29.061  10.248   4.040  0.00  0.00    -0.243 OA
ATOM     37  O   UNL     1      28.610  11.591   1.896  0.00  0.00    -0.243 OA
ENDBRANCH  26  35
ENDBRANCH  22  24
ENDBRANCH  20  22
ENDBRANCH   1  20
TORSDOF 15
