REMARK VINA RESULT:    -7.071      3.362      3.845
REMARK INTER + INTRA:         -13.458
REMARK INTER:                 -11.855
REMARK INTRA:                  -1.603
REMARK UNBOUND:                -1.427
REMARK  Name = lig_assembled_6.pdb
REMARK  12 active torsions:
REMARK  status: ('A' for Active; 'I' for Inactive)
REMARK    1  A    between atoms: _2  and  _9
REMARK    2  A    between atoms: _3  and  _12
REMARK    3  A    between atoms: _6  and  _7
REMARK    4  A    between atoms: _6  and  _16
REMARK    5  A    between atoms: _16  and  _18
REMARK    6  A    between atoms: _17  and  _22
REMARK    7  A    between atoms: _18  and  _21
REMARK    8  A    between atoms: _26  and  _36
REMARK    9  A    between atoms: _28  and  _29
REMARK   10  A    between atoms: _30  and  _32
REMARK   11  A    between atoms: _32  and  _34
REMARK   12  A    between atoms: _34  and  _36
REMARK                            x       y       z     vdW  Elec       q    Type
REMARK                         _______ _______ _______ _____ _____    ______ ____
ROOT
ATOM      1  C   UNL     1      28.142  17.083  -0.731  0.00  0.00    +0.400 C 
ATOM      2  N   UNL     1      28.509  16.080   0.135  0.00  0.00    -0.278 N 
ATOM      3  H   UNL     1      28.850  16.610   0.998  0.00  0.00    +0.152 HD
ATOM      4  O   UNL     1      28.107  18.234  -0.302  0.00  0.00    -0.226 OA
ENDROOT
BRANCH   2   5
ATOM      5  C   UNL     1      28.624  14.649   0.404  0.00  0.00    +0.152 C 
BRANCH   5   6
ATOM      6  C   UNL     1      29.809  13.925  -0.268  0.00  0.00    +0.193 C 
ATOM      7  O   UNL     1      29.494  13.832  -1.675  0.00  0.00    -0.219 OA
BRANCH   6   8
ATOM      8  C   UNL     1      31.188  14.619  -0.227  0.00  0.00    +0.212 C 
ATOM      9  O   UNL     1      31.207  15.638   0.786  0.00  0.00    -0.218 OA
BRANCH   8  10
ATOM     10  C   UNL     1      32.381  13.622   0.038  0.00  0.00    +0.171 C 
ATOM     11  O   UNL     1      33.119  13.952   1.210  0.00  0.00    -0.343 OA
ATOM     12  C   UNL     1      34.356  13.394   1.545  0.00  0.00    +0.220 C 
ATOM     13  C   UNL     1      35.352  13.470   0.375  0.00  0.00    +0.076 C 
ATOM     14  C   UNL     1      34.671  12.844  -0.853  0.00  0.00    +0.177 C 
ATOM     15  O   UNL     1      35.566  12.852  -1.956  0.00  0.00    -0.221 OA
ATOM     16  C   UNL     1      33.353  13.610  -1.186  0.00  0.00    +0.155 C 
BRANCH  16  17
ATOM     17  N   UNL     1      32.707  13.023  -2.357  0.00  0.00    -0.202 NA
ATOM     18  C   UNL     1      32.837  13.339  -3.670  0.00  0.00    +0.242 C 
ATOM     19  C   UNL     1      32.283  12.384  -4.695  0.00  0.00    +0.096 C 
ATOM     20  O   UNL     1      33.399  14.385  -3.991  0.00  0.00    -0.273 OA
ENDBRANCH  16  17
BRANCH  12  21
ATOM     21  C   UNL     1      34.245  11.886   2.139  0.00  0.00    +0.391 C 
ATOM     22  O   UNL     1      35.499  11.397   2.080  0.00  0.00    -0.243 OA
ATOM     23  O   UNL     1      33.046  11.808   2.729  0.00  0.00    -0.243 OA
ENDBRANCH  12  21
ENDBRANCH   8  10
ENDBRANCH   6   8
ENDBRANCH   5   6
ENDBRANCH   2   5
BRANCH   1  24
ATOM     24  O   UNL     1      27.895  16.712  -1.944  0.00  0.00    -0.450 OA
BRANCH  24  25
ATOM     25  C   UNL     1      26.791  16.410  -2.765  0.00  0.00    +0.240 C 
BRANCH  25  26
ATOM     26  C   UNL     1      26.191  14.996  -2.657  0.00  0.00    +0.100 C 
BRANCH  26  28
ATOM     27  N   UNL     1      24.669  14.526  -4.553  0.00  0.00    -0.134 NA
ATOM     28  C   UNL     1      24.850  14.959  -3.270  0.00  0.00    +0.086 A 
ATOM     29  C   UNL     1      23.631  15.304  -2.736  0.00  0.00    +0.139 A 
ATOM     30  N   UNL     1      22.717  15.032  -3.728  0.00  0.00    -0.220 N 
ATOM     31  N   UNL     1      23.372  14.581  -4.826  0.00  0.00    -0.061 NA
BRANCH  30  32
ATOM     32  C   UNL     1      21.302  15.134  -3.685  0.00  0.00    +0.067 A 
ATOM     33  C   UNL     1      20.641  16.194  -4.326  0.00  0.00    +0.034 A 
ATOM     34  C   UNL     1      19.251  16.319  -4.225  0.00  0.00    +0.086 A 
ATOM     35  C   UNL     1      18.520  15.381  -3.486  0.00  0.00    +0.273 A 
ATOM     36  C   UNL     1      19.166  14.305  -2.867  0.00  0.00    +0.086 A 
ATOM     37  C   UNL     1      20.556  14.183  -2.969  0.00  0.00    +0.034 A 
BRANCH  35  38
ATOM     38  N   UNL     1      17.067  15.541  -3.348  0.00  0.00    +0.080 N 
ATOM     39  O   UNL     1      16.403  14.538  -3.046  0.00  0.00    +0.041 OA
ATOM     40  O   UNL     1      16.588  16.666  -3.546  0.00  0.00    -0.576 OA
ENDBRANCH  35  38
ENDBRANCH  30  32
ENDBRANCH  26  28
ENDBRANCH  25  26
ENDBRANCH  24  25
ENDBRANCH   1  24
TORSDOF 12
