REMARK VINA RESULT:    -7.191      2.072      2.870
REMARK INTER + INTRA:         -13.200
REMARK INTER:                 -11.529
REMARK INTRA:                  -1.671
REMARK UNBOUND:                -1.385
REMARK  Name = lig_assembled_56.pdb
REMARK  11 active torsions:
REMARK  status: ('A' for Active; 'I' for Inactive)
REMARK    1  A    between atoms: _2  and  _9
REMARK    2  A    between atoms: _6  and  _7
REMARK    3  A    between atoms: _6  and  _13
REMARK    4  A    between atoms: _13  and  _15
REMARK    5  A    between atoms: _14  and  _19
REMARK    6  A    between atoms: _15  and  _18
REMARK    7  A    between atoms: _23  and  _33
REMARK    8  A    between atoms: _25  and  _26
REMARK    9  A    between atoms: _27  and  _29
REMARK   10  A    between atoms: _29  and  _31
REMARK   11  A    between atoms: _31  and  _33
REMARK                            x       y       z     vdW  Elec       q    Type
REMARK                         _______ _______ _______ _____ _____    ______ ____
ROOT
ATOM      1  C   UNL     1      29.006  15.093  -0.236  0.00  0.00    +0.152 C 
ENDROOT
BRANCH   1   3
ATOM      2  C   UNL     1      27.840  17.476  -0.870  0.00  0.00    +0.400 C 
ATOM      3  N   UNL     1      28.470  16.451  -0.206  0.00  0.00    -0.278 N 
ATOM      4  H   UNL     1      28.611  16.844   0.778  0.00  0.00    +0.152 HD
ATOM      5  O   UNL     1      27.447  18.437  -0.213  0.00  0.00    -0.226 OA
BRANCH   2   6
ATOM      6  O   UNL     1      27.749  17.340  -2.152  0.00  0.00    -0.450 OA
BRANCH   6   7
ATOM      7  C   UNL     1      26.800  17.508  -3.180  0.00  0.00    +0.240 C 
BRANCH   7   8
ATOM      8  C   UNL     1      26.439  16.270  -4.023  0.00  0.00    +0.100 C 
BRANCH   8  10
ATOM      9  N   UNL     1      26.390  14.241  -2.609  0.00  0.00    -0.134 NA
ATOM     10  C   UNL     1      25.725  15.278  -3.198  0.00  0.00    +0.086 A 
ATOM     11  C   UNL     1      24.389  15.197  -2.876  0.00  0.00    +0.139 A 
ATOM     12  N   UNL     1      24.286  14.090  -2.066  0.00  0.00    -0.220 N 
ATOM     13  N   UNL     1      25.509  13.522  -1.926  0.00  0.00    -0.061 NA
BRANCH  12  14
ATOM     14  C   UNL     1      23.138  13.562  -1.426  0.00  0.00    +0.070 A 
ATOM     15  C   UNL     1      21.871  14.104  -1.657  0.00  0.00    +0.047 A 
ATOM     16  C   UNL     1      20.794  13.548  -0.985  0.00  0.00    +0.113 A 
ATOM     17  N   UNL     1      20.896  12.516  -0.124  0.00  0.00    -0.263 NA
ATOM     18  C   UNL     1      22.130  12.008   0.079  0.00  0.00    +0.113 A 
ATOM     19  C   UNL     1      23.271  12.488  -0.540  0.00  0.00    +0.047 A 
ENDBRANCH  12  14
ENDBRANCH   8  10
ENDBRANCH   7   8
ENDBRANCH   6   7
ENDBRANCH   2   6
ENDBRANCH   1   3
BRANCH   1  20
ATOM     20  C   UNL     1      30.543  14.968  -0.195  0.00  0.00    +0.193 C 
ATOM     21  O   UNL     1      31.072  16.305  -0.332  0.00  0.00    -0.219 OA
BRANCH  20  22
ATOM     22  C   UNL     1      31.183  14.431   1.104  0.00  0.00    +0.212 C 
ATOM     23  O   UNL     1      31.346  15.493   2.059  0.00  0.00    -0.218 OA
BRANCH  22  24
ATOM     24  C   UNL     1      30.352  13.272   1.777  0.00  0.00    +0.171 C 
ATOM     25  O   UNL     1      30.195  13.454   3.180  0.00  0.00    -0.343 OA
ATOM     26  C   UNL     1      29.721  12.473   4.054  0.00  0.00    +0.220 C 
ATOM     27  C   UNL     1      30.470  11.141   3.875  0.00  0.00    +0.076 C 
ATOM     28  C   UNL     1      30.402  10.768   2.385  0.00  0.00    +0.177 C 
ATOM     29  O   UNL     1      31.047   9.520   2.171  0.00  0.00    -0.221 OA
ATOM     30  C   UNL     1      31.047  11.895   1.520  0.00  0.00    +0.155 C 
BRANCH  30  31
ATOM     31  N   UNL     1      30.991  11.541   0.103  0.00  0.00    -0.202 NA
ATOM     32  C   UNL     1      31.990  11.463  -0.812  0.00  0.00    +0.242 C 
ATOM     33  C   UNL     1      31.704  10.790  -2.129  0.00  0.00    +0.096 C 
ATOM     34  O   UNL     1      33.094  11.936  -0.548  0.00  0.00    -0.273 OA
ENDBRANCH  30  31
BRANCH  26  35
ATOM     35  C   UNL     1      28.111  12.267   3.984  0.00  0.00    +0.391 C 
ATOM     36  O   UNL     1      27.878  11.119   4.650  0.00  0.00    -0.243 OA
ATOM     37  O   UNL     1      27.606  13.435   3.569  0.00  0.00    -0.243 OA
ENDBRANCH  26  35
ENDBRANCH  22  24
ENDBRANCH  20  22
ENDBRANCH   1  20
TORSDOF 11
