REMARK VINA RESULT:    -6.034      3.379      7.580
REMARK INTER + INTRA:         -14.090
REMARK INTER:                 -11.383
REMARK INTRA:                  -2.707
REMARK UNBOUND:                -3.117
REMARK  Name = lig_assembled_9.pdb
REMARK  15 active torsions:
REMARK  status: ('A' for Active; 'I' for Inactive)
REMARK    1  A    between atoms: _2  and  _8
REMARK    2  A    between atoms: _5  and  _6
REMARK    3  A    between atoms: _5  and  _18
REMARK    4  A    between atoms: _10  and  _11
REMARK    5  A    between atoms: _11  and  _16
REMARK    6  A    between atoms: _12  and  _13
REMARK    7  A    between atoms: _12  and  _16
REMARK    8  A    between atoms: _18  and  _20
REMARK    9  A    between atoms: _19  and  _24
REMARK   10  A    between atoms: _20  and  _23
REMARK   11  A    between atoms: _28  and  _38
REMARK   12  A    between atoms: _30  and  _31
REMARK   13  A    between atoms: _32  and  _34
REMARK   14  A    between atoms: _34  and  _36
REMARK   15  A    between atoms: _36  and  _38
REMARK                            x       y       z     vdW  Elec       q    Type
REMARK                         _______ _______ _______ _____ _____    ______ ____
ROOT
ATOM      1  C   UNL     1      27.942  17.733  -0.874  0.00  0.00    +0.400 C 
ATOM      2  N   UNL     1      27.206  17.587  -2.027  0.00  0.00    -0.278 N 
ATOM      3  H   UNL     1      26.273  18.048  -1.784  0.00  0.00    +0.152 HD
ATOM      4  O   UNL     1      27.489  18.449   0.015  0.00  0.00    -0.226 OA
ENDROOT
BRANCH   2   5
ATOM      5  C   UNL     1      27.135  17.110  -3.405  0.00  0.00    +0.152 C 
BRANCH   5   6
ATOM      6  C   UNL     1      25.959  16.169  -3.739  0.00  0.00    +0.193 C 
ATOM      7  O   UNL     1      25.981  15.969  -5.170  0.00  0.00    -0.219 OA
BRANCH   6   8
ATOM      8  C   UNL     1      25.996  14.742  -3.149  0.00  0.00    +0.212 C 
ATOM      9  O   UNL     1      26.638  14.747  -1.864  0.00  0.00    -0.218 OA
BRANCH   8  10
ATOM     10  C   UNL     1      24.568  14.092  -2.997  0.00  0.00    +0.171 C 
ATOM     11  O   UNL     1      23.718  14.834  -2.128  0.00  0.00    -0.343 OA
ATOM     12  C   UNL     1      22.501  14.366  -1.628  0.00  0.00    +0.220 C 
ATOM     13  C   UNL     1      22.642  12.968  -0.999  0.00  0.00    +0.076 C 
ATOM     14  C   UNL     1      23.306  12.056  -2.044  0.00  0.00    +0.177 C 
ATOM     15  O   UNL     1      23.424  10.738  -1.527  0.00  0.00    -0.221 OA
ATOM     16  C   UNL     1      24.698  12.631  -2.453  0.00  0.00    +0.155 C 
BRANCH  16  17
ATOM     17  N   UNL     1      25.335  11.764  -3.441  0.00  0.00    -0.202 NA
ATOM     18  C   UNL     1      25.003  11.534  -4.737  0.00  0.00    +0.242 C 
ATOM     19  C   UNL     1      26.000  10.823  -5.615  0.00  0.00    +0.096 C 
ATOM     20  O   UNL     1      23.911  11.909  -5.160  0.00  0.00    -0.273 OA
ENDBRANCH  16  17
BRANCH  12  21
ATOM     21  C   UNL     1      21.294  14.413  -2.714  0.00  0.00    +0.391 C 
ATOM     22  O   UNL     1      20.166  14.326  -1.983  0.00  0.00    -0.243 OA
ATOM     23  O   UNL     1      21.847  14.817  -3.864  0.00  0.00    -0.243 OA
ENDBRANCH  12  21
ENDBRANCH   8  10
ENDBRANCH   6   8
ENDBRANCH   5   6
ENDBRANCH   2   5
BRANCH   1  24
ATOM     24  O   UNL     1      29.046  17.063  -0.826  0.00  0.00    -0.450 OA
BRANCH  24  25
ATOM     25  C   UNL     1      30.295  17.106  -0.176  0.00  0.00    +0.240 C 
BRANCH  25  26
ATOM     26  C   UNL     1      30.721  15.864   0.629  0.00  0.00    +0.100 C 
BRANCH  26  28
ATOM     27  N   UNL     1      30.381  14.075  -1.047  0.00  0.00    -0.134 NA
ATOM     28  C   UNL     1      30.020  14.667   0.129  0.00  0.00    +0.086 A 
ATOM     29  C   UNL     1      28.977  13.964   0.684  0.00  0.00    +0.139 A 
ATOM     30  N   UNL     1      28.756  12.914  -0.179  0.00  0.00    -0.220 N 
ATOM     31  N   UNL     1      29.603  13.015  -1.231  0.00  0.00    -0.061 NA
BRANCH  30  32
ATOM     32  C   UNL     1      27.839  11.840  -0.052  0.00  0.00    +0.068 A 
ATOM     33  C   UNL     1      26.917  11.813   1.003  0.00  0.00    +0.042 A 
ATOM     34  C   UNL     1      26.033  10.732   1.144  0.00  0.00    +0.061 A 
ATOM     35  C   UNL     1      26.072   9.680   0.221  0.00  0.00    +0.015 A 
ATOM     36  C   UNL     1      26.981   9.711  -0.838  0.00  0.00    +0.003 A 
ATOM     37  C   UNL     1      27.861  10.786  -0.977  0.00  0.00    +0.028 A 
BRANCH  34  38
ATOM     38  C   UNL     1      25.000  10.694   2.212  0.00  0.00    +0.339 C 
ATOM     39  O   UNL     1      25.125  10.071   3.254  0.00  0.00    -0.245 OA
BRANCH  38  40
ATOM     40  O   UNL     1      23.893  11.362   1.803  0.00  0.00    -0.461 OA
BRANCH  40  41
ATOM     41  C   UNL     1      22.648  10.686   2.025  0.00  0.00    +0.229 C 
ATOM     42  C   UNL     1      21.559  11.737   2.143  0.00  0.00    +0.048 C 
ENDBRANCH  40  41
ENDBRANCH  38  40
ENDBRANCH  34  38
ENDBRANCH  30  32
ENDBRANCH  26  28
ENDBRANCH  25  26
ENDBRANCH  24  25
ENDBRANCH   1  24
TORSDOF 14
