REMARK VINA RESULT:    -6.736      3.974      8.470
REMARK INTER + INTRA:         -13.066
REMARK INTER:                 -11.617
REMARK INTRA:                  -1.449
REMARK UNBOUND:                -1.999
REMARK  Name = lig_assembled_57.pdb
REMARK  12 active torsions:
REMARK  status: ('A' for Active; 'I' for Inactive)
REMARK    1  A    between atoms: _2  and  _9
REMARK    2  A    between atoms: _3  and  _12
REMARK    3  A    between atoms: _6  and  _7
REMARK    4  A    between atoms: _6  and  _14
REMARK    5  A    between atoms: _14  and  _16
REMARK    6  A    between atoms: _15  and  _20
REMARK    7  A    between atoms: _16  and  _19
REMARK    8  A    between atoms: _24  and  _34
REMARK    9  A    between atoms: _26  and  _27
REMARK   10  A    between atoms: _28  and  _30
REMARK   11  A    between atoms: _30  and  _32
REMARK   12  A    between atoms: _32  and  _34
REMARK                            x       y       z     vdW  Elec       q    Type
REMARK                         _______ _______ _______ _____ _____    ______ ____
ROOT
ATOM      1  C   UNL     1      27.853  17.395  -1.218  0.00  0.00    +0.400 C 
ATOM      2  N   UNL     1      28.208  16.264  -0.522  0.00  0.00    -0.278 N 
ATOM      3  H   UNL     1      28.444  16.636   0.452  0.00  0.00    +0.152 HD
ATOM      4  O   UNL     1      27.713  18.441  -0.589  0.00  0.00    -0.226 OA
ENDROOT
BRANCH   1   5
ATOM      5  O   UNL     1      27.730  17.251  -2.496  0.00  0.00    -0.450 OA
BRANCH   5   6
ATOM      6  C   UNL     1      26.743  17.367  -3.494  0.00  0.00    +0.240 C 
BRANCH   6   7
ATOM      7  C   UNL     1      26.469  16.131  -4.371  0.00  0.00    +0.100 C 
BRANCH   7   9
ATOM      8  N   UNL     1      25.308  15.027  -2.491  0.00  0.00    -0.134 NA
ATOM      9  C   UNL     1      25.342  15.360  -3.816  0.00  0.00    +0.086 A 
ATOM     10  C   UNL     1      24.202  14.886  -4.430  0.00  0.00    +0.134 A 
ATOM     11  N   UNL     1      23.471  14.353  -3.410  0.00  0.00    -0.248 N 
ATOM     12  N   UNL     1      24.178  14.378  -2.260  0.00  0.00    -0.065 NA
BRANCH  11  13
ATOM     13  C   UNL     1      22.102  13.855  -3.372  0.00  0.00    +0.111 C 
ATOM     14  C   UNL     1      21.195  14.818  -2.590  0.00  0.00    +0.042 C 
ATOM     15  C   UNL     1      20.901  16.066  -3.417  0.00  0.00    +0.086 C 
ATOM     16  N   UNL     1      20.249  15.766  -4.696  0.00  0.00    -0.305 NA
ATOM     17  C   UNL     1      21.000  14.795  -5.494  0.00  0.00    +0.086 C 
ATOM     18  C   UNL     1      18.846  15.401  -4.531  0.00  0.00    +0.104 C 
ATOM     19  C   UNL     1      21.454  13.542  -4.730  0.00  0.00    +0.042 C 
ENDBRANCH  11  13
ENDBRANCH   7   9
ENDBRANCH   6   7
ENDBRANCH   5   6
ENDBRANCH   1   5
BRANCH   2  20
ATOM     20  C   UNL     1      28.388  14.814  -0.512  0.00  0.00    +0.152 C 
BRANCH  20  21
ATOM     21  C   UNL     1      29.513  14.275   0.395  0.00  0.00    +0.193 C 
ATOM     22  O   UNL     1      29.375  12.837   0.418  0.00  0.00    -0.219 OA
BRANCH  21  23
ATOM     23  C   UNL     1      30.971  14.515  -0.054  0.00  0.00    +0.212 C 
ATOM     24  O   UNL     1      31.265  15.922  -0.074  0.00  0.00    -0.218 OA
BRANCH  23  25
ATOM     25  C   UNL     1      32.033  13.792   0.859  0.00  0.00    +0.171 C 
ATOM     26  O   UNL     1      32.203  14.437   2.118  0.00  0.00    -0.343 OA
ATOM     27  C   UNL     1      33.239  14.159   3.012  0.00  0.00    +0.220 C 
ATOM     28  C   UNL     1      34.614  14.197   2.322  0.00  0.00    +0.076 C 
ATOM     29  C   UNL     1      34.545  13.264   1.102  0.00  0.00    +0.177 C 
ATOM     30  O   UNL     1      35.806  13.231   0.448  0.00  0.00    -0.221 OA
ATOM     31  C   UNL     1      33.416  13.732   0.131  0.00  0.00    +0.155 C 
BRANCH  31  32
ATOM     32  N   UNL     1      33.352  12.852  -1.033  0.00  0.00    -0.202 NA
ATOM     33  C   UNL     1      33.388  13.159  -2.355  0.00  0.00    +0.242 C 
ATOM     34  C   UNL     1      33.602  12.041  -3.343  0.00  0.00    +0.096 C 
ATOM     35  O   UNL     1      33.249  14.327  -2.712  0.00  0.00    -0.273 OA
ENDBRANCH  31  32
BRANCH  27  36
ATOM     36  C   UNL     1      33.025  12.778   3.841  0.00  0.00    +0.391 C 
ATOM     37  O   UNL     1      34.240  12.483   4.344  0.00  0.00    -0.243 OA
ATOM     38  O   UNL     1      31.702  12.623   3.965  0.00  0.00    -0.243 OA
ENDBRANCH  27  36
ENDBRANCH  23  25
ENDBRANCH  21  23
ENDBRANCH  20  21
ENDBRANCH   2  20
TORSDOF 11
