REMARK VINA RESULT:    -6.357      2.166      3.810
REMARK INTER + INTRA:         -14.100
REMARK INTER:                 -12.202
REMARK INTRA:                  -1.898
REMARK UNBOUND:                -2.913
REMARK  Name = lig_assembled_92.pdb
REMARK  13 active torsions:
REMARK  status: ('A' for Active; 'I' for Inactive)
REMARK    1  A    between atoms: _2  and  _10
REMARK    2  A    between atoms: _3  and  _49
REMARK    3  A    between atoms: _7  and  _8
REMARK    4  A    between atoms: _7  and  _20
REMARK    5  A    between atoms: _13  and  _49
REMARK    6  A    between atoms: _20  and  _22
REMARK    7  A    between atoms: _21  and  _26
REMARK    8  A    between atoms: _22  and  _25
REMARK    9  A    between atoms: _30  and  _40
REMARK   10  A    between atoms: _32  and  _33
REMARK   11  A    between atoms: _34  and  _36
REMARK   12  A    between atoms: _36  and  _38
REMARK   13  A    between atoms: _38  and  _40
REMARK                            x       y       z     vdW  Elec       q    Type
REMARK                         _______ _______ _______ _____ _____    ______ ____
ROOT
ATOM      1  O   UNL     1      28.241  15.270  -1.949  0.00  0.00    -0.450 OA
ENDROOT
BRANCH   1   2
ATOM      2  C   UNL     1      28.217  15.998  -0.882  0.00  0.00    +0.400 C 
ATOM      3  N   UNL     1      28.232  15.311   0.309  0.00  0.00    -0.278 N 
ATOM      4  H   UNL     1      28.405  16.076   1.034  0.00  0.00    +0.152 HD
ATOM      5  O   UNL     1      28.212  17.226  -0.842  0.00  0.00    -0.226 OA
BRANCH   3   6
ATOM      6  C   UNL     1      28.105  14.036   1.012  0.00  0.00    +0.152 C 
BRANCH   6   7
ATOM      7  C   UNL     1      28.684  13.988   2.441  0.00  0.00    +0.193 C 
ATOM      8  O   UNL     1      27.698  13.327   3.265  0.00  0.00    -0.219 OA
BRANCH   7   9
ATOM      9  C   UNL     1      29.978  13.175   2.661  0.00  0.00    +0.212 C 
ATOM     10  O   UNL     1      29.773  11.798   2.302  0.00  0.00    -0.218 OA
BRANCH   9  11
ATOM     11  C   UNL     1      31.210  13.729   1.848  0.00  0.00    +0.171 C 
ATOM     12  O   UNL     1      31.042  13.596   0.440  0.00  0.00    -0.343 OA
ATOM     13  C   UNL     1      32.062  13.776  -0.496  0.00  0.00    +0.220 C 
ATOM     14  C   UNL     1      33.318  12.963  -0.135  0.00  0.00    +0.076 C 
ATOM     15  C   UNL     1      33.697  13.316   1.312  0.00  0.00    +0.177 C 
ATOM     16  O   UNL     1      34.878  12.620   1.684  0.00  0.00    -0.221 OA
ATOM     17  C   UNL     1      32.515  12.982   2.275  0.00  0.00    +0.155 C 
BRANCH  17  18
ATOM     18  N   UNL     1      32.875  13.309   3.652  0.00  0.00    -0.202 NA
ATOM     19  C   UNL     1      32.857  12.529   4.762  0.00  0.00    +0.242 C 
ATOM     20  C   UNL     1      33.556  13.029   5.999  0.00  0.00    +0.096 C 
ATOM     21  O   UNL     1      32.279  11.444   4.733  0.00  0.00    -0.273 OA
ENDBRANCH  17  18
BRANCH  13  22
ATOM     22  C   UNL     1      32.420  15.337  -0.770  0.00  0.00    +0.391 C 
ATOM     23  O   UNL     1      33.510  15.310  -1.562  0.00  0.00    -0.243 OA
ATOM     24  O   UNL     1      31.351  16.037  -0.371  0.00  0.00    -0.243 OA
ENDBRANCH  13  22
ENDBRANCH   9  11
ENDBRANCH   7   9
ENDBRANCH   6   7
ENDBRANCH   3   6
ENDBRANCH   1   2
BRANCH   1  25
ATOM     25  C   UNL     1      27.478  14.263  -2.573  0.00  0.00    +0.240 C 
BRANCH  25  26
ATOM     26  C   UNL     1      26.046  14.625  -3.009  0.00  0.00    +0.100 C 
BRANCH  26  28
ATOM     27  N   UNL     1      23.725  14.253  -2.219  0.00  0.00    -0.134 NA
ATOM     28  C   UNL     1      25.062  13.996  -2.109  0.00  0.00    +0.086 A 
ATOM     29  C   UNL     1      25.264  13.102  -1.084  0.00  0.00    +0.139 A 
ATOM     30  N   UNL     1      24.005  12.815  -0.608  0.00  0.00    -0.220 N 
ATOM     31  N   UNL     1      23.090  13.536  -1.300  0.00  0.00    -0.061 NA
BRANCH  30  32
ATOM     32  C   UNL     1      23.636  11.897   0.409  0.00  0.00    +0.067 A 
ATOM     33  C   UNL     1      24.595  11.420   1.315  0.00  0.00    +0.030 A 
ATOM     34  C   UNL     1      24.241  10.473   2.275  0.00  0.00    +0.031 A 
ATOM     35  C   UNL     1      22.926  10.008   2.342  0.00  0.00    +0.109 A 
ATOM     36  C   UNL     1      21.959  10.482   1.453  0.00  0.00    +0.031 A 
ATOM     37  C   UNL     1      22.311  11.435   0.492  0.00  0.00    +0.030 A 
BRANCH  35  38
ATOM     38  S   UNL     1      22.550   8.696   3.474  0.00  0.00    +0.074 S 
ATOM     39  O   UNL     1      21.427   7.958   2.930  0.00  0.00    -0.150 OA
ATOM     40  O   UNL     1      23.776   8.008   3.807  0.00  0.00    -0.150 OA
BRANCH  38  41
ATOM     41  N   UNL     1      21.932   9.502   4.822  0.00  0.00    -0.194 N 
ATOM     42  H   UNL     1      21.040   9.897   4.533  0.00  0.00    +0.176 HD
ATOM     43  C   UNL     1      21.834   8.659   5.947  0.00  0.00    +0.177 A 
ATOM     44  S   UNL     1      20.378   7.887   6.400  0.00  0.00    -0.059 S 
ATOM     45  C   UNL     1      21.161   7.282   7.802  0.00  0.00    +0.068 A 
ATOM     46  C   UNL     1      22.447   7.777   7.859  0.00  0.00    +0.120 A 
ATOM     47  N   UNL     1      22.841   8.541   6.777  0.00  0.00    -0.232 NA
ENDBRANCH  38  41
ENDBRANCH  35  38
ENDBRANCH  30  32
ENDBRANCH  26  28
ENDBRANCH  25  26
ENDBRANCH   1  25
TORSDOF 13
