REMARK VINA RESULT:    -7.018      1.655      3.718
REMARK INTER + INTRA:         -13.783
REMARK INTER:                 -12.020
REMARK INTRA:                  -1.763
REMARK UNBOUND:                -1.431
REMARK  Name = lig_assembled_36.pdb
REMARK  13 active torsions:
REMARK  status: ('A' for Active; 'I' for Inactive)
REMARK    1  A    between atoms: _2  and  _9
REMARK    2  A    between atoms: _6  and  _7
REMARK    3  A    between atoms: _6  and  _16
REMARK    4  A    between atoms: _9  and  _10
REMARK    5  A    between atoms: _13  and  _14
REMARK    6  A    between atoms: _16  and  _18
REMARK    7  A    between atoms: _17  and  _22
REMARK    8  A    between atoms: _18  and  _21
REMARK    9  A    between atoms: _26  and  _36
REMARK   10  A    between atoms: _28  and  _29
REMARK   11  A    between atoms: _30  and  _32
REMARK   12  A    between atoms: _32  and  _34
REMARK   13  A    between atoms: _34  and  _36
REMARK                            x       y       z     vdW  Elec       q    Type
REMARK                         _______ _______ _______ _____ _____    ______ ____
ROOT
ATOM      1  C   UNL     1      27.593  14.134  -1.975  0.00  0.00    +0.400 C 
ATOM      2  N   UNL     1      28.362  14.887  -1.119  0.00  0.00    -0.278 N 
ATOM      3  H   UNL     1      29.124  14.206  -0.807  0.00  0.00    +0.152 HD
ATOM      4  O   UNL     1      28.012  13.028  -2.309  0.00  0.00    -0.226 OA
ENDROOT
BRANCH   1   5
ATOM      5  O   UNL     1      26.467  14.661  -2.327  0.00  0.00    -0.450 OA
BRANCH   5   6
ATOM      6  C   UNL     1      25.985  15.810  -2.984  0.00  0.00    +0.240 C 
BRANCH   6   7
ATOM      7  C   UNL     1      25.443  15.635  -4.416  0.00  0.00    +0.100 C 
BRANCH   7   9
ATOM      8  N   UNL     1      24.231  13.586  -5.100  0.00  0.00    -0.134 NA
ATOM      9  C   UNL     1      24.250  14.769  -4.409  0.00  0.00    +0.086 A 
ATOM     10  C   UNL     1      23.046  14.933  -3.760  0.00  0.00    +0.134 A 
ATOM     11  N   UNL     1      22.378  13.773  -4.020  0.00  0.00    -0.247 N 
ATOM     12  N   UNL     1      23.068  12.990  -4.870  0.00  0.00    -0.065 NA
BRANCH  11  13
ATOM     13  C   UNL     1      21.103  13.339  -3.485  0.00  0.00    +0.180 C 
BRANCH  13  14
ATOM     14  C   UNL     1      21.271  12.665  -2.142  0.00  0.00    -0.026 A 
ATOM     15  C   UNL     1      21.879  11.405  -2.040  0.00  0.00    +0.007 A 
ATOM     16  C   UNL     1      22.035  10.791  -0.792  0.00  0.00    +0.019 A 
ATOM     17  C   UNL     1      21.580  11.425   0.367  0.00  0.00    +0.052 A 
ATOM     18  C   UNL     1      20.951  12.670   0.271  0.00  0.00    +0.019 A 
ATOM     19  C   UNL     1      20.794  13.283  -0.975  0.00  0.00    +0.007 A 
BRANCH  17  20
ATOM     20  C   UNL     1      21.760  10.804   1.648  0.00  0.00    +0.099 C 
ATOM     21  N   UNL     1      21.916  10.306   2.684  0.00  0.00    -0.191 NA
ENDBRANCH  17  20
ENDBRANCH  13  14
ENDBRANCH  11  13
ENDBRANCH   7   9
ENDBRANCH   6   7
ENDBRANCH   5   6
ENDBRANCH   1   5
BRANCH   2  22
ATOM     22  C   UNL     1      28.607  16.173  -0.472  0.00  0.00    +0.152 C 
BRANCH  22  23
ATOM     23  C   UNL     1      30.083  16.528  -0.202  0.00  0.00    +0.193 C 
ATOM     24  O   UNL     1      30.086  17.800   0.483  0.00  0.00    -0.219 OA
BRANCH  23  25
ATOM     25  C   UNL     1      30.887  15.590   0.725  0.00  0.00    +0.212 C 
ATOM     26  O   UNL     1      29.998  14.781   1.513  0.00  0.00    -0.218 OA
BRANCH  25  27
ATOM     27  C   UNL     1      31.876  14.640  -0.054  0.00  0.00    +0.171 C 
ATOM     28  O   UNL     1      31.280  14.058  -1.209  0.00  0.00    -0.343 OA
ATOM     29  C   UNL     1      31.838  13.004  -1.937  0.00  0.00    +0.220 C 
ATOM     30  C   UNL     1      32.241  11.832  -1.025  0.00  0.00    +0.076 C 
ATOM     31  C   UNL     1      33.140  12.398   0.086  0.00  0.00    +0.177 C 
ATOM     32  O   UNL     1      33.574  11.346   0.937  0.00  0.00    -0.221 OA
ATOM     33  C   UNL     1      32.375  13.496   0.889  0.00  0.00    +0.155 C 
BRANCH  33  34
ATOM     34  N   UNL     1      33.224  14.031   1.950  0.00  0.00    -0.202 NA
ATOM     35  C   UNL     1      33.145  13.858   3.294  0.00  0.00    +0.242 C 
ATOM     36  C   UNL     1      34.319  14.280   4.140  0.00  0.00    +0.096 C 
ATOM     37  O   UNL     1      32.131  13.365   3.785  0.00  0.00    -0.273 OA
ENDBRANCH  33  34
BRANCH  29  38
ATOM     38  C   UNL     1      33.064  13.460  -2.900  0.00  0.00    +0.391 C 
ATOM     39  O   UNL     1      33.264  14.762  -2.616  0.00  0.00    -0.243 OA
ATOM     40  O   UNL     1      33.601  12.330  -3.376  0.00  0.00    -0.243 OA
ENDBRANCH  29  38
ENDBRANCH  25  27
ENDBRANCH  23  25
ENDBRANCH  22  23
ENDBRANCH   2  22
TORSDOF 13
