REMARK VINA RESULT:    -5.845      1.780      2.684
REMARK INTER + INTRA:         -14.409
REMARK INTER:                 -11.593
REMARK INTRA:                  -2.815
REMARK UNBOUND:                -3.439
REMARK  Name = lig_assembled_84.pdb
REMARK  16 active torsions:
REMARK  status: ('A' for Active; 'I' for Inactive)
REMARK    1  A    between atoms: _2  and  _10
REMARK    2  A    between atoms: _3  and  _13
REMARK    3  A    between atoms: _4  and  _16
REMARK    4  A    between atoms: _7  and  _8
REMARK    5  A    between atoms: _7  and  _23
REMARK    6  A    between atoms: _10  and  _11
REMARK    7  A    between atoms: _11  and  _12
REMARK    8  A    between atoms: _11  and  _13
REMARK    9  A    between atoms: _23  and  _25
REMARK   10  A    between atoms: _24  and  _29
REMARK   11  A    between atoms: _25  and  _28
REMARK   12  A    between atoms: _33  and  _43
REMARK   13  A    between atoms: _35  and  _36
REMARK   14  A    between atoms: _37  and  _39
REMARK   15  A    between atoms: _39  and  _41
REMARK   16  A    between atoms: _41  and  _43
REMARK                            x       y       z     vdW  Elec       q    Type
REMARK                         _______ _______ _______ _____ _____    ______ ____
ROOT
ATOM      1  C   UNL     1      26.339  15.479  -2.736  0.00  0.00    +0.240 C 
ENDROOT
BRANCH   1   2
ATOM      2  C   UNL     1      25.714  15.338  -4.137  0.00  0.00    +0.100 C 
BRANCH   2   4
ATOM      3  N   UNL     1      23.480  15.889  -3.216  0.00  0.00    -0.134 NA
ATOM      4  C   UNL     1      24.258  15.120  -4.041  0.00  0.00    +0.086 A 
ATOM      5  C   UNL     1      23.465  14.178  -4.658  0.00  0.00    +0.133 A 
ATOM      6  N   UNL     1      22.231  14.384  -4.118  0.00  0.00    -0.251 N 
ATOM      7  N   UNL     1      22.237  15.427  -3.270  0.00  0.00    -0.065 NA
BRANCH   6   8
ATOM      8  C   UNL     1      21.052  13.552  -4.257  0.00  0.00    +0.149 C 
BRANCH   8   9
ATOM      9  C   UNL     1      20.292  13.305  -2.943  0.00  0.00    +0.021 C 
ATOM     10  C   UNL     1      18.782  13.172  -3.190  0.00  0.00    +0.010 C 
BRANCH   9  11
ATOM     11  C   UNL     1      20.795  12.023  -2.235  0.00  0.00    +0.089 C 
BRANCH  11  12
ATOM     12  N   UNL     1      22.242  11.959  -1.988  0.00  0.00    -0.299 NA
ATOM     13  C   UNL     1      22.615  10.607  -1.492  0.00  0.00    +0.103 C 
ATOM     14  C   UNL     1      24.138  10.469  -1.299  0.00  0.00    +0.120 C 
ATOM     15  N   UNL     1      24.611  11.489  -0.357  0.00  0.00    -0.327 N 
ATOM     16  C   UNL     1      24.246  12.866  -0.721  0.00  0.00    +0.120 C 
ATOM     17  C   UNL     1      22.717  12.960  -0.998  0.00  0.00    +0.103 C 
BRANCH  15  18
ATOM     18  C   UNL     1      25.378  11.185   0.744  0.00  0.00    +0.030 A 
ATOM     19  C   UNL     1      25.375   9.893   1.303  0.00  0.00    +0.024 A 
ATOM     20  C   UNL     1      26.128   9.571   2.437  0.00  0.00    +0.022 A 
ATOM     21  C   UNL     1      26.915  10.542   3.035  0.00  0.00    +0.041 A 
ATOM     22 CL   UNL     1      27.840  10.155   4.434  0.00  0.00    -0.084 Cl
ATOM     23  C   UNL     1      26.948  11.829   2.513  0.00  0.00    +0.022 A 
ATOM     24  C   UNL     1      26.183  12.142   1.380  0.00  0.00    +0.024 A 
ENDBRANCH  15  18
ENDBRANCH  11  12
ENDBRANCH   9  11
ENDBRANCH   8   9
ENDBRANCH   6   8
ENDBRANCH   2   4
ENDBRANCH   1   2
BRANCH   1  25
ATOM     25  O   UNL     1      27.217  16.559  -2.522  0.00  0.00    -0.450 OA
BRANCH  25  26
ATOM     26  C   UNL     1      27.601  17.335  -1.562  0.00  0.00    +0.400 C 
ATOM     27  N   UNL     1      28.302  16.727  -0.548  0.00  0.00    -0.278 N 
ATOM     28  H   UNL     1      28.683  17.550   0.018  0.00  0.00    +0.152 HD
ATOM     29  O   UNL     1      27.421  18.549  -1.495  0.00  0.00    -0.226 OA
BRANCH  27  30
ATOM     30  C   UNL     1      28.737  15.490   0.096  0.00  0.00    +0.152 C 
BRANCH  30  31
ATOM     31  C   UNL     1      30.229  15.131  -0.061  0.00  0.00    +0.193 C 
ATOM     32  O   UNL     1      30.923  16.361  -0.363  0.00  0.00    -0.219 OA
BRANCH  31  33
ATOM     33  C   UNL     1      30.963  14.567   1.176  0.00  0.00    +0.212 C 
ATOM     34  O   UNL     1      30.049  13.843   2.015  0.00  0.00    -0.218 OA
BRANCH  33  35
ATOM     35  C   UNL     1      32.169  13.621   0.809  0.00  0.00    +0.171 C 
ATOM     36  O   UNL     1      33.370  14.339   0.551  0.00  0.00    -0.343 OA
ATOM     37  C   UNL     1      34.514  13.782  -0.026  0.00  0.00    +0.220 C 
ATOM     38  C   UNL     1      34.185  13.016  -1.320  0.00  0.00    +0.076 C 
ATOM     39  C   UNL     1      33.069  12.011  -0.991  0.00  0.00    +0.177 C 
ATOM     40  O   UNL     1      32.753  11.247  -2.147  0.00  0.00    -0.221 OA
ATOM     41  C   UNL     1      31.813  12.760  -0.447  0.00  0.00    +0.155 C 
BRANCH  41  42
ATOM     42  N   UNL     1      30.748  11.809  -0.140  0.00  0.00    -0.202 NA
ATOM     43  C   UNL     1      29.613  11.525  -0.829  0.00  0.00    +0.242 C 
ATOM     44  C   UNL     1      28.833  10.294  -0.446  0.00  0.00    +0.096 C 
ATOM     45  O   UNL     1      29.253  12.269  -1.739  0.00  0.00    -0.273 OA
ENDBRANCH  41  42
BRANCH  37  46
ATOM     46  C   UNL     1      35.378  12.870   1.003  0.00  0.00    +0.391 C 
ATOM     47  O   UNL     1      36.290  12.245   0.233  0.00  0.00    -0.243 OA
ATOM     48  O   UNL     1      35.068  13.303   2.232  0.00  0.00    -0.243 OA
ENDBRANCH  37  46
ENDBRANCH  33  35
ENDBRANCH  31  33
ENDBRANCH  30  31
ENDBRANCH  27  30
ENDBRANCH  25  26
ENDBRANCH   1  25
TORSDOF 15
