REMARK VINA RESULT:    -6.504      3.740      8.153
REMARK INTER + INTRA:         -13.799
REMARK INTER:                 -11.239
REMARK INTRA:                  -2.561
REMARK UNBOUND:                -2.732
REMARK  Name = lig_assembled_85.pdb
REMARK  14 active torsions:
REMARK  status: ('A' for Active; 'I' for Inactive)
REMARK    1  A    between atoms: _2  and  _9
REMARK    2  A    between atoms: _3  and  _5
REMARK    3  A    between atoms: _3  and  _16
REMARK    4  A    between atoms: _6  and  _7
REMARK    5  A    between atoms: _6  and  _18
REMARK    6  A    between atoms: _14  and  _15
REMARK    7  A    between atoms: _18  and  _20
REMARK    8  A    between atoms: _19  and  _24
REMARK    9  A    between atoms: _20  and  _23
REMARK   10  A    between atoms: _28  and  _38
REMARK   11  A    between atoms: _30  and  _31
REMARK   12  A    between atoms: _32  and  _34
REMARK   13  A    between atoms: _34  and  _36
REMARK   14  A    between atoms: _36  and  _38
REMARK                            x       y       z     vdW  Elec       q    Type
REMARK                         _______ _______ _______ _____ _____    ______ ____
ROOT
ATOM      1  C   UNL     1      27.866  17.434  -1.045  0.00  0.00    +0.400 C 
ATOM      2  N   UNL     1      27.139  17.327  -2.207  0.00  0.00    -0.278 N 
ATOM      3  H   UNL     1      26.268  17.914  -2.008  0.00  0.00    +0.152 HD
ATOM      4  O   UNL     1      27.494  18.245  -0.201  0.00  0.00    -0.226 OA
ENDROOT
BRANCH   2   5
ATOM      5  C   UNL     1      27.032  16.796  -3.564  0.00  0.00    +0.152 C 
BRANCH   5   6
ATOM      6  C   UNL     1      25.744  16.010  -3.886  0.00  0.00    +0.193 C 
ATOM      7  O   UNL     1      25.728  15.809  -5.317  0.00  0.00    -0.219 OA
BRANCH   6   8
ATOM      8  C   UNL     1      25.607  14.590  -3.295  0.00  0.00    +0.212 C 
ATOM      9  O   UNL     1      26.238  14.519  -2.007  0.00  0.00    -0.218 OA
BRANCH   8  10
ATOM     10  C   UNL     1      24.110  14.117  -3.150  0.00  0.00    +0.171 C 
ATOM     11  O   UNL     1      23.439  14.749  -2.065  0.00  0.00    -0.343 OA
ATOM     12  C   UNL     1      22.200  14.345  -1.561  0.00  0.00    +0.220 C 
ATOM     13  C   UNL     1      22.170  12.836  -1.263  0.00  0.00    +0.076 C 
ATOM     14  C   UNL     1      22.621  12.103  -2.537  0.00  0.00    +0.177 C 
ATOM     15  O   UNL     1      22.574  10.699  -2.328  0.00  0.00    -0.221 OA
ATOM     16  C   UNL     1      24.054  12.567  -2.946  0.00  0.00    +0.155 C 
BRANCH  16  17
ATOM     17  N   UNL     1      24.489  11.868  -4.152  0.00  0.00    -0.202 NA
ATOM     18  C   UNL     1      25.606  11.130  -4.372  0.00  0.00    +0.242 C 
ATOM     19  C   UNL     1      25.667  10.276  -5.612  0.00  0.00    +0.096 C 
ATOM     20  O   UNL     1      26.532  11.172  -3.564  0.00  0.00    -0.273 OA
ENDBRANCH  16  17
BRANCH  12  21
ATOM     21  C   UNL     1      20.946  14.794  -2.491  0.00  0.00    +0.391 C 
ATOM     22  O   UNL     1      21.500  15.451  -3.529  0.00  0.00    -0.243 OA
ATOM     23  O   UNL     1      19.890  14.100  -2.049  0.00  0.00    -0.243 OA
ENDBRANCH  12  21
ENDBRANCH   8  10
ENDBRANCH   6   8
ENDBRANCH   5   6
ENDBRANCH   2   5
BRANCH   1  24
ATOM     24  O   UNL     1      28.875  16.633  -0.940  0.00  0.00    -0.450 OA
BRANCH  24  25
ATOM     25  C   UNL     1      29.353  15.624  -0.081  0.00  0.00    +0.240 C 
BRANCH  25  26
ATOM     26  C   UNL     1      29.013  14.165  -0.440  0.00  0.00    +0.100 C 
BRANCH  26  28
ATOM     27  N   UNL     1      28.334  14.041   1.930  0.00  0.00    -0.134 NA
ATOM     28  C   UNL     1      28.284  13.524   0.668  0.00  0.00    +0.086 A 
ATOM     29  C   UNL     1      27.445  12.431   0.657  0.00  0.00    +0.139 A 
ATOM     30  N   UNL     1      26.998  12.323   1.951  0.00  0.00    -0.219 N 
ATOM     31  N   UNL     1      27.528  13.322   2.697  0.00  0.00    -0.061 NA
BRANCH  30  32
ATOM     32  C   UNL     1      26.059  11.428   2.505  0.00  0.00    +0.080 A 
ATOM     33  C   UNL     1      26.396  10.227   3.149  0.00  0.00    +0.062 A 
ATOM     34  C   UNL     1      25.352   9.316   3.429  0.00  0.00    +0.016 A 
ATOM     35  C   UNL     1      24.019   9.595   3.107  0.00  0.00    +0.021 A 
ATOM     36  C   UNL     1      23.698  10.818   2.537  0.00  0.00    +0.043 A 
ATOM     37 CL   UNL     1      22.071  11.164   2.102  0.00  0.00    -0.083 Cl
ATOM     38  C   UNL     1      24.701  11.743   2.261  0.00  0.00    +0.048 A 
BRANCH  33  39
ATOM     39  C   UNL     1      27.749   9.722   3.525  0.00  0.00    +0.248 C 
ATOM     40  O   UNL     1      28.049   9.869   4.713  0.00  0.00    -0.270 OA
ATOM     41  N   UNL     1      28.661   9.178   2.613  0.00  0.00    -0.304 N 
ATOM     42  C   UNL     1      28.426   8.819   1.222  0.00  0.00    +0.132 C 
ATOM     43  C   UNL     1      29.943   8.744   3.158  0.00  0.00    +0.132 C 
ENDBRANCH  33  39
ENDBRANCH  30  32
ENDBRANCH  26  28
ENDBRANCH  25  26
ENDBRANCH  24  25
ENDBRANCH   1  24
TORSDOF 12
