REMARK VINA RESULT:    -6.703      1.363      3.814
REMARK INTER + INTRA:         -12.703
REMARK INTER:                 -11.621
REMARK INTRA:                  -1.082
REMARK UNBOUND:                -1.689
REMARK  Name = lig_assembled_49.pdb
REMARK  11 active torsions:
REMARK  status: ('A' for Active; 'I' for Inactive)
REMARK    1  A    between atoms: _2  and  _8
REMARK    2  A    between atoms: _5  and  _6
REMARK    3  A    between atoms: _5  and  _12
REMARK    4  A    between atoms: _12  and  _14
REMARK    5  A    between atoms: _13  and  _18
REMARK    6  A    between atoms: _14  and  _17
REMARK    7  A    between atoms: _22  and  _32
REMARK    8  A    between atoms: _24  and  _25
REMARK    9  A    between atoms: _26  and  _28
REMARK   10  A    between atoms: _28  and  _30
REMARK   11  A    between atoms: _30  and  _32
REMARK                            x       y       z     vdW  Elec       q    Type
REMARK                         _______ _______ _______ _____ _____    ______ ____
ROOT
ATOM      1  C   UNL     1      28.938  15.069   0.106  0.00  0.00    +0.152 C 
ENDROOT
BRANCH   1   3
ATOM      2  C   UNL     1      27.871  17.467  -0.638  0.00  0.00    +0.400 C 
ATOM      3  N   UNL     1      28.446  16.444   0.077  0.00  0.00    -0.278 N 
ATOM      4  H   UNL     1      28.571  16.863   1.052  0.00  0.00    +0.152 HD
ATOM      5  O   UNL     1      27.489  18.460  -0.024  0.00  0.00    -0.226 OA
BRANCH   2   6
ATOM      6  O   UNL     1      27.814  17.293  -1.918  0.00  0.00    -0.450 OA
BRANCH   6   7
ATOM      7  C   UNL     1      26.873  16.954  -2.909  0.00  0.00    +0.240 C 
BRANCH   7   8
ATOM      8  C   UNL     1      26.665  15.458  -3.211  0.00  0.00    +0.100 C 
BRANCH   8  10
ATOM      9  N   UNL     1      24.231  15.890  -3.151  0.00  0.00    -0.134 NA
ATOM     10  C   UNL     1      25.284  15.056  -2.888  0.00  0.00    +0.086 A 
ATOM     11  C   UNL     1      24.809  13.897  -2.314  0.00  0.00    +0.134 A 
ATOM     12  N   UNL     1      23.460  14.092  -2.248  0.00  0.00    -0.248 N 
ATOM     13  N   UNL     1      23.117  15.289  -2.754  0.00  0.00    -0.065 NA
BRANCH  12  14
ATOM     14  C   UNL     1      22.466  13.200  -1.703  0.00  0.00    +0.109 C 
ATOM     15  C   UNL     1      22.921  12.460  -0.444  0.00  0.00    +0.027 C 
ATOM     16  C   UNL     1      21.613  11.971   0.154  0.00  0.00    +0.002 C 
ATOM     17  C   UNL     1      20.648  13.129  -0.063  0.00  0.00    +0.002 C 
ATOM     18  C   UNL     1      21.153  13.884  -1.295  0.00  0.00    +0.027 C 
ENDBRANCH  12  14
ENDBRANCH   8  10
ENDBRANCH   7   8
ENDBRANCH   6   7
ENDBRANCH   2   6
ENDBRANCH   1   3
BRANCH   1  19
ATOM     19  C   UNL     1      30.282  14.813  -0.606  0.00  0.00    +0.193 C 
ATOM     20  O   UNL     1      31.045  16.037  -0.506  0.00  0.00    -0.219 OA
BRANCH  19  21
ATOM     21  C   UNL     1      31.211  13.731  -0.014  0.00  0.00    +0.212 C 
ATOM     22  O   UNL     1      30.519  12.475   0.085  0.00  0.00    -0.218 OA
BRANCH  21  23
ATOM     23  C   UNL     1      32.530  13.515  -0.849  0.00  0.00    +0.171 C 
ATOM     24  O   UNL     1      32.307  12.773  -2.044  0.00  0.00    -0.343 OA
ATOM     25  C   UNL     1      33.321  12.233  -2.838  0.00  0.00    +0.220 C 
ATOM     26  C   UNL     1      34.322  11.413  -2.005  0.00  0.00    +0.076 C 
ATOM     27  C   UNL     1      34.809  12.309  -0.854  0.00  0.00    +0.177 C 
ATOM     28  O   UNL     1      35.769  11.611  -0.074  0.00  0.00    -0.221 OA
ATOM     29  C   UNL     1      33.599  12.770   0.017  0.00  0.00    +0.155 C 
BRANCH  29  30
ATOM     30  N   UNL     1      34.057  13.615   1.116  0.00  0.00    -0.202 NA
ATOM     31  C   UNL     1      34.056  13.377   2.452  0.00  0.00    +0.242 C 
ATOM     32  C   UNL     1      34.856  14.292   3.342  0.00  0.00    +0.096 C 
ATOM     33  O   UNL     1      33.411  12.431   2.900  0.00  0.00    -0.273 OA
ENDBRANCH  29  30
BRANCH  25  34
ATOM     34  C   UNL     1      34.076  13.336  -3.762  0.00  0.00    +0.391 C 
ATOM     35  O   UNL     1      33.253  14.402  -3.772  0.00  0.00    -0.243 OA
ATOM     36  O   UNL     1      35.332  12.898  -3.909  0.00  0.00    -0.243 OA
ENDBRANCH  25  34
ENDBRANCH  21  23
ENDBRANCH  19  21
ENDBRANCH   1  19
TORSDOF 11
