REMARK VINA RESULT:    -7.690      1.362      2.108
REMARK INTER + INTRA:         -14.398
REMARK INTER:                 -12.352
REMARK INTRA:                  -2.046
REMARK UNBOUND:                -1.762
REMARK  Name = lig_assembled_25.pdb
REMARK  11 active torsions:
REMARK  status: ('A' for Active; 'I' for Inactive)
REMARK    1  A    between atoms: _2  and  _8
REMARK    2  A    between atoms: _5  and  _6
REMARK    3  A    between atoms: _5  and  _20
REMARK    4  A    between atoms: _20  and  _22
REMARK    5  A    between atoms: _21  and  _26
REMARK    6  A    between atoms: _22  and  _25
REMARK    7  A    between atoms: _30  and  _40
REMARK    8  A    between atoms: _32  and  _33
REMARK    9  A    between atoms: _34  and  _36
REMARK   10  A    between atoms: _36  and  _38
REMARK   11  A    between atoms: _38  and  _40
REMARK                            x       y       z     vdW  Elec       q    Type
REMARK                         _______ _______ _______ _____ _____    ______ ____
ROOT
ATOM      1  C   UNL     1      27.672  17.378  -1.587  0.00  0.00    +0.400 C 
ATOM      2  N   UNL     1      28.088  16.329  -0.802  0.00  0.00    -0.278 N 
ATOM      3  H   UNL     1      28.350  16.799   0.121  0.00  0.00    +0.152 HD
ATOM      4  O   UNL     1      27.523  18.476  -1.056  0.00  0.00    -0.226 OA
ENDROOT
BRANCH   1   5
ATOM      5  O   UNL     1      27.504  17.108  -2.840  0.00  0.00    -0.450 OA
BRANCH   5   6
ATOM      6  C   UNL     1      26.471  17.081  -3.798  0.00  0.00    +0.240 C 
BRANCH   6   7
ATOM      7  C   UNL     1      26.017  15.702  -4.315  0.00  0.00    +0.100 C 
BRANCH   7   9
ATOM      8  N   UNL     1      23.924  15.854  -3.014  0.00  0.00    -0.134 NA
ATOM      9  C   UNL     1      25.008  15.119  -3.410  0.00  0.00    +0.086 A 
ATOM     10  C   UNL     1      24.951  13.875  -2.821  0.00  0.00    +0.134 A 
ATOM     11  N   UNL     1      23.816  13.918  -2.061  0.00  0.00    -0.240 N 
ATOM     12  N   UNL     1      23.197  15.112  -2.191  0.00  0.00    -0.065 NA
BRANCH  11  13
ATOM     13  C   UNL     1      23.281  12.940  -1.128  0.00  0.00    +0.170 C 
ATOM     14  C   UNL     1      24.366  12.063  -0.518  0.00  0.00    -0.011 A 
ATOM     15  C   UNL     1      24.071  10.701  -0.749  0.00  0.00    -0.012 A 
ATOM     16  C   UNL     1      22.841  10.608  -1.509  0.00  0.00    -0.012 A 
ATOM     17  C   UNL     1      22.136   9.497  -1.941  0.00  0.00    +0.009 A 
ATOM     18  C   UNL     1      20.942   9.697  -2.640  0.00  0.00    +0.001 A 
ATOM     19  C   UNL     1      20.469  10.993  -2.902  0.00  0.00    +0.000 A 
ATOM     20  C   UNL     1      21.178  12.117  -2.468  0.00  0.00    +0.006 A 
ATOM     21  C   UNL     1      24.908   9.710  -0.265  0.00  0.00    +0.009 A 
ATOM     22  C   UNL     1      26.043  10.092   0.457  0.00  0.00    +0.001 A 
ATOM     23  C   UNL     1      26.330  11.448   0.687  0.00  0.00    +0.000 A 
ATOM     24  C   UNL     1      25.487  12.448   0.203  0.00  0.00    +0.006 A 
ATOM     25  C   UNL     1      22.363  11.912  -1.776  0.00  0.00    -0.011 A 
ENDBRANCH  11  13
ENDBRANCH   7   9
ENDBRANCH   6   7
ENDBRANCH   5   6
ENDBRANCH   1   5
BRANCH   2  26
ATOM     26  C   UNL     1      28.314  14.893  -0.663  0.00  0.00    +0.152 C 
BRANCH  26  27
ATOM     27  C   UNL     1      29.298  14.464   0.445  0.00  0.00    +0.193 C 
ATOM     28  O   UNL     1      29.389  13.023   0.385  0.00  0.00    -0.219 OA
BRANCH  27  29
ATOM     29  C   UNL     1      30.761  14.948   0.328  0.00  0.00    +0.212 C 
ATOM     30  O   UNL     1      30.874  16.313   0.760  0.00  0.00    -0.218 OA
BRANCH  29  31
ATOM     31  C   UNL     1      31.776  14.071   1.156  0.00  0.00    +0.171 C 
ATOM     32  O   UNL     1      32.037  14.610   2.448  0.00  0.00    -0.343 OA
ATOM     33  C   UNL     1      33.067  14.180   3.288  0.00  0.00    +0.220 C 
ATOM     34  C   UNL     1      34.421  14.142   2.558  0.00  0.00    +0.076 C 
ATOM     35  C   UNL     1      34.235  13.306   1.281  0.00  0.00    +0.177 C 
ATOM     36  O   UNL     1      35.470  13.206   0.587  0.00  0.00    -0.221 OA
ATOM     37  C   UNL     1      33.128  13.938   0.381  0.00  0.00    +0.155 C 
BRANCH  37  38
ATOM     38  N   UNL     1      32.953  13.150  -0.836  0.00  0.00    -0.202 NA
ATOM     39  C   UNL     1      33.177  13.492  -2.131  0.00  0.00    +0.242 C 
ATOM     40  C   UNL     1      33.198  12.398  -3.166  0.00  0.00    +0.096 C 
ATOM     41  O   UNL     1      33.358  14.672  -2.425  0.00  0.00    -0.273 OA
ENDBRANCH  37  38
BRANCH  33  42
ATOM     42  C   UNL     1      32.750  12.770   4.031  0.00  0.00    +0.391 C 
ATOM     43  O   UNL     1      33.939  12.353   4.507  0.00  0.00    -0.243 OA
ATOM     44  O   UNL     1      31.418  12.707   4.152  0.00  0.00    -0.243 OA
ENDBRANCH  33  42
ENDBRANCH  29  31
ENDBRANCH  27  29
ENDBRANCH  26  27
ENDBRANCH   2  26
TORSDOF 11
