REMARK VINA RESULT:    -6.119      3.441      7.219
REMARK INTER + INTRA:         -12.053
REMARK INTER:                  -9.995
REMARK INTRA:                  -2.058
REMARK UNBOUND:                -1.999
REMARK  Name = lig_assembled_57.pdb
REMARK  12 active torsions:
REMARK  status: ('A' for Active; 'I' for Inactive)
REMARK    1  A    between atoms: _2  and  _9
REMARK    2  A    between atoms: _3  and  _12
REMARK    3  A    between atoms: _6  and  _7
REMARK    4  A    between atoms: _6  and  _14
REMARK    5  A    between atoms: _14  and  _16
REMARK    6  A    between atoms: _15  and  _20
REMARK    7  A    between atoms: _16  and  _19
REMARK    8  A    between atoms: _24  and  _34
REMARK    9  A    between atoms: _26  and  _27
REMARK   10  A    between atoms: _28  and  _30
REMARK   11  A    between atoms: _30  and  _32
REMARK   12  A    between atoms: _32  and  _34
REMARK                            x       y       z     vdW  Elec       q    Type
REMARK                         _______ _______ _______ _____ _____    ______ ____
ROOT
ATOM      1  C   UNL     1      28.693  17.023  -0.765  0.00  0.00    +0.400 C 
ATOM      2  N   UNL     1      28.878  15.805  -0.155  0.00  0.00    -0.278 N 
ATOM      3  H   UNL     1      29.920  15.801   0.081  0.00  0.00    +0.152 HD
ATOM      4  O   UNL     1      29.618  17.831  -0.736  0.00  0.00    -0.226 OA
ENDROOT
BRANCH   1   5
ATOM      5  O   UNL     1      27.552  17.189  -1.348  0.00  0.00    -0.450 OA
BRANCH   5   6
ATOM      6  C   UNL     1      27.031  17.718  -2.546  0.00  0.00    +0.240 C 
BRANCH   6   7
ATOM      7  C   UNL     1      26.662  16.721  -3.661  0.00  0.00    +0.100 C 
BRANCH   7   9
ATOM      8  N   UNL     1      24.628  15.663  -2.745  0.00  0.00    -0.134 NA
ATOM      9  C   UNL     1      25.946  15.567  -3.089  0.00  0.00    +0.086 A 
ATOM     10  C   UNL     1      26.388  14.286  -2.832  0.00  0.00    +0.134 A 
ATOM     11  N   UNL     1      25.270  13.626  -2.416  0.00  0.00    -0.248 N 
ATOM     12  N   UNL     1      24.233  14.482  -2.299  0.00  0.00    -0.065 NA
BRANCH  11  13
ATOM     13  C   UNL     1      25.033  12.210  -2.164  0.00  0.00    +0.111 C 
ATOM     14  C   UNL     1      26.019  11.672  -1.116  0.00  0.00    +0.042 C 
ATOM     15  C   UNL     1      25.636  12.161   0.279  0.00  0.00    +0.086 C 
ATOM     16  N   UNL     1      24.284  11.755   0.677  0.00  0.00    -0.305 NA
ATOM     17  C   UNL     1      23.268  12.158  -0.298  0.00  0.00    +0.086 C 
ATOM     18  C   UNL     1      24.208  10.340   1.024  0.00  0.00    +0.104 C 
ATOM     19  C   UNL     1      23.602  11.821  -1.758  0.00  0.00    +0.042 C 
ENDBRANCH  11  13
ENDBRANCH   7   9
ENDBRANCH   6   7
ENDBRANCH   5   6
ENDBRANCH   1   5
BRANCH   2  20
ATOM     20  C   UNL     1      28.300  14.549   0.318  0.00  0.00    +0.152 C 
BRANCH  20  21
ATOM     21  C   UNL     1      28.983  13.904   1.541  0.00  0.00    +0.193 C 
ATOM     22  O   UNL     1      28.027  13.948   2.622  0.00  0.00    -0.219 OA
BRANCH  21  23
ATOM     23  C   UNL     1      29.378  12.414   1.436  0.00  0.00    +0.212 C 
ATOM     24  O   UNL     1      29.405  11.998   0.061  0.00  0.00    -0.218 OA
BRANCH  23  25
ATOM     25  C   UNL     1      30.777  12.092   2.088  0.00  0.00    +0.171 C 
ATOM     26  O   UNL     1      30.729  12.084   3.511  0.00  0.00    -0.343 OA
ATOM     27  C   UNL     1      31.855  12.069   4.337  0.00  0.00    +0.220 C 
ATOM     28  C   UNL     1      32.863  13.165   3.948  0.00  0.00    +0.076 C 
ATOM     29  C   UNL     1      33.159  13.009   2.447  0.00  0.00    +0.177 C 
ATOM     30  O   UNL     1      34.118  13.976   2.043  0.00  0.00    -0.221 OA
ATOM     31  C   UNL     1      31.840  13.140   1.623  0.00  0.00    +0.155 C 
BRANCH  31  32
ATOM     32  N   UNL     1      32.119  13.000   0.196  0.00  0.00    -0.202 NA
ATOM     33  C   UNL     1      32.171  13.947  -0.775  0.00  0.00    +0.242 C 
ATOM     34  C   UNL     1      32.769  13.573  -2.107  0.00  0.00    +0.096 C 
ATOM     35  O   UNL     1      31.737  15.074  -0.548  0.00  0.00    -0.273 OA
ENDBRANCH  31  32
BRANCH  27  36
ATOM     36  C   UNL     1      32.566  10.611   4.435  0.00  0.00    +0.391 C 
ATOM     37  O   UNL     1      33.784  10.853   4.958  0.00  0.00    -0.243 OA
ATOM     38  O   UNL     1      31.592   9.711   4.252  0.00  0.00    -0.243 OA
ENDBRANCH  27  36
ENDBRANCH  23  25
ENDBRANCH  21  23
ENDBRANCH  20  21
ENDBRANCH   2  20
TORSDOF 11
