REMARK VINA RESULT:    -6.367      2.295      3.793
REMARK INTER + INTRA:         -13.401
REMARK INTER:                 -11.578
REMARK INTRA:                  -1.823
REMARK UNBOUND:                -1.823
REMARK  Name = lig_assembled_12.pdb
REMARK  14 active torsions:
REMARK  status: ('A' for Active; 'I' for Inactive)
REMARK    1  A    between atoms: _2  and  _8
REMARK    2  A    between atoms: _5  and  _6
REMARK    3  A    between atoms: _5  and  _16
REMARK    4  A    between atoms: _8  and  _15
REMARK    5  A    between atoms: _9  and  _10
REMARK    6  A    between atoms: _9  and  _15
REMARK    7  A    between atoms: _16  and  _18
REMARK    8  A    between atoms: _17  and  _22
REMARK    9  A    between atoms: _18  and  _21
REMARK   10  A    between atoms: _26  and  _36
REMARK   11  A    between atoms: _28  and  _29
REMARK   12  A    between atoms: _30  and  _32
REMARK   13  A    between atoms: _32  and  _34
REMARK   14  A    between atoms: _34  and  _36
REMARK                            x       y       z     vdW  Elec       q    Type
REMARK                         _______ _______ _______ _____ _____    ______ ____
ROOT
ATOM      1  C   UNL     1      30.977  15.247   0.258  0.00  0.00    +0.400 C 
ATOM      2  N   UNL     1      31.733  14.165  -0.127  0.00  0.00    -0.278 N 
ATOM      3  H   UNL     1      32.610  14.248   0.478  0.00  0.00    +0.152 HD
ATOM      4  O   UNL     1      31.345  15.891   1.238  0.00  0.00    -0.226 OA
ENDROOT
BRANCH   2   5
ATOM      5  C   UNL     1      31.864  12.973  -0.961  0.00  0.00    +0.152 C 
BRANCH   5   6
ATOM      6  C   UNL     1      33.304  12.505  -1.256  0.00  0.00    +0.193 C 
ATOM      7  O   UNL     1      33.642  13.004  -2.569  0.00  0.00    -0.219 OA
BRANCH   6   8
ATOM      8  C   UNL     1      34.430  13.036  -0.341  0.00  0.00    +0.212 C 
ATOM      9  O   UNL     1      34.562  14.460  -0.482  0.00  0.00    -0.218 OA
BRANCH   8  10
ATOM     10  C   UNL     1      34.207  12.699   1.183  0.00  0.00    +0.171 C 
ATOM     11  O   UNL     1      33.711  13.810   1.922  0.00  0.00    -0.343 OA
ATOM     12  C   UNL     1      33.655  13.867   3.317  0.00  0.00    +0.220 C 
ATOM     13  C   UNL     1      35.002  13.493   3.958  0.00  0.00    +0.076 C 
ATOM     14  C   UNL     1      35.427  12.132   3.382  0.00  0.00    +0.177 C 
ATOM     15  O   UNL     1      36.651  11.719   3.973  0.00  0.00    -0.221 OA
ATOM     16  C   UNL     1      35.548  12.220   1.829  0.00  0.00    +0.155 C 
BRANCH  16  17
ATOM     17  N   UNL     1      35.958  10.930   1.278  0.00  0.00    -0.202 NA
ATOM     18  C   UNL     1      37.118  10.576   0.670  0.00  0.00    +0.242 C 
ATOM     19  C   UNL     1      37.398   9.110   0.462  0.00  0.00    +0.096 C 
ATOM     20  O   UNL     1      37.905  11.448   0.307  0.00  0.00    -0.273 OA
ENDBRANCH  16  17
BRANCH  12  21
ATOM     21  C   UNL     1      32.432  13.005   3.951  0.00  0.00    +0.391 C 
ATOM     22  O   UNL     1      32.767  12.826   5.244  0.00  0.00    -0.243 OA
ATOM     23  O   UNL     1      31.439  13.058   3.056  0.00  0.00    -0.243 OA
ENDBRANCH  12  21
ENDBRANCH   8  10
ENDBRANCH   6   8
ENDBRANCH   5   6
ENDBRANCH   2   5
BRANCH   1  24
ATOM     24  O   UNL     1      29.950  15.505  -0.483  0.00  0.00    -0.450 OA
BRANCH  24  25
ATOM     25  C   UNL     1      28.635  15.993  -0.354  0.00  0.00    +0.240 C 
BRANCH  25  26
ATOM     26  C   UNL     1      28.247  17.222  -1.197  0.00  0.00    +0.100 C 
BRANCH  26  28
ATOM     27  N   UNL     1      26.794  17.768  -3.131  0.00  0.00    -0.134 NA
ATOM     28  C   UNL     1      27.229  16.859  -2.200  0.00  0.00    +0.086 A 
ATOM     29  C   UNL     1      26.572  15.668  -2.394  0.00  0.00    +0.136 A 
ATOM     30  N   UNL     1      25.729  15.920  -3.436  0.00  0.00    -0.226 N 
ATOM     31  N   UNL     1      25.882  17.178  -3.893  0.00  0.00    -0.063 NA
BRANCH  30  32
ATOM     32  C   UNL     1      24.792  15.018  -4.084  0.00  0.00    +0.305 C 
BRANCH  32  33
ATOM     33  O   UNL     1      23.684  14.792  -3.217  0.00  0.00    -0.353 OA
BRANCH  33  34
ATOM     34  C   UNL     1      23.276  13.431  -3.228  0.00  0.00    +0.197 C 
BRANCH  34  35
ATOM     35  C   UNL     1      22.450  13.196  -1.994  0.00  0.00    -0.022 A 
ATOM     36  C   UNL     1      22.842  12.239  -1.046  0.00  0.00    +0.006 A 
ATOM     37  C   UNL     1      22.054  11.993   0.080  0.00  0.00    +0.000 A 
ATOM     38  C   UNL     1      20.865  12.694   0.266  0.00  0.00    +0.000 A 
ATOM     39  C   UNL     1      20.459  13.639  -0.674  0.00  0.00    +0.000 A 
ATOM     40  C   UNL     1      21.246  13.887  -1.801  0.00  0.00    +0.006 A 
ENDBRANCH  34  35
ENDBRANCH  33  34
ENDBRANCH  32  33
ENDBRANCH  30  32
ENDBRANCH  26  28
ENDBRANCH  25  26
ENDBRANCH  24  25
ENDBRANCH   1  24
TORSDOF 14
