REMARK VINA RESULT:    -7.395      3.590      7.724
REMARK INTER + INTRA:         -14.009
REMARK INTER:                 -11.424
REMARK INTRA:                  -2.584
REMARK UNBOUND:                -1.427
REMARK  Name = lig_assembled_6.pdb
REMARK  12 active torsions:
REMARK  status: ('A' for Active; 'I' for Inactive)
REMARK    1  A    between atoms: _2  and  _9
REMARK    2  A    between atoms: _3  and  _12
REMARK    3  A    between atoms: _6  and  _7
REMARK    4  A    between atoms: _6  and  _16
REMARK    5  A    between atoms: _16  and  _18
REMARK    6  A    between atoms: _17  and  _22
REMARK    7  A    between atoms: _18  and  _21
REMARK    8  A    between atoms: _26  and  _36
REMARK    9  A    between atoms: _28  and  _29
REMARK   10  A    between atoms: _30  and  _32
REMARK   11  A    between atoms: _32  and  _34
REMARK   12  A    between atoms: _34  and  _36
REMARK                            x       y       z     vdW  Elec       q    Type
REMARK                         _______ _______ _______ _____ _____    ______ ____
ROOT
ATOM      1  C   UNL     1      27.904  17.707  -1.112  0.00  0.00    +0.400 C 
ATOM      2  N   UNL     1      27.180  17.513  -2.265  0.00  0.00    -0.278 N 
ATOM      3  H   UNL     1      26.228  17.941  -2.035  0.00  0.00    +0.152 HD
ATOM      4  O   UNL     1      27.419  18.420  -0.237  0.00  0.00    -0.226 OA
ENDROOT
BRANCH   2   5
ATOM      5  C   UNL     1      27.135  17.011  -3.636  0.00  0.00    +0.152 C 
BRANCH   5   6
ATOM      6  C   UNL     1      25.900  16.166  -4.010  0.00  0.00    +0.193 C 
ATOM      7  O   UNL     1      26.020  15.855  -5.415  0.00  0.00    -0.219 OA
BRANCH   6   8
ATOM      8  C   UNL     1      25.739  14.792  -3.323  0.00  0.00    +0.212 C 
ATOM      9  O   UNL     1      26.300  14.823  -2.001  0.00  0.00    -0.218 OA
BRANCH   8  10
ATOM     10  C   UNL     1      24.239  14.317  -3.222  0.00  0.00    +0.171 C 
ATOM     11  O   UNL     1      23.494  15.055  -2.260  0.00  0.00    -0.343 OA
ATOM     12  C   UNL     1      22.227  14.692  -1.796  0.00  0.00    +0.220 C 
ATOM     13  C   UNL     1      22.189  13.225  -1.334  0.00  0.00    +0.076 C 
ATOM     14  C   UNL     1      22.728  12.362  -2.487  0.00  0.00    +0.177 C 
ATOM     15  O   UNL     1      22.676  10.989  -2.126  0.00  0.00    -0.221 OA
ATOM     16  C   UNL     1      24.181  12.799  -2.851  0.00  0.00    +0.155 C 
BRANCH  16  17
ATOM     17  N   UNL     1      24.700  11.977  -3.942  0.00  0.00    -0.202 NA
ATOM     18  C   UNL     1      25.564  10.931  -3.905  0.00  0.00    +0.242 C 
ATOM     19  C   UNL     1      25.702  10.074  -5.136  0.00  0.00    +0.096 C 
ATOM     20  O   UNL     1      26.205  10.708  -2.880  0.00  0.00    -0.273 OA
ENDBRANCH  16  17
BRANCH  12  21
ATOM     21  C   UNL     1      21.034  15.017  -2.850  0.00  0.00    +0.391 C 
ATOM     22  O   UNL     1      19.962  14.353  -2.376  0.00  0.00    -0.243 OA
ATOM     23  O   UNL     1      21.470  16.038  -3.598  0.00  0.00    -0.243 OA
ENDBRANCH  12  21
ENDBRANCH   8  10
ENDBRANCH   6   8
ENDBRANCH   5   6
ENDBRANCH   2   5
BRANCH   1  24
ATOM     24  O   UNL     1      29.033  17.082  -1.048  0.00  0.00    -0.450 OA
BRANCH  24  25
ATOM     25  C   UNL     1      30.084  16.866  -0.135  0.00  0.00    +0.240 C 
BRANCH  25  26
ATOM     26  C   UNL     1      30.656  15.439  -0.034  0.00  0.00    +0.100 C 
BRANCH  26  28
ATOM     27  N   UNL     1      29.932  14.323   2.054  0.00  0.00    -0.134 NA
ATOM     28  C   UNL     1      29.738  14.571   0.725  0.00  0.00    +0.086 A 
ATOM     29  C   UNL     1      28.608  13.907   0.306  0.00  0.00    +0.139 A 
ATOM     30  N   UNL     1      28.121  13.287   1.433  0.00  0.00    -0.220 N 
ATOM     31  N   UNL     1      28.951  13.536   2.474  0.00  0.00    -0.061 NA
BRANCH  30  32
ATOM     32  C   UNL     1      26.931  12.526   1.585  0.00  0.00    +0.067 A 
ATOM     33  C   UNL     1      26.616  11.927   2.815  0.00  0.00    +0.034 A 
ATOM     34  C   UNL     1      25.473  11.129   2.935  0.00  0.00    +0.086 A 
ATOM     35  C   UNL     1      24.641  10.934   1.826  0.00  0.00    +0.273 A 
ATOM     36  C   UNL     1      24.931  11.549   0.603  0.00  0.00    +0.086 A 
ATOM     37  C   UNL     1      26.075  12.346   0.485  0.00  0.00    +0.034 A 
BRANCH  35  38
ATOM     38  N   UNL     1      23.466  10.061   1.947  0.00  0.00    +0.080 N 
ATOM     39  O   UNL     1      22.446  10.538   2.467  0.00  0.00    +0.041 OA
ATOM     40  O   UNL     1      23.563   8.899   1.530  0.00  0.00    -0.576 OA
ENDBRANCH  35  38
ENDBRANCH  30  32
ENDBRANCH  26  28
ENDBRANCH  25  26
ENDBRANCH  24  25
ENDBRANCH   1  24
TORSDOF 12
