REMARK VINA RESULT:    -6.219      1.612      1.995
REMARK INTER + INTRA:         -13.798
REMARK INTER:                 -12.086
REMARK INTRA:                  -1.712
REMARK UNBOUND:                -3.035
REMARK  Name = lig_assembled_22.pdb
REMARK  15 active torsions:
REMARK  status: ('A' for Active; 'I' for Inactive)
REMARK    1  A    between atoms: _2  and  _8
REMARK    2  A    between atoms: _4  and  _8
REMARK    3  A    between atoms: _4  and  _11
REMARK    4  A    between atoms: _5  and  _6
REMARK    5  A    between atoms: _5  and  _13
REMARK    6  A    between atoms: _8  and  _9
REMARK    7  A    between atoms: _8  and  _10
REMARK    8  A    between atoms: _13  and  _15
REMARK    9  A    between atoms: _14  and  _19
REMARK   10  A    between atoms: _15  and  _18
REMARK   11  A    between atoms: _23  and  _33
REMARK   12  A    between atoms: _25  and  _26
REMARK   13  A    between atoms: _27  and  _29
REMARK   14  A    between atoms: _29  and  _31
REMARK   15  A    between atoms: _31  and  _33
REMARK                            x       y       z     vdW  Elec       q    Type
REMARK                         _______ _______ _______ _____ _____    ______ ____
ROOT
ATOM      1  C   UNL     1      28.427  17.020  -0.514  0.00  0.00    +0.400 C 
ATOM      2  N   UNL     1      28.839  15.854   0.086  0.00  0.00    -0.278 N 
ATOM      3  H   UNL     1      29.335  16.192   0.970  0.00  0.00    +0.152 HD
ATOM      4  O   UNL     1      28.535  18.067   0.119  0.00  0.00    -0.226 OA
ENDROOT
BRANCH   1   5
ATOM      5  O   UNL     1      27.986  16.902  -1.724  0.00  0.00    -0.450 OA
BRANCH   5   6
ATOM      6  C   UNL     1      27.091  17.544  -2.602  0.00  0.00    +0.240 C 
BRANCH   6   7
ATOM      7  C   UNL     1      26.956  16.970  -4.025  0.00  0.00    +0.100 C 
BRANCH   7   9
ATOM      8  N   UNL     1      25.531  15.366  -5.249  0.00  0.00    -0.134 NA
ATOM      9  C   UNL     1      25.797  16.062  -4.102  0.00  0.00    +0.086 A 
ATOM     10  C   UNL     1      24.842  15.752  -3.159  0.00  0.00    +0.135 A 
ATOM     11  N   UNL     1      24.021  14.861  -3.790  0.00  0.00    -0.235 N 
ATOM     12  N   UNL     1      24.444  14.639  -5.049  0.00  0.00    -0.064 NA
BRANCH  11  13
ATOM     13  C   UNL     1      22.815  14.193  -3.294  0.00  0.00    +0.155 C 
ATOM     14  C   UNL     1      22.728  14.221  -1.752  0.00  0.00    +0.048 C 
ATOM     15  C   UNL     1      22.840  12.723  -3.754  0.00  0.00    +0.048 C 
BRANCH  13  16
ATOM     16  C   UNL     1      21.563  14.883  -3.840  0.00  0.00    +0.332 C 
ATOM     17  O   UNL     1      20.457  14.818  -3.316  0.00  0.00    -0.248 OA
BRANCH  16  18
ATOM     18  O   UNL     1      21.744  15.600  -4.976  0.00  0.00    -0.479 OA
ATOM     19  H   UNL     1      21.387  16.510  -4.978  0.00  0.00    +0.295 HD
ENDBRANCH  16  18
ENDBRANCH  13  16
ENDBRANCH  11  13
ENDBRANCH   7   9
ENDBRANCH   6   7
ENDBRANCH   5   6
ENDBRANCH   1   5
BRANCH   2  20
ATOM     20  C   UNL     1      28.888  14.394   0.065  0.00  0.00    +0.152 C 
BRANCH  20  21
ATOM     21  C   UNL     1      30.289  13.760   0.194  0.00  0.00    +0.193 C 
ATOM     22  O   UNL     1      30.136  12.353  -0.097  0.00  0.00    -0.219 OA
BRANCH  21  23
ATOM     23  C   UNL     1      31.384  14.239  -0.785  0.00  0.00    +0.212 C 
ATOM     24  O   UNL     1      31.689  15.624  -0.557  0.00  0.00    -0.218 OA
BRANCH  23  25
ATOM     25  C   UNL     1      32.718  13.406  -0.684  0.00  0.00    +0.171 C 
ATOM     26  O   UNL     1      33.580  13.875   0.348  0.00  0.00    -0.343 OA
ATOM     27  C   UNL     1      34.913  13.485   0.499  0.00  0.00    +0.220 C 
ATOM     28  C   UNL     1      35.701  13.627  -0.815  0.00  0.00    +0.076 C 
ATOM     29  C   UNL     1      34.925  12.868  -1.904  0.00  0.00    +0.177 C 
ATOM     30  O   UNL     1      35.632  12.934  -3.135  0.00  0.00    -0.221 OA
ATOM     31  C   UNL     1      33.486  13.455  -2.046  0.00  0.00    +0.155 C 
BRANCH  31  32
ATOM     32  N   UNL     1      32.747  12.742  -3.085  0.00  0.00    -0.202 NA
ATOM     33  C   UNL     1      32.638  13.009  -4.411  0.00  0.00    +0.242 C 
ATOM     34  C   UNL     1      32.057  11.948  -5.309  0.00  0.00    +0.096 C 
ATOM     35  O   UNL     1      33.013  14.097  -4.844  0.00  0.00    -0.273 OA
ENDBRANCH  31  32
BRANCH  27  36
ATOM     36  C   UNL     1      35.085  12.003   1.141  0.00  0.00    +0.391 C 
ATOM     37  O   UNL     1      36.381  11.689   0.949  0.00  0.00    -0.243 OA
ATOM     38  O   UNL     1      33.984  11.786   1.871  0.00  0.00    -0.243 OA
ENDBRANCH  27  36
ENDBRANCH  23  25
ENDBRANCH  21  23
ENDBRANCH  20  21
ENDBRANCH   2  20
TORSDOF 13
