REMARK VINA RESULT:    -6.809      1.228      3.392
REMARK INTER + INTRA:         -14.078
REMARK INTER:                 -12.815
REMARK INTRA:                  -1.264
REMARK UNBOUND:                -2.094
REMARK  Name = lig_assembled_24.pdb
REMARK  14 active torsions:
REMARK  status: ('A' for Active; 'I' for Inactive)
REMARK    1  A    between atoms: _2  and  _8
REMARK    2  A    between atoms: _5  and  _6
REMARK    3  A    between atoms: _5  and  _16
REMARK    4  A    between atoms: _8  and  _9
REMARK    5  A    between atoms: _12  and  _15
REMARK    6  A    between atoms: _13  and  _15
REMARK    7  A    between atoms: _16  and  _18
REMARK    8  A    between atoms: _17  and  _22
REMARK    9  A    between atoms: _18  and  _21
REMARK   10  A    between atoms: _26  and  _36
REMARK   11  A    between atoms: _28  and  _29
REMARK   12  A    between atoms: _30  and  _32
REMARK   13  A    between atoms: _32  and  _34
REMARK   14  A    between atoms: _34  and  _36
REMARK                            x       y       z     vdW  Elec       q    Type
REMARK                         _______ _______ _______ _____ _____    ______ ____
ROOT
ATOM      1  C   UNL     1      27.741  17.373  -0.925  0.00  0.00    +0.400 C 
ATOM      2  N   UNL     1      28.384  16.529  -0.050  0.00  0.00    -0.278 N 
ATOM      3  H   UNL     1      28.676  17.176   0.749  0.00  0.00    +0.152 HD
ATOM      4  O   UNL     1      27.498  18.518  -0.551  0.00  0.00    -0.226 OA
ENDROOT
BRANCH   1   5
ATOM      5  O   UNL     1      27.478  16.878  -2.089  0.00  0.00    -0.450 OA
BRANCH   5   6
ATOM      6  C   UNL     1      26.839  17.250  -3.288  0.00  0.00    +0.240 C 
BRANCH   6   7
ATOM      7  C   UNL     1      26.531  16.135  -4.305  0.00  0.00    +0.100 C 
BRANCH   7   9
ATOM      8  N   UNL     1      24.671  14.605  -4.880  0.00  0.00    -0.134 NA
ATOM      9  C   UNL     1      25.168  15.612  -4.097  0.00  0.00    +0.086 A 
ATOM     10  C   UNL     1      24.219  15.968  -3.164  0.00  0.00    +0.134 A 
ATOM     11  N   UNL     1      23.193  15.096  -3.383  0.00  0.00    -0.247 N 
ATOM     12  N   UNL     1      23.458  14.303  -4.442  0.00  0.00    -0.065 NA
BRANCH  11  13
ATOM     13  C   UNL     1      21.959  14.876  -2.646  0.00  0.00    +0.180 C 
BRANCH  13  14
ATOM     14  C   UNL     1      22.041  13.812  -1.578  0.00  0.00    -0.026 A 
ATOM     15  C   UNL     1      20.894  13.417  -0.877  0.00  0.00    +0.009 A 
ATOM     16  C   UNL     1      20.979  12.430   0.108  0.00  0.00    +0.046 A 
ATOM     17  C   UNL     1      22.197  11.812   0.395  0.00  0.00    +0.120 A 
ATOM     18  C   UNL     1      23.345  12.217  -0.280  0.00  0.00    +0.046 A 
ATOM     19  C   UNL     1      23.269  13.210  -1.264  0.00  0.00    +0.009 A 
BRANCH  17  20
ATOM     20  O   UNL     1      22.159  10.875   1.391  0.00  0.00    -0.495 OA
ATOM     21  C   UNL     1      22.101   9.521   0.955  0.00  0.00    +0.277 C 
ENDBRANCH  17  20
ENDBRANCH  13  14
ENDBRANCH  11  13
ENDBRANCH   7   9
ENDBRANCH   6   7
ENDBRANCH   5   6
ENDBRANCH   1   5
BRANCH   2  22
ATOM     22  C   UNL     1      28.823  15.175   0.276  0.00  0.00    +0.152 C 
BRANCH  22  23
ATOM     23  C   UNL     1      30.208  14.761  -0.265  0.00  0.00    +0.193 C 
ATOM     24  O   UNL     1      30.941  15.982  -0.506  0.00  0.00    -0.219 OA
BRANCH  23  25
ATOM     25  C   UNL     1      31.124  13.940   0.669  0.00  0.00    +0.212 C 
ATOM     26  O   UNL     1      30.473  12.722   1.066  0.00  0.00    -0.218 OA
BRANCH  25  27
ATOM     27  C   UNL     1      32.515  13.580   0.022  0.00  0.00    +0.171 C 
ATOM     28  O   UNL     1      32.384  12.775  -1.145  0.00  0.00    -0.343 OA
ATOM     29  C   UNL     1      33.445  12.116  -1.771  0.00  0.00    +0.220 C 
ATOM     30  C   UNL     1      34.273  11.290  -0.772  0.00  0.00    +0.076 C 
ATOM     31  C   UNL     1      34.681  12.228   0.377  0.00  0.00    +0.177 C 
ATOM     32  O   UNL     1      35.485  11.523   1.312  0.00  0.00    -0.221 OA
ATOM     33  C   UNL     1      33.411  12.827   1.058  0.00  0.00    +0.155 C 
BRANCH  33  34
ATOM     34  N   UNL     1      33.795  13.713   2.154  0.00  0.00    -0.202 NA
ATOM     35  C   UNL     1      33.463  13.660   3.469  0.00  0.00    +0.242 C 
ATOM     36  C   UNL     1      34.231  14.524   4.436  0.00  0.00    +0.096 C 
ATOM     37  O   UNL     1      32.556  12.917   3.838  0.00  0.00    -0.273 OA
ENDBRANCH  33  34
BRANCH  29  38
ATOM     38  C   UNL     1      34.385  13.100  -2.657  0.00  0.00    +0.391 C 
ATOM     39  O   UNL     1      35.472  12.364  -2.959  0.00  0.00    -0.243 OA
ATOM     40  O   UNL     1      33.613  14.139  -3.001  0.00  0.00    -0.243 OA
ENDBRANCH  29  38
ENDBRANCH  25  27
ENDBRANCH  23  25
ENDBRANCH  22  23
ENDBRANCH   2  22
TORSDOF 13
