REMARK VINA RESULT:    -6.452      1.544      3.180
REMARK INTER + INTRA:         -14.218
REMARK INTER:                 -12.811
REMARK INTRA:                  -1.408
REMARK UNBOUND:                -2.486
REMARK  Name = lig_assembled_29.pdb
REMARK  16 active torsions:
REMARK  status: ('A' for Active; 'I' for Inactive)
REMARK    1  A    between atoms: _2  and  _8
REMARK    2  A    between atoms: _5  and  _6
REMARK    3  A    between atoms: _5  and  _18
REMARK    4  A    between atoms: _8  and  _9
REMARK    5  A    between atoms: _11  and  _17
REMARK    6  A    between atoms: _12  and  _17
REMARK    7  A    between atoms: _13  and  _16
REMARK    8  A    between atoms: _14  and  _16
REMARK    9  A    between atoms: _18  and  _20
REMARK   10  A    between atoms: _19  and  _24
REMARK   11  A    between atoms: _20  and  _23
REMARK   12  A    between atoms: _28  and  _38
REMARK   13  A    between atoms: _30  and  _31
REMARK   14  A    between atoms: _32  and  _34
REMARK   15  A    between atoms: _34  and  _36
REMARK   16  A    between atoms: _36  and  _38
REMARK                            x       y       z     vdW  Elec       q    Type
REMARK                         _______ _______ _______ _____ _____    ______ ____
ROOT
ATOM      1  C   UNL     1      28.047  17.063  -0.800  0.00  0.00    +0.400 C 
ATOM      2  N   UNL     1      28.418  16.029   0.028  0.00  0.00    -0.278 N 
ATOM      3  H   UNL     1      28.805  16.528   0.889  0.00  0.00    +0.152 HD
ATOM      4  O   UNL     1      28.059  18.203  -0.343  0.00  0.00    -0.226 OA
ENDROOT
BRANCH   2   5
ATOM      5  C   UNL     1      28.505  14.589   0.257  0.00  0.00    +0.152 C 
BRANCH   5   6
ATOM      6  C   UNL     1      29.232  14.149   1.544  0.00  0.00    +0.193 C 
ATOM      7  O   UNL     1      28.208  13.852   2.520  0.00  0.00    -0.219 OA
BRANCH   6   8
ATOM      8  C   UNL     1      30.086  12.863   1.479  0.00  0.00    +0.212 C 
ATOM      9  O   UNL     1      29.570  11.968   0.480  0.00  0.00    -0.218 OA
BRANCH   8  10
ATOM     10  C   UNL     1      31.607  13.139   1.171  0.00  0.00    +0.171 C 
ATOM     11  O   UNL     1      31.933  12.942  -0.201  0.00  0.00    -0.343 OA
ATOM     12  C   UNL     1      33.236  12.879  -0.701  0.00  0.00    +0.220 C 
ATOM     13  C   UNL     1      34.103  11.886   0.092  0.00  0.00    +0.076 C 
ATOM     14  C   UNL     1      33.998  12.264   1.579  0.00  0.00    +0.177 C 
ATOM     15  O   UNL     1      34.815  11.399   2.355  0.00  0.00    -0.221 OA
ATOM     16  C   UNL     1      32.509  12.206   2.044  0.00  0.00    +0.155 C 
BRANCH  16  17
ATOM     17  N   UNL     1      32.405  12.557   3.458  0.00  0.00    -0.202 NA
ATOM     18  C   UNL     1      31.983  11.810   4.509  0.00  0.00    +0.242 C 
ATOM     19  C   UNL     1      32.255  12.316   5.902  0.00  0.00    +0.096 C 
ATOM     20  O   UNL     1      31.397  10.749   4.304  0.00  0.00    -0.273 OA
ENDBRANCH  16  17
BRANCH  12  21
ATOM     21  C   UNL     1      33.952  14.332  -0.824  0.00  0.00    +0.391 C 
ATOM     22  O   UNL     1      35.261  14.093  -0.612  0.00  0.00    -0.243 OA
ATOM     23  O   UNL     1      33.045  15.147  -1.375  0.00  0.00    -0.243 OA
ENDBRANCH  12  21
ENDBRANCH   8  10
ENDBRANCH   6   8
ENDBRANCH   5   6
ENDBRANCH   2   5
BRANCH   1  24
ATOM     24  O   UNL     1      27.745  16.729  -2.012  0.00  0.00    -0.450 OA
BRANCH  24  25
ATOM     25  C   UNL     1      26.912  17.161  -3.062  0.00  0.00    +0.240 C 
BRANCH  25  26
ATOM     26  C   UNL     1      26.593  16.148  -4.178  0.00  0.00    +0.100 C 
BRANCH  26  28
ATOM     27  N   UNL     1      24.669  14.802  -4.976  0.00  0.00    -0.134 NA
ATOM     28  C   UNL     1      25.193  15.692  -4.077  0.00  0.00    +0.086 A 
ATOM     29  C   UNL     1      24.235  16.007  -3.142  0.00  0.00    +0.134 A 
ATOM     30  N   UNL     1      23.180  15.207  -3.473  0.00  0.00    -0.247 N 
ATOM     31  N   UNL     1      23.427  14.519  -4.602  0.00  0.00    -0.065 NA
BRANCH  30  32
ATOM     32  C   UNL     1      21.941  15.009  -2.743  0.00  0.00    +0.180 C 
BRANCH  32  33
ATOM     33  C   UNL     1      22.062  13.844  -1.788  0.00  0.00    -0.022 A 
ATOM     34  C   UNL     1      23.328  13.412  -1.354  0.00  0.00    +0.054 A 
ATOM     35  C   UNL     1      23.451  12.385  -0.408  0.00  0.00    +0.162 A 
ATOM     36  C   UNL     1      22.292  11.771   0.107  0.00  0.00    +0.162 A 
ATOM     37  C   UNL     1      21.034  12.201  -0.326  0.00  0.00    +0.050 A 
ATOM     38  C   UNL     1      20.920  13.228  -1.267  0.00  0.00    +0.009 A 
BRANCH  36  39
ATOM     39  O   UNL     1      22.494  10.768   1.025  0.00  0.00    -0.491 OA
ATOM     40  C   UNL     1      22.096  11.011   2.366  0.00  0.00    +0.277 C 
ENDBRANCH  36  39
BRANCH  35  41
ATOM     41  O   UNL     1      24.647  11.922   0.081  0.00  0.00    -0.491 OA
ATOM     42  C   UNL     1      25.810  12.123  -0.711  0.00  0.00    +0.277 C 
ENDBRANCH  35  41
ENDBRANCH  32  33
ENDBRANCH  30  32
ENDBRANCH  26  28
ENDBRANCH  25  26
ENDBRANCH  24  25
ENDBRANCH   1  24
TORSDOF 14
