REMARK VINA RESULT:    -7.002      1.686      2.474
REMARK INTER + INTRA:         -16.881
REMARK INTER:                 -14.335
REMARK INTRA:                  -2.546
REMARK UNBOUND:                -3.125
REMARK  Name = lig_assembled_47.pdb
REMARK  17 active torsions:
REMARK  status: ('A' for Active; 'I' for Inactive)
REMARK    1  A    between atoms: _2  and  _8
REMARK    2  A    between atoms: _5  and  _6
REMARK    3  A    between atoms: _5  and  _25
REMARK    4  A    between atoms: _8  and  _9
REMARK    5  A    between atoms: _9  and  _10
REMARK    6  A    between atoms: _9  and  _11
REMARK    7  A    between atoms: _10  and  _23
REMARK    8  A    between atoms: _11  and  _12
REMARK    9  A    between atoms: _11  and  _18
REMARK   10  A    between atoms: _25  and  _27
REMARK   11  A    between atoms: _26  and  _31
REMARK   12  A    between atoms: _27  and  _30
REMARK   13  A    between atoms: _35  and  _45
REMARK   14  A    between atoms: _37  and  _38
REMARK   15  A    between atoms: _39  and  _41
REMARK   16  A    between atoms: _41  and  _43
REMARK   17  A    between atoms: _43  and  _45
REMARK                            x       y       z     vdW  Elec       q    Type
REMARK                         _______ _______ _______ _____ _____    ______ ____
ROOT
ATOM      1  C   UNL     1      27.158  15.435  -3.624  0.00  0.00    +0.100 C 
ENDROOT
BRANCH   1   3
ATOM      2  N   UNL     1      25.441  15.051  -5.377  0.00  0.00    -0.134 NA
ATOM      3  C   UNL     1      25.854  14.911  -4.077  0.00  0.00    +0.086 A 
ATOM      4  C   UNL     1      24.866  14.268  -3.363  0.00  0.00    +0.133 A 
ATOM      5  N   UNL     1      23.864  14.089  -4.271  0.00  0.00    -0.251 N 
ATOM      6  N   UNL     1      24.220  14.541  -5.484  0.00  0.00    -0.065 NA
BRANCH   5   7
ATOM      7  C   UNL     1      22.501  13.641  -4.025  0.00  0.00    +0.160 C 
BRANCH   7   8
ATOM      8  C   UNL     1      21.888  14.200  -2.738  0.00  0.00    +0.131 C 
BRANCH   8   9
ATOM      9  C   UNL     1      21.147  15.480  -3.102  0.00  0.00    +0.311 C 
ATOM     10  O   UNL     1      19.933  15.536  -3.211  0.00  0.00    -0.251 OA
BRANCH   9  11
ATOM     11  O   UNL     1      21.887  16.604  -3.198  0.00  0.00    -0.480 OA
ATOM     12  H   UNL     1      21.476  17.456  -2.973  0.00  0.00    +0.295 HD
ENDBRANCH   9  11
ENDBRANCH   8   9
BRANCH   8  13
ATOM     13  C   UNL     1      20.975  13.198  -1.962  0.00  0.00    +0.064 C 
BRANCH  13  14
ATOM     14  C   UNL     1      20.321  12.104  -2.807  0.00  0.00    -0.039 A 
ATOM     15  C   UNL     1      19.153  12.393  -3.541  0.00  0.00    +0.004 A 
ATOM     16  C   UNL     1      18.530  11.414  -4.323  0.00  0.00    +0.000 A 
ATOM     17  C   UNL     1      19.051  10.125  -4.375  0.00  0.00    +0.000 A 
ATOM     18  C   UNL     1      20.192   9.816  -3.642  0.00  0.00    +0.000 A 
ATOM     19  C   UNL     1      20.827  10.798  -2.874  0.00  0.00    +0.004 A 
ENDBRANCH  13  14
BRANCH  13  20
ATOM     20  C   UNL     1      21.717  12.646  -0.738  0.00  0.00    -0.039 A 
ATOM     21  C   UNL     1      23.093  12.369  -0.806  0.00  0.00    +0.004 A 
ATOM     22  C   UNL     1      23.737  11.709   0.244  0.00  0.00    +0.000 A 
ATOM     23  C   UNL     1      23.027  11.340   1.384  0.00  0.00    +0.000 A 
ATOM     24  C   UNL     1      21.674  11.643   1.484  0.00  0.00    +0.000 A 
ATOM     25  C   UNL     1      21.026  12.290   0.433  0.00  0.00    +0.004 A 
ENDBRANCH  13  20
ENDBRANCH   8  13
ENDBRANCH   7   8
ENDBRANCH   5   7
ENDBRANCH   1   3
BRANCH   1  26
ATOM     26  C   UNL     1      27.134  15.751  -2.117  0.00  0.00    +0.240 C 
BRANCH  26  27
ATOM     27  O   UNL     1      28.133  16.608  -1.616  0.00  0.00    -0.450 OA
BRANCH  27  28
ATOM     28  C   UNL     1      28.239  17.669  -0.885  0.00  0.00    +0.400 C 
ATOM     29  N   UNL     1      29.334  17.714  -0.055  0.00  0.00    -0.278 N 
ATOM     30  H   UNL     1      29.337  18.723   0.296  0.00  0.00    +0.152 HD
ATOM     31  O   UNL     1      27.476  18.633  -0.891  0.00  0.00    -0.226 OA
BRANCH  29  32
ATOM     32  C   UNL     1      30.459  17.014   0.558  0.00  0.00    +0.152 C 
BRANCH  32  33
ATOM     33  C   UNL     1      30.816  15.640  -0.045  0.00  0.00    +0.193 C 
ATOM     34  O   UNL     1      32.019  15.827  -0.822  0.00  0.00    -0.219 OA
BRANCH  33  35
ATOM     35  C   UNL     1      31.163  14.497   0.934  0.00  0.00    +0.212 C 
ATOM     36  O   UNL     1      31.033  14.944   2.293  0.00  0.00    -0.218 OA
BRANCH  35  37
ATOM     37  C   UNL     1      30.269  13.213   0.738  0.00  0.00    +0.171 C 
ATOM     38  O   UNL     1      29.467  12.925   1.879  0.00  0.00    -0.343 OA
ATOM     39  C   UNL     1      28.773  11.728   2.072  0.00  0.00    +0.220 C 
ATOM     40  C   UNL     1      29.681  10.503   1.866  0.00  0.00    +0.076 C 
ATOM     41  C   UNL     1      30.348  10.649   0.488  0.00  0.00    +0.177 C 
ATOM     42  O   UNL     1      31.170   9.519   0.229  0.00  0.00    -0.221 OA
ATOM     43  C   UNL     1      31.170  11.974   0.427  0.00  0.00    +0.155 C 
BRANCH  43  44
ATOM     44  N   UNL     1      31.812  12.113  -0.878  0.00  0.00    -0.202 NA
ATOM     45  C   UNL     1      31.281  12.484  -2.071  0.00  0.00    +0.242 C 
ATOM     46  C   UNL     1      32.222  12.831  -3.195  0.00  0.00    +0.096 C 
ATOM     47  O   UNL     1      30.060  12.531  -2.204  0.00  0.00    -0.273 OA
ENDBRANCH  43  44
BRANCH  39  48
ATOM     48  C   UNL     1      27.413  11.619   1.191  0.00  0.00    +0.391 C 
ATOM     49  O   UNL     1      27.049  10.325   1.273  0.00  0.00    -0.243 OA
ATOM     50  O   UNL     1      27.011  12.878   0.975  0.00  0.00    -0.243 OA
ENDBRANCH  39  48
ENDBRANCH  35  37
ENDBRANCH  33  35
ENDBRANCH  32  33
ENDBRANCH  29  32
ENDBRANCH  27  28
ENDBRANCH  26  27
ENDBRANCH   1  26
TORSDOF 17
