REMARK VINA RESULT:    -7.776      2.352      4.101
REMARK INTER + INTRA:         -14.373
REMARK INTER:                 -12.938
REMARK INTRA:                  -1.435
REMARK UNBOUND:                -1.598
REMARK  Name = lig_assembled_80.pdb
REMARK  11 active torsions:
REMARK  status: ('A' for Active; 'I' for Inactive)
REMARK    1  A    between atoms: _2  and  _9
REMARK    2  A    between atoms: _6  and  _7
REMARK    3  A    between atoms: _6  and  _19
REMARK    4  A    between atoms: _19  and  _21
REMARK    5  A    between atoms: _20  and  _25
REMARK    6  A    between atoms: _21  and  _24
REMARK    7  A    between atoms: _29  and  _39
REMARK    8  A    between atoms: _31  and  _32
REMARK    9  A    between atoms: _33  and  _35
REMARK   10  A    between atoms: _35  and  _37
REMARK   11  A    between atoms: _37  and  _39
REMARK                            x       y       z     vdW  Elec       q    Type
REMARK                         _______ _______ _______ _____ _____    ______ ____
ROOT
ATOM      1  C   UNL     1      27.884  17.453  -0.717  0.00  0.00    +0.400 C 
ATOM      2  N   UNL     1      28.600  16.457  -0.095  0.00  0.00    -0.278 N 
ATOM      3  H   UNL     1      28.799  16.863   0.873  0.00  0.00    +0.152 HD
ATOM      4  O   UNL     1      27.505  18.404  -0.038  0.00  0.00    -0.226 OA
ENDROOT
BRANCH   1   5
ATOM      5  O   UNL     1      27.704  17.303  -1.988  0.00  0.00    -0.450 OA
BRANCH   5   6
ATOM      6  C   UNL     1      26.731  17.577  -2.969  0.00  0.00    +0.240 C 
BRANCH   6   7
ATOM      7  C   UNL     1      26.734  16.704  -4.238  0.00  0.00    +0.100 C 
BRANCH   7   9
ATOM      8  N   UNL     1      25.176  15.097  -5.268  0.00  0.00    -0.134 NA
ATOM      9  C   UNL     1      25.715  15.640  -4.134  0.00  0.00    +0.086 A 
ATOM     10  C   UNL     1      25.163  15.036  -3.027  0.00  0.00    +0.134 A 
ATOM     11  N   UNL     1      24.246  14.167  -3.555  0.00  0.00    -0.240 N 
ATOM     12  N   UNL     1      24.287  14.183  -4.905  0.00  0.00    -0.065 NA
BRANCH  11  13
ATOM     13  C   UNL     1      23.414  13.160  -2.886  0.00  0.00    +0.195 C 
ATOM     14  C   UNL     1      24.323  12.243  -2.079  0.00  0.00    +0.041 C 
ATOM     15  C   UNL     1      23.575  11.017  -1.602  0.00  0.00    +0.039 C 
ATOM     16  C   UNL     1      22.861  11.323  -0.321  0.00  0.00    -0.026 A 
ATOM     17  C   UNL     1      21.826  12.257  -0.243  0.00  0.00    +0.037 A 
ATOM     18  C   UNL     1      21.124  12.401   0.965  0.00  0.00    +0.023 A 
ATOM     19  C   UNL     1      21.518  11.717   2.114  0.00  0.00    +0.002 A 
ATOM     20  C   UNL     1      22.595  10.844   2.056  0.00  0.00    +0.000 A 
ATOM     21  N   UNL     1      21.453  13.154  -1.258  0.00  0.00    -0.284 N 
ATOM     22  H   UNL     1      20.657  13.743  -1.032  0.00  0.00    +0.155 HD
ATOM     23  C   UNL     1      23.244  10.629   0.842  0.00  0.00    +0.005 A 
ATOM     24  C   UNL     1      22.225  13.800  -2.181  0.00  0.00    +0.242 C 
ATOM     25  O   UNL     1      21.820  14.927  -2.493  0.00  0.00    -0.273 OA
ENDBRANCH  11  13
ENDBRANCH   7   9
ENDBRANCH   6   7
ENDBRANCH   5   6
ENDBRANCH   1   5
BRANCH   2  26
ATOM     26  C   UNL     1      29.183  15.119  -0.158  0.00  0.00    +0.152 C 
BRANCH  26  27
ATOM     27  C   UNL     1      30.717  15.039  -0.009  0.00  0.00    +0.193 C 
ATOM     28  O   UNL     1      31.044  15.659   1.254  0.00  0.00    -0.219 OA
BRANCH  27  29
ATOM     29  C   UNL     1      31.354  13.635   0.074  0.00  0.00    +0.212 C 
ATOM     30  O   UNL     1      30.406  12.629  -0.317  0.00  0.00    -0.218 OA
BRANCH  29  31
ATOM     31  C   UNL     1      32.646  13.482  -0.816  0.00  0.00    +0.171 C 
ATOM     32  O   UNL     1      32.403  12.752  -2.014  0.00  0.00    -0.343 OA
ATOM     33  C   UNL     1      33.405  12.264  -2.856  0.00  0.00    +0.220 C 
ATOM     34  C   UNL     1      34.468  11.469  -2.078  0.00  0.00    +0.076 C 
ATOM     35  C   UNL     1      34.966  12.363  -0.930  0.00  0.00    +0.177 C 
ATOM     36  O   UNL     1      35.982  11.689  -0.201  0.00  0.00    -0.221 OA
ATOM     37  C   UNL     1      33.775  12.764  -0.005  0.00  0.00    +0.155 C 
BRANCH  37  38
ATOM     38  N   UNL     1      34.245  13.608   1.090  0.00  0.00    -0.202 NA
ATOM     39  C   UNL     1      34.145  13.425   2.431  0.00  0.00    +0.242 C 
ATOM     40  C   UNL     1      34.973  14.299   3.336  0.00  0.00    +0.096 C 
ATOM     41  O   UNL     1      33.390  12.559   2.872  0.00  0.00    -0.273 OA
ENDBRANCH  37  38
BRANCH  33  42
ATOM     42  C   UNL     1      34.081  13.409  -3.789  0.00  0.00    +0.391 C 
ATOM     43  O   UNL     1      35.241  12.872  -4.213  0.00  0.00    -0.243 OA
ATOM     44  O   UNL     1      33.118  14.308  -4.027  0.00  0.00    -0.243 OA
ENDBRANCH  33  42
ENDBRANCH  29  31
ENDBRANCH  27  29
ENDBRANCH  26  27
ENDBRANCH   2  26
TORSDOF 11
