REMARK VINA RESULT:    -6.575      2.214      3.637
REMARK INTER + INTRA:         -12.568
REMARK INTER:                 -10.325
REMARK INTRA:                  -2.243
REMARK UNBOUND:                -1.188
REMARK  Name = lig_assembled_35.pdb
REMARK  14 active torsions:
REMARK  status: ('A' for Active; 'I' for Inactive)
REMARK    1  A    between atoms: _2  and  _8
REMARK    2  A    between atoms: _4  and  _8
REMARK    3  A    between atoms: _4  and  _10
REMARK    4  A    between atoms: _5  and  _6
REMARK    5  A    between atoms: _5  and  _12
REMARK    6  A    between atoms: _8  and  _9
REMARK    7  A    between atoms: _12  and  _14
REMARK    8  A    between atoms: _13  and  _18
REMARK    9  A    between atoms: _14  and  _17
REMARK   10  A    between atoms: _22  and  _32
REMARK   11  A    between atoms: _24  and  _25
REMARK   12  A    between atoms: _26  and  _28
REMARK   13  A    between atoms: _28  and  _30
REMARK   14  A    between atoms: _30  and  _32
REMARK                            x       y       z     vdW  Elec       q    Type
REMARK                         _______ _______ _______ _____ _____    ______ ____
ROOT
ATOM      1  C   UNL     1      28.551  14.843   1.022  0.00  0.00    +0.152 C 
ENDROOT
BRANCH   1   3
ATOM      2  C   UNL     1      27.633  12.542   2.166  0.00  0.00    +0.400 C 
ATOM      3  N   UNL     1      28.367  13.665   1.866  0.00  0.00    -0.278 N 
ATOM      4  H   UNL     1      29.164  13.637   2.578  0.00  0.00    +0.152 HD
ATOM      5  O   UNL     1      28.105  11.738   2.966  0.00  0.00    -0.226 OA
BRANCH   2   6
ATOM      6  O   UNL     1      26.480  12.456   1.588  0.00  0.00    -0.450 OA
BRANCH   6   7
ATOM      7  C   UNL     1      25.888  11.829   0.475  0.00  0.00    +0.240 C 
BRANCH   7   8
ATOM      8  C   UNL     1      26.707  11.772  -0.829  0.00  0.00    +0.100 C 
BRANCH   8  10
ATOM      9  N   UNL     1      25.192  13.602  -1.522  0.00  0.00    -0.134 NA
ATOM     10  C   UNL     1      26.361  12.910  -1.701  0.00  0.00    +0.086 A 
ATOM     11  C   UNL     1      27.049  13.459  -2.760  0.00  0.00    +0.134 A 
ATOM     12  N   UNL     1      26.255  14.488  -3.173  0.00  0.00    -0.238 N 
ATOM     13  N   UNL     1      25.131  14.556  -2.439  0.00  0.00    -0.065 NA
BRANCH  12  14
ATOM     14  C   UNL     1      26.451  15.433  -4.255  0.00  0.00    +0.214 C 
ATOM     15  C   UNL     1      25.509  15.134  -5.418  0.00  0.00    +0.045 C 
BRANCH  14  16
ATOM     16  C   UNL     1      26.327  16.863  -3.772  0.00  0.00    +0.329 C 
ATOM     17  O   UNL     1      27.270  17.555  -3.410  0.00  0.00    -0.249 OA
BRANCH  16  18
ATOM     18  O   UNL     1      25.057  17.335  -3.741  0.00  0.00    -0.479 OA
ATOM     19  H   UNL     1      24.813  17.850  -2.945  0.00  0.00    +0.295 HD
ENDBRANCH  16  18
ENDBRANCH  14  16
ENDBRANCH  12  14
ENDBRANCH   8  10
ENDBRANCH   7   8
ENDBRANCH   6   7
ENDBRANCH   2   6
ENDBRANCH   1   3
BRANCH   1  20
ATOM     20  C   UNL     1      29.583  14.709  -0.116  0.00  0.00    +0.193 C 
ATOM     21  O   UNL     1      29.126  15.557  -1.193  0.00  0.00    -0.219 OA
BRANCH  20  22
ATOM     22  C   UNL     1      31.024  15.188   0.166  0.00  0.00    +0.212 C 
ATOM     23  O   UNL     1      31.008  16.450   0.853  0.00  0.00    -0.218 OA
BRANCH  22  24
ATOM     24  C   UNL     1      31.868  14.163   1.015  0.00  0.00    +0.171 C 
ATOM     25  O   UNL     1      32.146  14.638   2.328  0.00  0.00    -0.343 OA
ATOM     26  C   UNL     1      33.067  14.051   3.200  0.00  0.00    +0.220 C 
ATOM     27  C   UNL     1      34.433  13.833   2.524  0.00  0.00    +0.076 C 
ATOM     28  C   UNL     1      34.185  13.053   1.223  0.00  0.00    +0.177 C 
ATOM     29  O   UNL     1      35.423  12.788   0.577  0.00  0.00    -0.221 OA
ATOM     30  C   UNL     1      33.219  13.851   0.293  0.00  0.00    +0.155 C 
BRANCH  30  31
ATOM     31  N   UNL     1      32.987  13.116  -0.948  0.00  0.00    -0.202 NA
ATOM     32  C   UNL     1      33.181  13.502  -2.235  0.00  0.00    +0.242 C 
ATOM     33  C   UNL     1      33.142  12.449  -3.311  0.00  0.00    +0.096 C 
ATOM     34  O   UNL     1      33.383  14.688  -2.489  0.00  0.00    -0.273 OA
ENDBRANCH  30  31
BRANCH  26  35
ATOM     35  C   UNL     1      32.522  12.690   3.897  0.00  0.00    +0.391 C 
ATOM     36  O   UNL     1      33.604  12.141   4.483  0.00  0.00    -0.243 OA
ATOM     37  O   UNL     1      31.186  12.779   3.889  0.00  0.00    -0.243 OA
ENDBRANCH  26  35
ENDBRANCH  22  24
ENDBRANCH  20  22
ENDBRANCH   1  20
TORSDOF 13
