REMARK VINA RESULT:    -6.615      2.161      4.577
REMARK INTER + INTRA:         -13.823
REMARK INTER:                 -12.029
REMARK INTRA:                  -1.794
REMARK UNBOUND:                -1.794
REMARK  Name = lig_assembled_18.pdb
REMARK  14 active torsions:
REMARK  status: ('A' for Active; 'I' for Inactive)
REMARK    1  A    between atoms: _2  and  _9
REMARK    2  A    between atoms: _3  and  _11
REMARK    3  A    between atoms: _6  and  _7
REMARK    4  A    between atoms: _6  and  _16
REMARK    5  A    between atoms: _9  and  _10
REMARK    6  A    between atoms: _11  and  _12
REMARK    7  A    between atoms: _16  and  _18
REMARK    8  A    between atoms: _17  and  _22
REMARK    9  A    between atoms: _18  and  _21
REMARK   10  A    between atoms: _26  and  _36
REMARK   11  A    between atoms: _28  and  _29
REMARK   12  A    between atoms: _30  and  _32
REMARK   13  A    between atoms: _32  and  _34
REMARK   14  A    between atoms: _34  and  _36
REMARK                            x       y       z     vdW  Elec       q    Type
REMARK                         _______ _______ _______ _____ _____    ______ ____
ROOT
ATOM      1  C   UNL     1      30.077  14.742  -0.425  0.00  0.00    +0.400 C 
ATOM      2  N   UNL     1      30.846  14.383   0.658  0.00  0.00    -0.278 N 
ATOM      3  H   UNL     1      30.884  13.317   0.590  0.00  0.00    +0.152 HD
ATOM      4  O   UNL     1      29.797  13.875  -1.249  0.00  0.00    -0.226 OA
ENDROOT
BRANCH   2   5
ATOM      5  C   UNL     1      31.626  14.795   1.822  0.00  0.00    +0.152 C 
BRANCH   5   6
ATOM      6  C   UNL     1      32.345  13.669   2.591  0.00  0.00    +0.193 C 
ATOM      7  O   UNL     1      31.341  13.003   3.388  0.00  0.00    -0.219 OA
BRANCH   6   8
ATOM      8  C   UNL     1      32.993  12.537   1.763  0.00  0.00    +0.212 C 
ATOM      9  O   UNL     1      32.028  11.513   1.473  0.00  0.00    -0.218 OA
BRANCH   8  10
ATOM     10  C   UNL     1      33.621  13.037   0.406  0.00  0.00    +0.171 C 
ATOM     11  O   UNL     1      32.780  12.780  -0.714  0.00  0.00    -0.343 OA
ATOM     12  C   UNL     1      33.185  12.894  -2.046  0.00  0.00    +0.220 C 
ATOM     13  C   UNL     1      34.496  12.134  -2.311  0.00  0.00    +0.076 C 
ATOM     14  C   UNL     1      35.527  12.617  -1.277  0.00  0.00    +0.177 C 
ATOM     15  O   UNL     1      36.773  11.972  -1.503  0.00  0.00    -0.221 OA
ATOM     16  C   UNL     1      35.005  12.349   0.169  0.00  0.00    +0.155 C 
BRANCH  16  17
ATOM     17  N   UNL     1      35.985  12.799   1.154  0.00  0.00    -0.202 NA
ATOM     18  C   UNL     1      36.691  12.083   2.065  0.00  0.00    +0.242 C 
ATOM     19  C   UNL     1      37.850  12.752   2.757  0.00  0.00    +0.096 C 
ATOM     20  O   UNL     1      36.374  10.919   2.301  0.00  0.00    -0.273 OA
ENDBRANCH  16  17
BRANCH  12  21
ATOM     21  C   UNL     1      33.270  14.431  -2.567  0.00  0.00    +0.391 C 
ATOM     22  O   UNL     1      33.289  15.177  -1.446  0.00  0.00    -0.243 OA
ATOM     23  O   UNL     1      33.587  14.364  -3.866  0.00  0.00    -0.243 OA
ENDBRANCH  12  21
ENDBRANCH   8  10
ENDBRANCH   6   8
ENDBRANCH   5   6
ENDBRANCH   2   5
BRANCH   1  24
ATOM     24  O   UNL     1      29.691  15.975  -0.453  0.00  0.00    -0.450 OA
BRANCH  24  25
ATOM     25  C   UNL     1      28.557  16.747  -0.135  0.00  0.00    +0.240 C 
BRANCH  25  26
ATOM     26  C   UNL     1      28.043  17.729  -1.205  0.00  0.00    +0.100 C 
BRANCH  26  28
ATOM     27  N   UNL     1      26.676  17.673  -3.272  0.00  0.00    -0.134 NA
ATOM     28  C   UNL     1      27.297  17.004  -2.250  0.00  0.00    +0.086 A 
ATOM     29  C   UNL     1      27.085  15.653  -2.406  0.00  0.00    +0.134 A 
ATOM     30  N   UNL     1      26.356  15.561  -3.553  0.00  0.00    -0.243 N 
ATOM     31  N   UNL     1      26.092  16.779  -4.060  0.00  0.00    -0.065 NA
BRANCH  30  32
ATOM     32  C   UNL     1      25.776  14.387  -4.162  0.00  0.00    +0.240 C 
BRANCH  32  33
ATOM     33  C   UNL     1      24.281  14.315  -3.955  0.00  0.00    +0.235 C 
ATOM     34  O   UNL     1      23.528  13.803  -4.782  0.00  0.00    -0.274 OA
ATOM     35  N   UNL     1      23.831  14.812  -2.747  0.00  0.00    -0.309 N 
ATOM     36  H   UNL     1      24.442  15.370  -2.168  0.00  0.00    +0.149 HD
BRANCH  35  37
ATOM     37  C   UNL     1      22.424  14.797  -2.401  0.00  0.00    +0.146 C 
BRANCH  37  38
ATOM     38  C   UNL     1      22.163  13.711  -1.408  0.00  0.00    +0.007 A 
ATOM     39  S   UNL     1      23.451  12.769  -0.784  0.00  0.00    -0.100 S 
ATOM     40  C   UNL     1      22.382  11.805   0.141  0.00  0.00    +0.045 A 
ATOM     41  C   UNL     1      21.070  12.199  -0.006  0.00  0.00    +0.008 A 
ATOM     42  C   UNL     1      20.945  13.305  -0.895  0.00  0.00    +0.013 A 
ENDBRANCH  37  38
ENDBRANCH  35  37
ENDBRANCH  32  33
ENDBRANCH  30  32
ENDBRANCH  26  28
ENDBRANCH  25  26
ENDBRANCH  24  25
ENDBRANCH   1  24
TORSDOF 14
