REMARK VINA RESULT:    -7.322      2.540      4.505
REMARK INTER + INTRA:         -13.448
REMARK INTER:                 -11.891
REMARK INTRA:                  -1.557
REMARK UNBOUND:                -1.418
REMARK  Name = lig_assembled_20.pdb
REMARK  11 active torsions:
REMARK  status: ('A' for Active; 'I' for Inactive)
REMARK    1  A    between atoms: _2  and  _10
REMARK    2  A    between atoms: _7  and  _8
REMARK    3  A    between atoms: _7  and  _16
REMARK    4  A    between atoms: _16  and  _18
REMARK    5  A    between atoms: _17  and  _22
REMARK    6  A    between atoms: _18  and  _21
REMARK    7  A    between atoms: _26  and  _36
REMARK    8  A    between atoms: _28  and  _29
REMARK    9  A    between atoms: _30  and  _32
REMARK   10  A    between atoms: _32  and  _34
REMARK   11  A    between atoms: _34  and  _36
REMARK                            x       y       z     vdW  Elec       q    Type
REMARK                         _______ _______ _______ _____ _____    ______ ____
ROOT
ATOM      1  C   UNL     1      26.169  16.362  -3.839  0.00  0.00    +0.400 C 
ATOM      2  N   UNL     1      27.124  16.924  -3.026  0.00  0.00    -0.278 N 
ATOM      3  H   UNL     1      28.002  16.917  -3.634  0.00  0.00    +0.152 HD
ATOM      4  O   UNL     1      26.451  16.175  -5.020  0.00  0.00    -0.226 OA
ENDROOT
BRANCH   1   5
ATOM      5  O   UNL     1      25.055  16.050  -3.262  0.00  0.00    -0.450 OA
BRANCH   5   6
ATOM      6  C   UNL     1      24.142  14.978  -3.210  0.00  0.00    +0.240 C 
BRANCH   6   7
ATOM      7  C   UNL     1      22.684  15.304  -2.833  0.00  0.00    +0.100 C 
BRANCH   7   9
ATOM      8  N   UNL     1      20.875  14.353  -1.428  0.00  0.00    -0.134 NA
ATOM      9  C   UNL     1      22.160  14.304  -1.886  0.00  0.00    +0.086 A 
ATOM     10  C   UNL     1      22.795  13.223  -1.320  0.00  0.00    +0.139 A 
ATOM     11  N   UNL     1      21.849  12.630  -0.516  0.00  0.00    -0.220 N 
ATOM     12  N   UNL     1      20.692  13.333  -0.598  0.00  0.00    -0.061 NA
BRANCH  11  13
ATOM     13  C   UNL     1      21.980  11.473   0.294  0.00  0.00    +0.068 A 
ATOM     14  C   UNL     1      21.865  11.581   1.690  0.00  0.00    +0.030 A 
ATOM     15  C   UNL     1      21.986  10.457   2.520  0.00  0.00    +0.030 A 
ATOM     16  C   UNL     1      22.225   9.227   1.899  0.00  0.00    +0.066 A 
ATOM     17  C   UNL     1      22.345   9.088   0.523  0.00  0.00    +0.021 A 
ATOM     18  C   UNL     1      22.579   7.710   0.323  0.00  0.00    +0.142 A 
ATOM     19  N   UNL     1      22.606   7.022   1.465  0.00  0.00    -0.181 NA
ATOM     20  N   UNL     1      22.387   7.962   2.402  0.00  0.00    -0.277 N 
ATOM     21  H   UNL     1      22.362   7.678   3.374  0.00  0.00    +0.189 HD
ATOM     22  C   UNL     1      22.223  10.222  -0.301  0.00  0.00    +0.039 A 
ENDBRANCH  11  13
ENDBRANCH   7   9
ENDBRANCH   6   7
ENDBRANCH   5   6
ENDBRANCH   1   5
BRANCH   2  23
ATOM     23  C   UNL     1      27.465  17.524  -1.739  0.00  0.00    +0.152 C 
BRANCH  23  24
ATOM     24  C   UNL     1      28.648  16.885  -0.983  0.00  0.00    +0.193 C 
ATOM     25  O   UNL     1      28.950  17.757   0.129  0.00  0.00    -0.219 OA
BRANCH  24  26
ATOM     26  C   UNL     1      28.419  15.501  -0.336  0.00  0.00    +0.212 C 
ATOM     27  O   UNL     1      27.562  14.697  -1.162  0.00  0.00    -0.218 OA
BRANCH  26  28
ATOM     28  C   UNL     1      29.755  14.707  -0.072  0.00  0.00    +0.171 C 
ATOM     29  O   UNL     1      30.536  14.542  -1.251  0.00  0.00    -0.343 OA
ATOM     30  C   UNL     1      31.631  13.681  -1.357  0.00  0.00    +0.220 C 
ATOM     31  C   UNL     1      31.291  12.263  -0.867  0.00  0.00    +0.076 C 
ATOM     32  C   UNL     1      30.703  12.391   0.548  0.00  0.00    +0.177 C 
ATOM     33  O   UNL     1      30.408  11.102   1.066  0.00  0.00    -0.221 OA
ATOM     34  C   UNL     1      29.433  13.297   0.523  0.00  0.00    +0.155 C 
BRANCH  34  35
ATOM     35  N   UNL     1      28.867  13.415   1.864  0.00  0.00    -0.202 NA
ATOM     36  C   UNL     1      27.684  12.960   2.351  0.00  0.00    +0.242 C 
ATOM     37  C   UNL     1      27.477  12.961   3.843  0.00  0.00    +0.096 C 
ATOM     38  O   UNL     1      26.820  12.562   1.572  0.00  0.00    -0.273 OA
ENDBRANCH  34  35
BRANCH  30  39
ATOM     39  C   UNL     1      32.975  14.253  -0.645  0.00  0.00    +0.391 C 
ATOM     40  O   UNL     1      33.477  13.207   0.039  0.00  0.00    -0.243 OA
ATOM     41  O   UNL     1      33.236  15.426  -1.236  0.00  0.00    -0.243 OA
ENDBRANCH  30  39
ENDBRANCH  26  28
ENDBRANCH  24  26
ENDBRANCH  23  24
ENDBRANCH   2  23
TORSDOF 11
