REMARK VINA RESULT:    -7.379      3.638      8.939
REMARK INTER + INTRA:         -14.100
REMARK INTER:                 -11.855
REMARK INTRA:                  -2.245
REMARK UNBOUND:                -1.544
REMARK  Name = lig_assembled_69.pdb
REMARK  13 active torsions:
REMARK  status: ('A' for Active; 'I' for Inactive)
REMARK    1  A    between atoms: _2  and  _8
REMARK    2  A    between atoms: _5  and  _6
REMARK    3  A    between atoms: _5  and  _16
REMARK    4  A    between atoms: _10  and  _15
REMARK    5  A    between atoms: _13  and  _14
REMARK    6  A    between atoms: _16  and  _18
REMARK    7  A    between atoms: _17  and  _22
REMARK    8  A    between atoms: _18  and  _21
REMARK    9  A    between atoms: _26  and  _36
REMARK   10  A    between atoms: _28  and  _29
REMARK   11  A    between atoms: _30  and  _32
REMARK   12  A    between atoms: _32  and  _34
REMARK   13  A    between atoms: _34  and  _36
REMARK                            x       y       z     vdW  Elec       q    Type
REMARK                         _______ _______ _______ _____ _____    ______ ____
ROOT
ATOM      1  C   UNL     1      31.518  12.000   0.326  0.00  0.00    +0.400 C 
ATOM      2  N   UNL     1      30.392  11.738   1.070  0.00  0.00    -0.278 N 
ATOM      3  H   UNL     1      30.445  10.683   1.235  0.00  0.00    +0.152 HD
ATOM      4  O   UNL     1      32.346  11.103   0.192  0.00  0.00    -0.226 OA
ENDROOT
BRANCH   1   5
ATOM      5  O   UNL     1      31.580  13.181  -0.197  0.00  0.00    -0.450 OA
BRANCH   5   6
ATOM      6  C   UNL     1      32.040  14.471   0.131  0.00  0.00    +0.240 C 
BRANCH   6   7
ATOM      7  C   UNL     1      31.079  15.392   0.908  0.00  0.00    +0.100 C 
BRANCH   7   9
ATOM      8  N   UNL     1      30.024  17.164  -0.454  0.00  0.00    -0.134 NA
ATOM      9  C   UNL     1      30.007  15.880   0.021  0.00  0.00    +0.086 A 
ATOM     10  C   UNL     1      28.887  15.237  -0.456  0.00  0.00    +0.134 A 
ATOM     11  N   UNL     1      28.257  16.187  -1.204  0.00  0.00    -0.248 N 
ATOM     12  N   UNL     1      28.944  17.343  -1.198  0.00  0.00    -0.065 NA
BRANCH  11  13
ATOM     13  C   UNL     1      26.978  16.080  -1.905  0.00  0.00    +0.114 C 
ATOM     14  C   UNL     1      26.598  14.617  -2.160  0.00  0.00    +0.062 C 
ATOM     15  C   UNL     1      27.194  13.973  -3.415  0.00  0.00    +0.139 C 
ATOM     16  C   UNL     1      26.660  14.454  -4.733  0.00  0.00    +0.002 C 
ATOM     17  C   UNL     1      26.035  15.609  -5.014  0.00  0.00    +0.002 C 
ATOM     18  C   UNL     1      25.836  16.789  -4.112  0.00  0.00    +0.139 C 
ATOM     19  C   UNL     1      26.967  17.021  -3.117  0.00  0.00    +0.062 C 
BRANCH  18  20
ATOM     20  O   UNL     1      24.597  16.657  -3.433  0.00  0.00    -0.388 OA
ATOM     21  H   UNL     1      24.796  16.433  -2.507  0.00  0.00    +0.210 HD
ENDBRANCH  18  20
BRANCH  15  22
ATOM     22  O   UNL     1      26.874  12.577  -3.360  0.00  0.00    -0.388 OA
ATOM     23  H   UNL     1      27.363  12.139  -4.077  0.00  0.00    +0.210 HD
ENDBRANCH  15  22
ENDBRANCH  11  13
ENDBRANCH   7   9
ENDBRANCH   6   7
ENDBRANCH   5   6
ENDBRANCH   1   5
BRANCH   2  24
ATOM     24  C   UNL     1      29.193  12.243   1.734  0.00  0.00    +0.152 C 
BRANCH  24  25
ATOM     25  C   UNL     1      29.422  13.054   3.026  0.00  0.00    +0.193 C 
ATOM     26  O   UNL     1      28.116  13.428   3.518  0.00  0.00    -0.219 OA
BRANCH  25  27
ATOM     27  C   UNL     1      30.089  12.330   4.216  0.00  0.00    +0.212 C 
ATOM     28  O   UNL     1      30.031  10.906   4.033  0.00  0.00    -0.218 OA
BRANCH  27  29
ATOM     29  C   UNL     1      31.592  12.749   4.438  0.00  0.00    +0.171 C 
ATOM     30  O   UNL     1      32.408  12.486   3.301  0.00  0.00    -0.343 OA
ATOM     31  C   UNL     1      33.804  12.531   3.306  0.00  0.00    +0.220 C 
ATOM     32  C   UNL     1      34.398  11.704   4.460  0.00  0.00    +0.076 C 
ATOM     33  C   UNL     1      33.730  12.179   5.761  0.00  0.00    +0.177 C 
ATOM     34  O   UNL     1      34.274  11.473   6.867  0.00  0.00    -0.221 OA
ATOM     35  C   UNL     1      32.184  11.991   5.672  0.00  0.00    +0.155 C 
BRANCH  35  36
ATOM     36  N   UNL     1      31.547  12.436   6.909  0.00  0.00    -0.202 NA
ATOM     37  C   UNL     1      30.881  11.717   7.848  0.00  0.00    +0.242 C 
ATOM     38  C   UNL     1      30.580  12.374   9.171  0.00  0.00    +0.096 C 
ATOM     39  O   UNL     1      30.544  10.561   7.603  0.00  0.00    -0.273 OA
ENDBRANCH  35  36
BRANCH  31  40
ATOM     40  C   UNL     1      34.403  14.041   3.284  0.00  0.00    +0.391 C 
ATOM     41  O   UNL     1      33.337  14.841   3.476  0.00  0.00    -0.243 OA
ATOM     42  O   UNL     1      35.732  13.913   3.387  0.00  0.00    -0.243 OA
ENDBRANCH  31  40
ENDBRANCH  27  29
ENDBRANCH  25  27
ENDBRANCH  24  25
ENDBRANCH   2  24
TORSDOF 13
