REMARK VINA RESULT:    -7.511      2.371      4.527
REMARK INTER + INTRA:         -14.284
REMARK INTER:                 -12.154
REMARK INTRA:                  -2.130
REMARK UNBOUND:                -1.503
REMARK  Name = lig_assembled_89.pdb
REMARK  14 active torsions:
REMARK  status: ('A' for Active; 'I' for Inactive)
REMARK    1  A    between atoms: _2  and  _11
REMARK    2  A    between atoms: _5  and  _19
REMARK    3  A    between atoms: _8  and  _9
REMARK    4  A    between atoms: _8  and  _24
REMARK    5  A    between atoms: _19  and  _20
REMARK    6  A    between atoms: _19  and  _21
REMARK    7  A    between atoms: _24  and  _26
REMARK    8  A    between atoms: _25  and  _30
REMARK    9  A    between atoms: _26  and  _29
REMARK   10  A    between atoms: _34  and  _44
REMARK   11  A    between atoms: _36  and  _37
REMARK   12  A    between atoms: _38  and  _40
REMARK   13  A    between atoms: _40  and  _42
REMARK   14  A    between atoms: _42  and  _44
REMARK                            x       y       z     vdW  Elec       q    Type
REMARK                         _______ _______ _______ _____ _____    ______ ____
ROOT
ATOM      1  C   UNL     1      32.170  14.108  -1.256  0.00  0.00    +0.240 C 
ENDROOT
BRANCH   1   2
ATOM      2  C   UNL     1      31.237  12.983  -0.768  0.00  0.00    +0.100 C 
BRANCH   2   4
ATOM      3  N   UNL     1      29.852  12.386  -2.719  0.00  0.00    -0.134 NA
ATOM      4  C   UNL     1      29.968  13.015  -1.515  0.00  0.00    +0.087 A 
ATOM      5  C   UNL     1      28.764  13.594  -1.195  0.00  0.00    +0.141 A 
ATOM      6  N   UNL     1      27.916  13.266  -2.235  0.00  0.00    -0.200 N 
ATOM      7  N   UNL     1      28.606  12.536  -3.143  0.00  0.00    -0.059 NA
BRANCH   6   8
ATOM      8  C   UNL     1      26.522  13.561  -2.298  0.00  0.00    +0.186 A 
ATOM      9  C   UNL     1      25.459  12.932  -1.681  0.00  0.00    +0.158 A 
ATOM     10  C   UNL     1      25.346  11.738  -0.902  0.00  0.00    +0.280 A 
ATOM     11  O   UNL     1      26.190  10.852  -0.932  0.00  0.00    -0.265 OA
ATOM     12  N   UNL     1      24.175  11.638  -0.122  0.00  0.00    -0.302 N 
ATOM     13  C   UNL     1      23.012  12.430  -0.453  0.00  0.00    +0.069 A 
ATOM     14  C   UNL     1      21.746  12.184   0.096  0.00  0.00    +0.028 A 
ATOM     15  C   UNL     1      20.629  12.940  -0.287  0.00  0.00    +0.002 A 
ATOM     16  C   UNL     1      20.755  13.966  -1.217  0.00  0.00    +0.002 A 
ATOM     17  C   UNL     1      21.999  14.246  -1.773  0.00  0.00    +0.028 A 
ATOM     18  C   UNL     1      23.111  13.477  -1.398  0.00  0.00    +0.072 A 
ATOM     19  N   UNL     1      24.379  13.728  -1.945  0.00  0.00    -0.291 N 
ATOM     20  C   UNL     1      24.800  14.725  -2.788  0.00  0.00    +0.207 A 
ATOM     21  N   UNL     1      26.095  14.662  -3.014  0.00  0.00    -0.216 NA
BRANCH  12  22
ATOM     22  C   UNL     1      24.110  10.563   0.896  0.00  0.00    +0.085 C 
ATOM     23  C   UNL     1      23.062   9.478   0.586  0.00  0.00    +0.030 C 
ATOM     24  C   UNL     1      23.898  11.126   2.302  0.00  0.00    +0.030 C 
ENDBRANCH  12  22
ENDBRANCH   6   8
ENDBRANCH   2   4
ENDBRANCH   1   2
BRANCH   1  25
ATOM     25  O   UNL     1      32.061  15.362  -0.624  0.00  0.00    -0.450 OA
BRANCH  25  26
ATOM     26  C   UNL     1      31.184  16.066   0.014  0.00  0.00    +0.400 C 
ATOM     27  N   UNL     1      31.139  15.870   1.374  0.00  0.00    -0.278 N 
ATOM     28  H   UNL     1      30.512  16.665   1.718  0.00  0.00    +0.152 HD
ATOM     29  O   UNL     1      30.425  16.897  -0.477  0.00  0.00    -0.226 OA
BRANCH  27  30
ATOM     30  C   UNL     1      31.542  15.075   2.531  0.00  0.00    +0.152 C 
BRANCH  30  31
ATOM     31  C   UNL     1      32.769  14.160   2.333  0.00  0.00    +0.193 C 
ATOM     32  O   UNL     1      33.730  14.530   3.346  0.00  0.00    -0.219 OA
BRANCH  31  33
ATOM     33  C   UNL     1      32.567  12.641   2.529  0.00  0.00    +0.212 C 
ATOM     34  O   UNL     1      33.794  11.936   2.281  0.00  0.00    -0.218 OA
BRANCH  33  35
ATOM     35  C   UNL     1      32.049  12.261   3.968  0.00  0.00    +0.171 C 
ATOM     36  O   UNL     1      33.014  11.536   4.723  0.00  0.00    -0.343 OA
ATOM     37  C   UNL     1      32.740  10.871   5.921  0.00  0.00    +0.220 C 
ATOM     38  C   UNL     1      31.515   9.948   5.793  0.00  0.00    +0.076 C 
ATOM     39  C   UNL     1      30.354  10.794   5.242  0.00  0.00    +0.177 C 
ATOM     40  O   UNL     1      29.183   9.997   5.142  0.00  0.00    -0.221 OA
ATOM     41  C   UNL     1      30.744  11.405   3.860  0.00  0.00    +0.155 C 
BRANCH  41  42
ATOM     42  N   UNL     1      29.642  12.204   3.330  0.00  0.00    -0.202 NA
ATOM     43  C   UNL     1      28.840  11.973   2.259  0.00  0.00    +0.242 C 
ATOM     44  C   UNL     1      27.593  12.805   2.107  0.00  0.00    +0.096 C 
ATOM     45  O   UNL     1      29.145  11.101   1.448  0.00  0.00    -0.273 OA
ENDBRANCH  41  42
BRANCH  37  46
ATOM     46  C   UNL     1      32.607  11.865   7.198  0.00  0.00    +0.391 C 
ATOM     47  O   UNL     1      32.251  11.068   8.224  0.00  0.00    -0.243 OA
ATOM     48  O   UNL     1      33.183  13.017   6.831  0.00  0.00    -0.243 OA
ENDBRANCH  37  46
ENDBRANCH  33  35
ENDBRANCH  31  33
ENDBRANCH  30  31
ENDBRANCH  27  30
ENDBRANCH  25  26
ENDBRANCH   1  25
TORSDOF 12
