REMARK VINA RESULT:    -6.340      3.540      5.974
REMARK INTER + INTRA:         -12.106
REMARK INTER:                 -10.373
REMARK INTRA:                  -1.733
REMARK UNBOUND:                -1.689
REMARK  Name = lig_assembled_49.pdb
REMARK  11 active torsions:
REMARK  status: ('A' for Active; 'I' for Inactive)
REMARK    1  A    between atoms: _2  and  _8
REMARK    2  A    between atoms: _5  and  _6
REMARK    3  A    between atoms: _5  and  _12
REMARK    4  A    between atoms: _12  and  _14
REMARK    5  A    between atoms: _13  and  _18
REMARK    6  A    between atoms: _14  and  _17
REMARK    7  A    between atoms: _22  and  _32
REMARK    8  A    between atoms: _24  and  _25
REMARK    9  A    between atoms: _26  and  _28
REMARK   10  A    between atoms: _28  and  _30
REMARK   11  A    between atoms: _30  and  _32
REMARK                            x       y       z     vdW  Elec       q    Type
REMARK                         _______ _______ _______ _____ _____    ______ ____
ROOT
ATOM      1  C   UNL     1      28.374  14.300   0.689  0.00  0.00    +0.152 C 
ENDROOT
BRANCH   1   3
ATOM      2  C   UNL     1      29.050  16.697  -0.427  0.00  0.00    +0.400 C 
ATOM      3  N   UNL     1      29.096  15.462   0.176  0.00  0.00    -0.278 N 
ATOM      4  H   UNL     1      30.139  15.308   0.347  0.00  0.00    +0.152 HD
ATOM      5  O   UNL     1      30.081  17.364  -0.458  0.00  0.00    -0.226 OA
BRANCH   2   6
ATOM      6  O   UNL     1      27.911  17.028  -0.940  0.00  0.00    -0.450 OA
BRANCH   6   7
ATOM      7  C   UNL     1      27.208  16.899  -2.154  0.00  0.00    +0.240 C 
BRANCH   7   8
ATOM      8  C   UNL     1      26.986  15.476  -2.700  0.00  0.00    +0.100 C 
BRANCH   8  10
ATOM      9  N   UNL     1      24.644  15.966  -3.325  0.00  0.00    -0.134 NA
ATOM     10  C   UNL     1      25.548  15.147  -2.704  0.00  0.00    +0.086 A 
ATOM     11  C   UNL     1      24.882  14.078  -2.148  0.00  0.00    +0.134 A 
ATOM     12  N   UNL     1      23.573  14.310  -2.459  0.00  0.00    -0.248 N 
ATOM     13  N   UNL     1      23.435  15.443  -3.168  0.00  0.00    -0.065 NA
BRANCH  12  14
ATOM     14  C   UNL     1      22.426  13.513  -2.095  0.00  0.00    +0.109 C 
ATOM     15  C   UNL     1      22.631  12.673  -0.833  0.00  0.00    +0.027 C 
ATOM     16  C   UNL     1      21.210  12.310  -0.434  0.00  0.00    +0.002 C 
ATOM     17  C   UNL     1      20.411  13.578  -0.705  0.00  0.00    +0.002 C 
ATOM     18  C   UNL     1      21.152  14.323  -1.818  0.00  0.00    +0.027 C 
ENDBRANCH  12  14
ENDBRANCH   8  10
ENDBRANCH   7   8
ENDBRANCH   6   7
ENDBRANCH   2   6
ENDBRANCH   1   3
BRANCH   1  19
ATOM     19  C   UNL     1      29.135  13.419   1.701  0.00  0.00    +0.193 C 
ATOM     20  O   UNL     1      30.100  14.275   2.352  0.00  0.00    -0.219 OA
BRANCH  19  21
ATOM     21  C   UNL     1      28.324  12.800   2.861  0.00  0.00    +0.212 C 
ATOM     22  O   UNL     1      27.523  13.804   3.506  0.00  0.00    -0.218 OA
BRANCH  21  23
ATOM     23  C   UNL     1      27.383  11.621   2.406  0.00  0.00    +0.171 C 
ATOM     24  O   UNL     1      26.132  12.081   1.904  0.00  0.00    -0.343 OA
ATOM     25  C   UNL     1      25.029  11.259   1.662  0.00  0.00    +0.220 C 
ATOM     26  C   UNL     1      24.704  10.370   2.875  0.00  0.00    +0.076 C 
ATOM     27  C   UNL     1      25.993   9.626   3.263  0.00  0.00    +0.177 C 
ATOM     28  O   UNL     1      25.737   8.758   4.358  0.00  0.00    -0.221 OA
ATOM     29  C   UNL     1      27.121  10.649   3.603  0.00  0.00    +0.155 C 
BRANCH  29  30
ATOM     30  N   UNL     1      28.346   9.947   3.979  0.00  0.00    -0.202 NA
ATOM     31  C   UNL     1      29.016   9.944   5.159  0.00  0.00    +0.242 C 
ATOM     32  C   UNL     1      30.085   8.904   5.371  0.00  0.00    +0.096 C 
ATOM     33  O   UNL     1      28.739  10.778   6.018  0.00  0.00    -0.273 OA
ENDBRANCH  29  30
BRANCH  25  34
ATOM     34  C   UNL     1      25.161  10.384   0.299  0.00  0.00    +0.391 C 
ATOM     35  O   UNL     1      24.159   9.486   0.364  0.00  0.00    -0.243 OA
ATOM     36  O   UNL     1      25.998  11.062  -0.496  0.00  0.00    -0.243 OA
ENDBRANCH  25  34
ENDBRANCH  21  23
ENDBRANCH  19  21
ENDBRANCH   1  19
TORSDOF 11
