REMARK VINA RESULT:    -5.708      1.997      3.332
REMARK INTER + INTRA:         -12.334
REMARK INTER:                 -10.623
REMARK INTRA:                  -1.711
REMARK UNBOUND:                -2.287
REMARK  Name = lig_assembled_67.pdb
REMARK  13 active torsions:
REMARK  status: ('A' for Active; 'I' for Inactive)
REMARK    1  A    between atoms: _2  and  _8
REMARK    2  A    between atoms: _5  and  _6
REMARK    3  A    between atoms: _5  and  _14
REMARK    4  A    between atoms: _8  and  _9
REMARK    5  A    between atoms: _9  and  _10
REMARK    6  A    between atoms: _14  and  _16
REMARK    7  A    between atoms: _15  and  _20
REMARK    8  A    between atoms: _16  and  _19
REMARK    9  A    between atoms: _24  and  _34
REMARK   10  A    between atoms: _26  and  _27
REMARK   11  A    between atoms: _28  and  _30
REMARK   12  A    between atoms: _30  and  _32
REMARK   13  A    between atoms: _32  and  _34
REMARK                            x       y       z     vdW  Elec       q    Type
REMARK                         _______ _______ _______ _____ _____    ______ ____
ROOT
ATOM      1  C   UNL     1      27.855  17.361  -0.947  0.00  0.00    +0.400 C 
ATOM      2  N   UNL     1      28.593  16.515  -0.154  0.00  0.00    -0.278 N 
ATOM      3  H   UNL     1      28.871  17.132   0.674  0.00  0.00    +0.152 HD
ATOM      4  O   UNL     1      27.545  18.460  -0.492  0.00  0.00    -0.226 OA
ENDROOT
BRANCH   2   5
ATOM      5  C   UNL     1      29.143  15.180   0.067  0.00  0.00    +0.152 C 
BRANCH   5   6
ATOM      6  C   UNL     1      30.669  15.101   0.279  0.00  0.00    +0.193 C 
ATOM      7  O   UNL     1      30.982  15.978   1.383  0.00  0.00    -0.219 OA
BRANCH   6   8
ATOM      8  C   UNL     1      31.264  13.736   0.691  0.00  0.00    +0.212 C 
ATOM      9  O   UNL     1      32.368  13.391  -0.162  0.00  0.00    -0.218 OA
BRANCH   8  10
ATOM     10  C   UNL     1      31.752  13.694   2.189  0.00  0.00    +0.171 C 
ATOM     11  O   UNL     1      33.147  13.435   2.303  0.00  0.00    -0.343 OA
ATOM     12  C   UNL     1      33.793  13.107   3.498  0.00  0.00    +0.220 C 
ATOM     13  C   UNL     1      33.082  11.957   4.233  0.00  0.00    +0.076 C 
ATOM     14  C   UNL     1      31.603  12.349   4.383  0.00  0.00    +0.177 C 
ATOM     15  O   UNL     1      30.905  11.336   5.094  0.00  0.00    -0.221 OA
ATOM     16  C   UNL     1      30.967  12.597   2.980  0.00  0.00    +0.155 C 
BRANCH  16  17
ATOM     17  N   UNL     1      29.560  12.963   3.117  0.00  0.00    -0.202 NA
ATOM     18  C   UNL     1      28.449  12.324   2.668  0.00  0.00    +0.242 C 
ATOM     19  C   UNL     1      27.109  12.760   3.201  0.00  0.00    +0.096 C 
ATOM     20  O   UNL     1      28.561  11.415   1.848  0.00  0.00    -0.273 OA
ENDBRANCH  16  17
BRANCH  12  21
ATOM     21  C   UNL     1      34.034  14.382   4.475  0.00  0.00    +0.391 C 
ATOM     22  O   UNL     1      33.810  15.461   3.700  0.00  0.00    -0.243 OA
ATOM     23  O   UNL     1      34.063  13.893   5.721  0.00  0.00    -0.243 OA
ENDBRANCH  12  21
ENDBRANCH   8  10
ENDBRANCH   6   8
ENDBRANCH   5   6
ENDBRANCH   2   5
BRANCH   1  24
ATOM     24  O   UNL     1      27.579  16.920  -2.131  0.00  0.00    -0.450 OA
BRANCH  24  25
ATOM     25  C   UNL     1      26.853  17.309  -3.273  0.00  0.00    +0.240 C 
BRANCH  25  26
ATOM     26  C   UNL     1      26.362  16.195  -4.217  0.00  0.00    +0.100 C 
BRANCH  26  28
ATOM     27  N   UNL     1      24.315  15.979  -2.844  0.00  0.00    -0.134 NA
ATOM     28  C   UNL     1      25.322  15.383  -3.557  0.00  0.00    +0.086 A 
ATOM     29  C   UNL     1      25.155  14.017  -3.517  0.00  0.00    +0.133 A 
ATOM     30  N   UNL     1      24.034  13.846  -2.762  0.00  0.00    -0.251 N 
ATOM     31  N   UNL     1      23.532  15.024  -2.357  0.00  0.00    -0.065 NA
BRANCH  30  32
ATOM     32  C   UNL     1      23.379  12.609  -2.400  0.00  0.00    +0.150 C 
BRANCH  32  33
ATOM     33  C   UNL     1      22.725  12.644  -1.020  0.00  0.00    +0.084 C 
BRANCH  33  34
ATOM     34  C   UNL     1      23.339  11.637  -0.059  0.00  0.00    +0.252 C 
ATOM     35  O   UNL     1      23.483  10.365  -0.702  0.00  0.00    -0.349 OA
ATOM     36  C   UNL     1      24.612   9.795  -0.044  0.00  0.00    +0.191 C 
ATOM     37  C   UNL     1      25.508  10.981   0.203  0.00  0.00    +0.191 C 
ATOM     38  O   UNL     1      24.623  12.088   0.385  0.00  0.00    -0.349 OA
ENDBRANCH  33  34
ENDBRANCH  32  33
ENDBRANCH  30  32
ENDBRANCH  26  28
ENDBRANCH  25  26
ENDBRANCH  24  25
ENDBRANCH   1  24
TORSDOF 13
