REMARK VINA RESULT:    -6.443      1.619      2.264
REMARK INTER + INTRA:         -14.201
REMARK INTER:                 -12.300
REMARK INTRA:                  -1.902
REMARK UNBOUND:                -2.486
REMARK  Name = lig_assembled_29.pdb
REMARK  16 active torsions:
REMARK  status: ('A' for Active; 'I' for Inactive)
REMARK    1  A    between atoms: _2  and  _8
REMARK    2  A    between atoms: _5  and  _6
REMARK    3  A    between atoms: _5  and  _18
REMARK    4  A    between atoms: _8  and  _9
REMARK    5  A    between atoms: _11  and  _17
REMARK    6  A    between atoms: _12  and  _17
REMARK    7  A    between atoms: _13  and  _16
REMARK    8  A    between atoms: _14  and  _16
REMARK    9  A    between atoms: _18  and  _20
REMARK   10  A    between atoms: _19  and  _24
REMARK   11  A    between atoms: _20  and  _23
REMARK   12  A    between atoms: _28  and  _38
REMARK   13  A    between atoms: _30  and  _31
REMARK   14  A    between atoms: _32  and  _34
REMARK   15  A    between atoms: _34  and  _36
REMARK   16  A    between atoms: _36  and  _38
REMARK                            x       y       z     vdW  Elec       q    Type
REMARK                         _______ _______ _______ _____ _____    ______ ____
ROOT
ATOM      1  C   UNL     1      29.105  17.091  -0.457  0.00  0.00    +0.400 C 
ATOM      2  N   UNL     1      29.145  15.831   0.092  0.00  0.00    -0.278 N 
ATOM      3  H   UNL     1      29.892  15.916   0.852  0.00  0.00    +0.152 HD
ATOM      4  O   UNL     1      29.725  17.989   0.108  0.00  0.00    -0.226 OA
ENDROOT
BRANCH   2   5
ATOM      5  C   UNL     1      28.627  14.466   0.113  0.00  0.00    +0.152 C 
BRANCH   5   6
ATOM      6  C   UNL     1      29.384  13.438  -0.753  0.00  0.00    +0.193 C 
ATOM      7  O   UNL     1      29.053  13.730  -2.129  0.00  0.00    -0.219 OA
BRANCH   6   8
ATOM      8  C   UNL     1      30.928  13.470  -0.713  0.00  0.00    +0.212 C 
ATOM      9  O   UNL     1      31.413  14.771  -1.080  0.00  0.00    -0.218 OA
BRANCH   8  10
ATOM     10  C   UNL     1      31.524  13.089   0.695  0.00  0.00    +0.171 C 
ATOM     11  O   UNL     1      30.940  13.836   1.758  0.00  0.00    -0.343 OA
ATOM     12  C   UNL     1      31.442  13.878   3.060  0.00  0.00    +0.220 C 
ATOM     13  C   UNL     1      32.945  14.205   3.082  0.00  0.00    +0.076 C 
ATOM     14  C   UNL     1      33.650  13.207   2.149  0.00  0.00    +0.177 C 
ATOM     15  O   UNL     1      35.051  13.440   2.164  0.00  0.00    -0.221 OA
ATOM     16  C   UNL     1      33.071  13.320   0.705  0.00  0.00    +0.155 C 
BRANCH  16  17
ATOM     17  N   UNL     1      33.742  12.378  -0.186  0.00  0.00    -0.202 NA
ATOM     18  C   UNL     1      34.580  12.615  -1.228  0.00  0.00    +0.242 C 
ATOM     19  C   UNL     1      35.365  11.459  -1.792  0.00  0.00    +0.096 C 
ATOM     20  O   UNL     1      34.680  13.753  -1.680  0.00  0.00    -0.273 OA
ENDBRANCH  16  17
BRANCH  12  21
ATOM     21  C   UNL     1      31.109  12.544   3.926  0.00  0.00    +0.391 C 
ATOM     22  O   UNL     1      31.969  12.578   4.962  0.00  0.00    -0.243 OA
ATOM     23  O   UNL     1      29.937  12.088   3.466  0.00  0.00    -0.243 OA
ENDBRANCH  12  21
ENDBRANCH   8  10
ENDBRANCH   6   8
ENDBRANCH   5   6
ENDBRANCH   2   5
BRANCH   1  24
ATOM     24  O   UNL     1      28.431  17.203  -1.554  0.00  0.00    -0.450 OA
BRANCH  24  25
ATOM     25  C   UNL     1      27.147  17.592  -1.983  0.00  0.00    +0.240 C 
BRANCH  25  26
ATOM     26  C   UNL     1      26.815  17.421  -3.478  0.00  0.00    +0.100 C 
BRANCH  26  28
ATOM     27  N   UNL     1      25.839  15.708  -4.983  0.00  0.00    -0.134 NA
ATOM     28  C   UNL     1      26.220  16.093  -3.725  0.00  0.00    +0.086 A 
ATOM     29  C   UNL     1      25.978  15.064  -2.846  0.00  0.00    +0.134 A 
ATOM     30  N   UNL     1      25.537  14.049  -3.644  0.00  0.00    -0.247 N 
ATOM     31  N   UNL     1      25.410  14.454  -4.920  0.00  0.00    -0.065 NA
BRANCH  30  32
ATOM     32  C   UNL     1      25.268  12.671  -3.275  0.00  0.00    +0.180 C 
BRANCH  32  33
ATOM     33  C   UNL     1      24.251  12.604  -2.159  0.00  0.00    -0.022 A 
ATOM     34  C   UNL     1      23.035  13.302  -2.265  0.00  0.00    +0.054 A 
ATOM     35  C   UNL     1      22.051  13.186  -1.273  0.00  0.00    +0.162 A 
ATOM     36  C   UNL     1      22.287  12.366  -0.151  0.00  0.00    +0.162 A 
ATOM     37  C   UNL     1      23.497  11.673  -0.047  0.00  0.00    +0.050 A 
ATOM     38  C   UNL     1      24.472  11.792  -1.041  0.00  0.00    +0.009 A 
BRANCH  36  39
ATOM     39  O   UNL     1      21.278  12.308   0.780  0.00  0.00    -0.491 OA
ATOM     40  C   UNL     1      21.573  11.716   2.036  0.00  0.00    +0.277 C 
ENDBRANCH  36  39
BRANCH  35  41
ATOM     41  O   UNL     1      20.833  13.817  -1.314  0.00  0.00    -0.491 OA
ATOM     42  C   UNL     1      20.436  14.415  -2.541  0.00  0.00    +0.277 C 
ENDBRANCH  35  41
ENDBRANCH  32  33
ENDBRANCH  30  32
ENDBRANCH  26  28
ENDBRANCH  25  26
ENDBRANCH  24  25
ENDBRANCH   1  24
TORSDOF 14
