REMARK VINA RESULT:    -6.857      3.698      7.887
REMARK INTER + INTRA:         -13.435
REMARK INTER:                 -11.062
REMARK INTRA:                  -2.373
REMARK UNBOUND:                -2.168
REMARK  Name = lig_assembled_86.pdb
REMARK  12 active torsions:
REMARK  status: ('A' for Active; 'I' for Inactive)
REMARK    1  A    between atoms: _2  and  _9
REMARK    2  A    between atoms: _3  and  _12
REMARK    3  A    between atoms: _6  and  _7
REMARK    4  A    between atoms: _6  and  _16
REMARK    5  A    between atoms: _16  and  _18
REMARK    6  A    between atoms: _17  and  _22
REMARK    7  A    between atoms: _18  and  _21
REMARK    8  A    between atoms: _26  and  _36
REMARK    9  A    between atoms: _28  and  _29
REMARK   10  A    between atoms: _30  and  _32
REMARK   11  A    between atoms: _32  and  _34
REMARK   12  A    between atoms: _34  and  _36
REMARK                            x       y       z     vdW  Elec       q    Type
REMARK                         _______ _______ _______ _____ _____    ______ ____
ROOT
ATOM      1  C   UNL     1      27.823  17.878  -1.023  0.00  0.00    +0.400 C 
ATOM      2  N   UNL     1      27.117  17.643  -2.179  0.00  0.00    -0.278 N 
ATOM      3  H   UNL     1      26.122  17.941  -1.926  0.00  0.00    +0.152 HD
ATOM      4  O   UNL     1      27.264  18.492  -0.117  0.00  0.00    -0.226 OA
ENDROOT
BRANCH   1   5
ATOM      5  O   UNL     1      29.021  17.394  -0.990  0.00  0.00    -0.450 OA
BRANCH   5   6
ATOM      6  C   UNL     1      30.118  17.314  -0.110  0.00  0.00    +0.240 C 
BRANCH   6   7
ATOM      7  C   UNL     1      30.881  15.977  -0.044  0.00  0.00    +0.100 C 
BRANCH   7   9
ATOM      8  N   UNL     1      30.649  14.419   1.871  0.00  0.00    -0.134 NA
ATOM      9  C   UNL     1      30.117  14.993   0.746  0.00  0.00    +0.086 A 
ATOM     10  C   UNL     1      28.846  14.506   0.554  0.00  0.00    +0.134 A 
ATOM     11  N   UNL     1      28.649  13.671   1.611  0.00  0.00    -0.248 N 
ATOM     12  N   UNL     1      29.745  13.595   2.385  0.00  0.00    -0.065 NA
BRANCH  11  13
ATOM     13  C   UNL     1      27.440  12.929   1.937  0.00  0.00    +0.112 C 
ATOM     14  C   UNL     1      27.068  11.921   0.831  0.00  0.00    +0.045 C 
ATOM     15  C   UNL     1      26.696  10.525   1.337  0.00  0.00    +0.059 C 
ATOM     16  C   UNL     1      27.945   9.733   1.743  0.00  0.00    +0.020 C 
ATOM     17  C   UNL     1      28.089   9.984   3.242  0.00  0.00    +0.020 C 
ATOM     18  C   UNL     1      26.964  10.967   3.576  0.00  0.00    +0.059 C 
ATOM     19  N   UNL     1      25.955  10.559   2.598  0.00  0.00    -0.299 NA
ATOM     20  C   UNL     1      24.711  11.304   2.605  0.00  0.00    +0.105 C 
ATOM     21  C   UNL     1      27.422  12.420   3.397  0.00  0.00    +0.045 C 
ENDBRANCH  11  13
ENDBRANCH   7   9
ENDBRANCH   6   7
ENDBRANCH   5   6
ENDBRANCH   1   5
BRANCH   2  22
ATOM     22  C   UNL     1      27.119  17.193  -3.569  0.00  0.00    +0.152 C 
BRANCH  22  23
ATOM     23  C   UNL     1      26.090  16.103  -3.931  0.00  0.00    +0.193 C 
ATOM     24  O   UNL     1      26.156  15.929  -5.364  0.00  0.00    -0.219 OA
BRANCH  23  25
ATOM     25  C   UNL     1      26.318  14.686  -3.361  0.00  0.00    +0.212 C 
ATOM     26  O   UNL     1      27.128  14.747  -2.175  0.00  0.00    -0.218 OA
BRANCH  25  27
ATOM     27  C   UNL     1      24.980  13.927  -3.018  0.00  0.00    +0.171 C 
ATOM     28  O   UNL     1      24.145  14.664  -2.131  0.00  0.00    -0.343 OA
ATOM     29  C   UNL     1      23.029  14.136  -1.477  0.00  0.00    +0.220 C 
ATOM     30  C   UNL     1      23.361  12.817  -0.757  0.00  0.00    +0.076 C 
ATOM     31  C   UNL     1      24.012  11.879  -1.787  0.00  0.00    +0.177 C 
ATOM     32  O   UNL     1      24.304  10.628  -1.182  0.00  0.00    -0.221 OA
ATOM     33  C   UNL     1      25.299  12.538  -2.376  0.00  0.00    +0.155 C 
BRANCH  33  34
ATOM     34  N   UNL     1      25.924  11.647  -3.349  0.00  0.00    -0.202 NA
ATOM     35  C   UNL     1      27.169  11.104  -3.355  0.00  0.00    +0.242 C 
ATOM     36  C   UNL     1      27.457   9.987  -4.323  0.00  0.00    +0.096 C 
ATOM     37  O   UNL     1      28.021  11.531  -2.579  0.00  0.00    -0.273 OA
ENDBRANCH  33  34
BRANCH  29  38
ATOM     38  C   UNL     1      21.729  13.980  -2.439  0.00  0.00    +0.391 C 
ATOM     39  O   UNL     1      21.962  14.808  -3.476  0.00  0.00    -0.243 OA
ATOM     40  O   UNL     1      21.077  12.893  -2.007  0.00  0.00    -0.243 OA
ENDBRANCH  29  38
ENDBRANCH  25  27
ENDBRANCH  23  25
ENDBRANCH  22  23
ENDBRANCH   2  22
TORSDOF 11
