REMARK VINA RESULT:    -6.653      3.346      7.221
REMARK INTER + INTRA:         -12.930
REMARK INTER:                 -10.725
REMARK INTRA:                  -2.205
REMARK UNBOUND:                -1.999
REMARK  Name = lig_assembled_57.pdb
REMARK  12 active torsions:
REMARK  status: ('A' for Active; 'I' for Inactive)
REMARK    1  A    between atoms: _2  and  _9
REMARK    2  A    between atoms: _3  and  _12
REMARK    3  A    between atoms: _6  and  _7
REMARK    4  A    between atoms: _6  and  _14
REMARK    5  A    between atoms: _14  and  _16
REMARK    6  A    between atoms: _15  and  _20
REMARK    7  A    between atoms: _16  and  _19
REMARK    8  A    between atoms: _24  and  _34
REMARK    9  A    between atoms: _26  and  _27
REMARK   10  A    between atoms: _28  and  _30
REMARK   11  A    between atoms: _30  and  _32
REMARK   12  A    between atoms: _32  and  _34
REMARK                            x       y       z     vdW  Elec       q    Type
REMARK                         _______ _______ _______ _____ _____    ______ ____
ROOT
ATOM      1  C   UNL     1      29.017  17.143  -0.430  0.00  0.00    +0.400 C 
ATOM      2  N   UNL     1      28.935  15.984   0.306  0.00  0.00    -0.278 N 
ATOM      3  H   UNL     1      29.633  16.145   1.099  0.00  0.00    +0.152 HD
ATOM      4  O   UNL     1      29.656  18.082   0.038  0.00  0.00    -0.226 OA
ENDROOT
BRANCH   1   5
ATOM      5  O   UNL     1      28.427  17.119  -1.580  0.00  0.00    -0.450 OA
BRANCH   5   6
ATOM      6  C   UNL     1      27.168  17.412  -2.141  0.00  0.00    +0.240 C 
BRANCH   6   7
ATOM      7  C   UNL     1      27.022  17.276  -3.668  0.00  0.00    +0.100 C 
BRANCH   7   9
ATOM      8  N   UNL     1      25.958  15.614  -5.153  0.00  0.00    -0.134 NA
ATOM      9  C   UNL     1      25.941  16.328  -3.988  0.00  0.00    +0.086 A 
ATOM     10  C   UNL     1      24.824  15.974  -3.260  0.00  0.00    +0.134 A 
ATOM     11  N   UNL     1      24.250  14.978  -3.992  0.00  0.00    -0.248 N 
ATOM     12  N   UNL     1      24.900  14.819  -5.164  0.00  0.00    -0.065 NA
BRANCH  11  13
ATOM     13  C   UNL     1      23.150  14.073  -3.680  0.00  0.00    +0.111 C 
ATOM     14  C   UNL     1      23.514  12.627  -4.048  0.00  0.00    +0.042 C 
ATOM     15  C   UNL     1      24.502  12.050  -3.037  0.00  0.00    +0.086 C 
ATOM     16  N   UNL     1      23.984  12.054  -1.664  0.00  0.00    -0.305 NA
ATOM     17  C   UNL     1      23.538  13.381  -1.237  0.00  0.00    +0.086 C 
ATOM     18  C   UNL     1      22.978  11.020  -1.448  0.00  0.00    +0.104 C 
ATOM     19  C   UNL     1      22.627  14.111  -2.235  0.00  0.00    +0.042 C 
ENDBRANCH  11  13
ENDBRANCH   7   9
ENDBRANCH   6   7
ENDBRANCH   5   6
ENDBRANCH   1   5
BRANCH   2  20
ATOM     20  C   UNL     1      28.326  14.669   0.493  0.00  0.00    +0.152 C 
BRANCH  20  21
ATOM     21  C   UNL     1      29.274  13.458   0.375  0.00  0.00    +0.193 C 
ATOM     22  O   UNL     1      28.553  12.315   0.885  0.00  0.00    -0.219 OA
BRANCH  21  23
ATOM     23  C   UNL     1      29.718  13.033  -1.043  0.00  0.00    +0.212 C 
ATOM     24  O   UNL     1      29.148  13.907  -2.030  0.00  0.00    -0.218 OA
BRANCH  23  25
ATOM     25  C   UNL     1      31.283  13.016  -1.228  0.00  0.00    +0.171 C 
ATOM     26  O   UNL     1      31.890  14.255  -0.878  0.00  0.00    -0.343 OA
ATOM     27  C   UNL     1      33.212  14.596  -1.172  0.00  0.00    +0.220 C 
ATOM     28  C   UNL     1      33.547  14.359  -2.655  0.00  0.00    +0.076 C 
ATOM     29  C   UNL     1      33.162  12.908  -2.990  0.00  0.00    +0.177 C 
ATOM     30  O   UNL     1      33.488  12.624  -4.343  0.00  0.00    -0.221 OA
ATOM     31  C   UNL     1      31.645  12.676  -2.711  0.00  0.00    +0.155 C 
BRANCH  31  32
ATOM     32  N   UNL     1      31.274  11.301  -3.035  0.00  0.00    -0.202 NA
ATOM     33  C   UNL     1      30.427  10.831  -3.986  0.00  0.00    +0.242 C 
ATOM     34  C   UNL     1      30.451   9.358  -4.300  0.00  0.00    +0.096 C 
ATOM     35  O   UNL     1      29.670  11.609  -4.563  0.00  0.00    -0.273 OA
ENDBRANCH  31  32
BRANCH  27  36
ATOM     36  C   UNL     1      34.297  13.883  -0.194  0.00  0.00    +0.391 C 
ATOM     37  O   UNL     1      35.463  13.942  -0.867  0.00  0.00    -0.243 OA
ATOM     38  O   UNL     1      33.707  13.784   1.003  0.00  0.00    -0.243 OA
ENDBRANCH  27  36
ENDBRANCH  23  25
ENDBRANCH  21  23
ENDBRANCH  20  21
ENDBRANCH   2  20
TORSDOF 11
