REMARK VINA RESULT:    -7.112      1.167      3.395
REMARK INTER + INTRA:         -13.877
REMARK INTER:                 -12.626
REMARK INTRA:                  -1.250
REMARK UNBOUND:                -2.191
REMARK  Name = lig_assembled_93.pdb
REMARK  11 active torsions:
REMARK  status: ('A' for Active; 'I' for Inactive)
REMARK    1  A    between atoms: _2  and  _8
REMARK    2  A    between atoms: _5  and  _6
REMARK    3  A    between atoms: _5  and  _13
REMARK    4  A    between atoms: _13  and  _15
REMARK    5  A    between atoms: _14  and  _19
REMARK    6  A    between atoms: _15  and  _18
REMARK    7  A    between atoms: _23  and  _33
REMARK    8  A    between atoms: _25  and  _26
REMARK    9  A    between atoms: _27  and  _29
REMARK   10  A    between atoms: _29  and  _31
REMARK   11  A    between atoms: _31  and  _33
REMARK                            x       y       z     vdW  Elec       q    Type
REMARK                         _______ _______ _______ _____ _____    ______ ____
ROOT
ATOM      1  C   UNL     1      27.713  17.542  -0.948  0.00  0.00    +0.400 C 
ATOM      2  N   UNL     1      28.340  16.664  -0.096  0.00  0.00    -0.278 N 
ATOM      3  H   UNL     1      28.582  17.271   0.750  0.00  0.00    +0.152 HD
ATOM      4  O   UNL     1      27.425  18.657  -0.521  0.00  0.00    -0.226 OA
ENDROOT
BRANCH   1   5
ATOM      5  O   UNL     1      27.511  17.109  -2.149  0.00  0.00    -0.450 OA
BRANCH   5   6
ATOM      6  C   UNL     1      26.755  17.439  -3.291  0.00  0.00    +0.240 C 
BRANCH   6   7
ATOM      7  C   UNL     1      26.571  16.347  -4.362  0.00  0.00    +0.100 C 
BRANCH   7   9
ATOM      8  N   UNL     1      24.768  14.815  -5.061  0.00  0.00    -0.134 NA
ATOM      9  C   UNL     1      25.350  15.567  -4.091  0.00  0.00    +0.086 A 
ATOM     10  C   UNL     1      24.620  15.438  -2.931  0.00  0.00    +0.139 A 
ATOM     11  N   UNL     1      23.588  14.565  -3.237  0.00  0.00    -0.219 N 
ATOM     12  N   UNL     1      23.707  14.221  -4.538  0.00  0.00    -0.061 NA
BRANCH  11  13
ATOM     13  C   UNL     1      22.562  14.072  -2.370  0.00  0.00    +0.080 A 
ATOM     14  C   UNL     1      22.934  13.119  -1.392  0.00  0.00    +0.029 A 
ATOM     15  C   UNL     1      22.001  12.563  -0.512  0.00  0.00    +0.002 A 
ATOM     16  C   UNL     1      20.671  12.944  -0.583  0.00  0.00    +0.001 A 
ATOM     17  C   UNL     1      20.278  13.885  -1.532  0.00  0.00    +0.016 A 
ATOM     18  C   UNL     1      21.206  14.457  -2.427  0.00  0.00    +0.039 A 
ATOM     19  I   UNL     1      20.305  15.853  -3.739  0.00  0.00    -0.042 I 
ENDBRANCH  11  13
ENDBRANCH   7   9
ENDBRANCH   6   7
ENDBRANCH   5   6
ENDBRANCH   1   5
BRANCH   2  20
ATOM     20  C   UNL     1      28.801  15.304   0.171  0.00  0.00    +0.152 C 
BRANCH  20  21
ATOM     21  C   UNL     1      30.206  14.947  -0.356  0.00  0.00    +0.193 C 
ATOM     22  O   UNL     1      30.898  16.196  -0.574  0.00  0.00    -0.219 OA
BRANCH  21  23
ATOM     23  C   UNL     1      31.139  14.148   0.581  0.00  0.00    +0.212 C 
ATOM     24  O   UNL     1      30.496  12.942   1.021  0.00  0.00    -0.218 OA
BRANCH  23  25
ATOM     25  C   UNL     1      32.517  13.770  -0.084  0.00  0.00    +0.171 C 
ATOM     26  O   UNL     1      32.359  13.008  -1.276  0.00  0.00    -0.343 OA
ATOM     27  C   UNL     1      33.398  12.340  -1.928  0.00  0.00    +0.220 C 
ATOM     28  C   UNL     1      34.206  11.458  -0.960  0.00  0.00    +0.076 C 
ATOM     29  C   UNL     1      34.645  12.346   0.217  0.00  0.00    +0.177 C 
ATOM     30  O   UNL     1      35.432  11.588   1.125  0.00  0.00    -0.221 OA
ATOM     31  C   UNL     1      33.396  12.958   0.923  0.00  0.00    +0.155 C 
BRANCH  31  32
ATOM     32  N   UNL     1      33.808  13.797   2.046  0.00  0.00    -0.202 NA
ATOM     33  C   UNL     1      33.489  13.703   3.362  0.00  0.00    +0.242 C 
ATOM     34  C   UNL     1      34.284  14.516   4.350  0.00  0.00    +0.096 C 
ATOM     35  O   UNL     1      32.571  12.965   3.714  0.00  0.00    -0.273 OA
ENDBRANCH  31  32
BRANCH  27  36
ATOM     36  C   UNL     1      34.364  13.325  -2.786  0.00  0.00    +0.391 C 
ATOM     37  O   UNL     1      35.554  12.695  -2.828  0.00  0.00    -0.243 OA
ATOM     38  O   UNL     1      33.556  14.219  -3.370  0.00  0.00    -0.243 OA
ENDBRANCH  27  36
ENDBRANCH  23  25
ENDBRANCH  21  23
ENDBRANCH  20  21
ENDBRANCH   2  20
TORSDOF 11
