REMARK VINA RESULT:    -6.186      2.422      3.926
REMARK INTER + INTRA:         -14.054
REMARK INTER:                 -11.821
REMARK INTRA:                  -2.233
REMARK UNBOUND:                -1.720
REMARK  Name = lig_assembled_54.pdb
REMARK  19 active torsions:
REMARK  status: ('A' for Active; 'I' for Inactive)
REMARK    1  A    between atoms: _2  and  _8
REMARK    2  A    between atoms: _4  and  _13
REMARK    3  A    between atoms: _5  and  _6
REMARK    4  A    between atoms: _5  and  _16
REMARK    5  A    between atoms: _8  and  _9
REMARK    6  A    between atoms: _9  and  _10
REMARK    7  A    between atoms: _10  and  _14
REMARK    8  A    between atoms: _10  and  _15
REMARK    9  A    between atoms: _11  and  _12
REMARK   10  A    between atoms: _11  and  _15
REMARK   11  A    between atoms: _13  and  _14
REMARK   12  A    between atoms: _16  and  _18
REMARK   13  A    between atoms: _17  and  _22
REMARK   14  A    between atoms: _18  and  _21
REMARK   15  A    between atoms: _26  and  _36
REMARK   16  A    between atoms: _28  and  _29
REMARK   17  A    between atoms: _30  and  _32
REMARK   18  A    between atoms: _32  and  _34
REMARK   19  A    between atoms: _34  and  _36
REMARK                            x       y       z     vdW  Elec       q    Type
REMARK                         _______ _______ _______ _____ _____    ______ ____
ROOT
ATOM      1  C   UNL     1      28.313  17.646  -0.577  0.00  0.00    +0.400 C 
ATOM      2  N   UNL     1      29.458  17.686   0.185  0.00  0.00    -0.278 N 
ATOM      3  H   UNL     1      29.375  18.616   0.706  0.00  0.00    +0.152 HD
ATOM      4  O   UNL     1      27.450  18.494  -0.370  0.00  0.00    -0.226 OA
ENDROOT
BRANCH   1   5
ATOM      5  O   UNL     1      28.271  16.717  -1.474  0.00  0.00    -0.450 OA
BRANCH   5   6
ATOM      6  C   UNL     1      27.320  15.945  -2.169  0.00  0.00    +0.240 C 
BRANCH   6   7
ATOM      7  C   UNL     1      26.677  16.568  -3.423  0.00  0.00    +0.100 C 
BRANCH   7   9
ATOM      8  N   UNL     1      25.285  15.236  -4.978  0.00  0.00    -0.134 NA
ATOM      9  C   UNL     1      25.434  15.849  -3.763  0.00  0.00    +0.086 A 
ATOM     10  C   UNL     1      24.296  15.645  -3.012  0.00  0.00    +0.133 A 
ATOM     11  N   UNL     1      23.511  14.870  -3.811  0.00  0.00    -0.251 N 
ATOM     12  N   UNL     1      24.104  14.630  -4.994  0.00  0.00    -0.065 NA
BRANCH  11  13
ATOM     13  C   UNL     1      22.226  14.274  -3.503  0.00  0.00    +0.150 C 
BRANCH  13  14
ATOM     14  C   UNL     1      22.363  12.809  -3.114  0.00  0.00    +0.084 C 
BRANCH  14  15
ATOM     15  C   UNL     1      23.472  12.550  -2.089  0.00  0.00    +0.252 C 
BRANCH  15  16
ATOM     16  O   UNL     1      23.951  11.208  -2.210  0.00  0.00    -0.352 OA
BRANCH  16  17
ATOM     17  C   UNL     1      25.197  11.092  -2.895  0.00  0.00    +0.159 C 
ATOM     18  C   UNL     1      26.022  12.333  -2.621  0.00  0.00    +0.034 C 
ENDBRANCH  16  17
ENDBRANCH  15  16
BRANCH  15  19
ATOM     19  O   UNL     1      22.913  12.751  -0.785  0.00  0.00    -0.352 OA
BRANCH  19  20
ATOM     20  C   UNL     1      22.277  11.577  -0.276  0.00  0.00    +0.159 C 
ATOM     21  C   UNL     1      21.303  11.974   0.814  0.00  0.00    +0.034 C 
ENDBRANCH  19  20
ENDBRANCH  15  19
ENDBRANCH  14  15
ENDBRANCH  13  14
ENDBRANCH  11  13
ENDBRANCH   7   9
ENDBRANCH   6   7
ENDBRANCH   5   6
ENDBRANCH   1   5
BRANCH   2  22
ATOM     22  C   UNL     1      30.699  17.039   0.602  0.00  0.00    +0.152 C 
BRANCH  22  23
ATOM     23  C   UNL     1      30.876  15.568   0.170  0.00  0.00    +0.193 C 
ATOM     24  O   UNL     1      31.971  15.541  -0.772  0.00  0.00    -0.219 OA
BRANCH  23  25
ATOM     25  C   UNL     1      31.277  14.547   1.258  0.00  0.00    +0.212 C 
ATOM     26  O   UNL     1      31.619  15.223   2.479  0.00  0.00    -0.218 OA
BRANCH  25  27
ATOM     27  C   UNL     1      30.150  13.489   1.567  0.00  0.00    +0.171 C 
ATOM     28  O   UNL     1      30.004  13.236   2.960  0.00  0.00    -0.343 OA
ATOM     29  C   UNL     1      29.262  12.180   3.496  0.00  0.00    +0.220 C 
ATOM     30  C   UNL     1      29.638  10.834   2.853  0.00  0.00    +0.076 C 
ATOM     31  C   UNL     1      29.520  11.001   1.328  0.00  0.00    +0.177 C 
ATOM     32  O   UNL     1      29.820   9.770   0.685  0.00  0.00    -0.221 OA
ATOM     33  C   UNL     1      30.465  12.142   0.838  0.00  0.00    +0.155 C 
BRANCH  33  34
ATOM     34  N   UNL     1      30.361  12.298  -0.611  0.00  0.00    -0.202 NA
ATOM     35  C   UNL     1      31.315  12.169  -1.568  0.00  0.00    +0.242 C 
ATOM     36  C   UNL     1      30.877  12.093  -3.008  0.00  0.00    +0.096 C 
ATOM     37  O   UNL     1      32.499  12.116  -1.243  0.00  0.00    -0.273 OA
ENDBRANCH  33  34
BRANCH  29  38
ATOM     38  C   UNL     1      27.657  12.433   3.457  0.00  0.00    +0.391 C 
ATOM     39  O   UNL     1      27.110  11.210   3.597  0.00  0.00    -0.243 OA
ATOM     40  O   UNL     1      27.487  13.752   3.604  0.00  0.00    -0.243 OA
ENDBRANCH  29  38
ENDBRANCH  25  27
ENDBRANCH  23  25
ENDBRANCH  22  23
ENDBRANCH   2  22
TORSDOF 17
