REMARK VINA RESULT:    -7.208      3.250      7.717
REMARK INTER + INTRA:         -14.872
REMARK INTER:                 -12.008
REMARK INTRA:                  -2.864
REMARK UNBOUND:                -1.975
REMARK  Name = lig_assembled_77.pdb
REMARK  14 active torsions:
REMARK  status: ('A' for Active; 'I' for Inactive)
REMARK    1  A    between atoms: _2  and  _9
REMARK    2  A    between atoms: _3  and  _16
REMARK    3  A    between atoms: _6  and  _7
REMARK    4  A    between atoms: _6  and  _22
REMARK    5  A    between atoms: _12  and  _50
REMARK    6  A    between atoms: _13  and  _50
REMARK    7  A    between atoms: _22  and  _24
REMARK    8  A    between atoms: _23  and  _28
REMARK    9  A    between atoms: _24  and  _27
REMARK   10  A    between atoms: _32  and  _42
REMARK   11  A    between atoms: _34  and  _35
REMARK   12  A    between atoms: _36  and  _38
REMARK   13  A    between atoms: _38  and  _40
REMARK   14  A    between atoms: _40  and  _42
REMARK                            x       y       z     vdW  Elec       q    Type
REMARK                         _______ _______ _______ _____ _____    ______ ____
ROOT
ATOM      1  C   UNL     1      26.806  17.352  -3.370  0.00  0.00    +0.240 C 
ENDROOT
BRANCH   1   2
ATOM      2  C   UNL     1      26.160  16.172  -4.121  0.00  0.00    +0.100 C 
BRANCH   2   4
ATOM      3  N   UNL     1      23.893  15.801  -3.206  0.00  0.00    -0.134 NA
ATOM      4  C   UNL     1      25.213  15.458  -3.243  0.00  0.00    +0.086 A 
ATOM      5  C   UNL     1      25.431  14.413  -2.375  0.00  0.00    +0.139 A 
ATOM      6  N   UNL     1      24.197  14.139  -1.830  0.00  0.00    -0.220 N 
ATOM      7  N   UNL     1      23.284  15.002  -2.340  0.00  0.00    -0.061 NA
BRANCH   6   8
ATOM      8  C   UNL     1      23.830  13.103  -0.931  0.00  0.00    +0.067 A 
ATOM      9  C   UNL     1      24.792  12.468  -0.131  0.00  0.00    +0.030 A 
ATOM     10  C   UNL     1      24.434  11.371   0.658  0.00  0.00    +0.029 A 
ATOM     11  C   UNL     1      23.115  10.912   0.648  0.00  0.00    +0.094 A 
ATOM     12  C   UNL     1      22.131  11.593  -0.073  0.00  0.00    +0.029 A 
ATOM     13  C   UNL     1      22.490  12.681  -0.873  0.00  0.00    +0.030 A 
BRANCH  11  14
ATOM     14  S   UNL     1      22.676   9.471   1.599  0.00  0.00    +0.025 S 
ATOM     15  O   UNL     1      21.955   9.959   2.762  0.00  0.00    -0.164 OA
ATOM     16  O   UNL     1      22.059   8.524   0.690  0.00  0.00    -0.164 OA
BRANCH  14  17
ATOM     17  C   UNL     1      24.165   8.698   2.195  0.00  0.00    +0.094 A 
ATOM     18  C   UNL     1      24.414   8.576   3.563  0.00  0.00    +0.029 A 
ATOM     19  C   UNL     1      25.623   8.020   3.996  0.00  0.00    +0.024 A 
ATOM     20  C   UNL     1      26.568   7.542   3.080  0.00  0.00    +0.025 A 
ATOM     21  C   UNL     1      26.316   7.700   1.714  0.00  0.00    +0.024 A 
ATOM     22  C   UNL     1      25.112   8.256   1.268  0.00  0.00    +0.029 A 
BRANCH  20  23
ATOM     23  N   UNL     1      27.836   7.148   3.517  0.00  0.00    -0.358 N 
ATOM     24  H   UNL     1      28.329   7.841   4.071  0.00  0.00    +0.142 HD
ATOM     25  H   UNL     1      27.867   6.223   3.934  0.00  0.00    +0.142 HD
ENDBRANCH  20  23
ENDBRANCH  14  17
ENDBRANCH  11  14
ENDBRANCH   6   8
ENDBRANCH   2   4
ENDBRANCH   1   2
BRANCH   1  26
ATOM     26  O   UNL     1      27.658  17.047  -2.291  0.00  0.00    -0.450 OA
BRANCH  26  27
ATOM     27  C   UNL     1      27.849  17.400  -1.062  0.00  0.00    +0.400 C 
ATOM     28  N   UNL     1      28.537  16.499  -0.284  0.00  0.00    -0.278 N 
ATOM     29  H   UNL     1      28.753  17.054   0.604  0.00  0.00    +0.152 HD
ATOM     30  O   UNL     1      27.501  18.461  -0.550  0.00  0.00    -0.226 OA
BRANCH  28  31
ATOM     31  C   UNL     1      29.080  15.153  -0.124  0.00  0.00    +0.152 C 
BRANCH  31  32
ATOM     32  C   UNL     1      30.598  15.058   0.136  0.00  0.00    +0.193 C 
ATOM     33  O   UNL     1      30.950  16.196   0.954  0.00  0.00    -0.219 OA
BRANCH  32  34
ATOM     34  C   UNL     1      31.113  13.838   0.931  0.00  0.00    +0.212 C 
ATOM     35  O   UNL     1      31.895  14.267   2.057  0.00  0.00    -0.218 OA
BRANCH  34  36
ATOM     36  C   UNL     1      29.958  12.897   1.448  0.00  0.00    +0.171 C 
ATOM     37  O   UNL     1      29.777  12.976   2.858  0.00  0.00    -0.343 OA
ATOM     38  C   UNL     1      29.002  12.085   3.604  0.00  0.00    +0.220 C 
ATOM     39  C   UNL     1      29.364  10.621   3.299  0.00  0.00    +0.076 C 
ATOM     40  C   UNL     1      29.282  10.431   1.776  0.00  0.00    +0.177 C 
ATOM     41  O   UNL     1      29.570   9.081   1.442  0.00  0.00    -0.221 OA
ATOM     42  C   UNL     1      30.260  11.413   1.058  0.00  0.00    +0.155 C 
BRANCH  42  43
ATOM     43  N   UNL     1      30.191  11.231  -0.389  0.00  0.00    -0.202 NA
ATOM     44  C   UNL     1      29.194  11.543  -1.256  0.00  0.00    +0.242 C 
ATOM     45  C   UNL     1      29.496  11.522  -2.732  0.00  0.00    +0.096 C 
ATOM     46  O   UNL     1      28.080  11.833  -0.823  0.00  0.00    -0.273 OA
ENDBRANCH  42  43
BRANCH  38  47
ATOM     47  C   UNL     1      27.404  12.346   3.467  0.00  0.00    +0.391 C 
ATOM     48  O   UNL     1      26.849  11.118   3.488  0.00  0.00    -0.243 OA
ATOM     49  O   UNL     1      27.223  13.654   3.687  0.00  0.00    -0.243 OA
ENDBRANCH  38  47
ENDBRANCH  34  36
ENDBRANCH  32  34
ENDBRANCH  31  32
ENDBRANCH  28  31
ENDBRANCH  26  27
ENDBRANCH   1  26
TORSDOF 14
