REMARK VINA RESULT:    -6.007     23.632     26.055
REMARK INTER + INTRA:         -12.878
REMARK INTER:                 -10.275
REMARK INTRA:                  -2.603
REMARK UNBOUND:                -2.657
REMARK  Name = lig_assembled_46.pdb
REMARK  12 active torsions:
REMARK  status: ('A' for Active; 'I' for Inactive)
REMARK    1  A    between atoms: _2  and  _8
REMARK    2  A    between atoms: _5  and  _6
REMARK    3  A    between atoms: _5  and  _14
REMARK    4  A    between atoms: _8  and  _9
REMARK    5  A    between atoms: _14  and  _16
REMARK    6  A    between atoms: _15  and  _20
REMARK    7  A    between atoms: _16  and  _19
REMARK    8  A    between atoms: _24  and  _34
REMARK    9  A    between atoms: _26  and  _27
REMARK   10  A    between atoms: _28  and  _30
REMARK   11  A    between atoms: _30  and  _32
REMARK   12  A    between atoms: _32  and  _34
REMARK                            x       y       z     vdW  Elec       q    Type
REMARK                         _______ _______ _______ _____ _____    ______ ____
ROOT
ATOM      1  C   UNL     1      29.351  39.698  11.051  0.00  0.00    +0.400 C 
ATOM      2  N   UNL     1      28.776  38.476  11.306  0.00  0.00    -0.278 N 
ATOM      3  H   UNL     1      28.963  38.328  12.348  0.00  0.00    +0.152 HD
ATOM      4  O   UNL     1      29.739  40.367  12.005  0.00  0.00    -0.226 OA
ENDROOT
BRANCH   2   5
ATOM      5  C   UNL     1      28.029  37.324  10.808  0.00  0.00    +0.152 C 
BRANCH   5   6
ATOM      6  C   UNL     1      27.036  36.678  11.796  0.00  0.00    +0.193 C 
ATOM      7  O   UNL     1      27.601  36.838  13.116  0.00  0.00    -0.219 OA
BRANCH   6   8
ATOM      8  C   UNL     1      25.627  37.301  11.903  0.00  0.00    +0.212 C 
ATOM      9  O   UNL     1      25.706  38.734  11.847  0.00  0.00    -0.218 OA
BRANCH   8  10
ATOM     10  C   UNL     1      24.639  36.807  10.778  0.00  0.00    +0.171 C 
ATOM     11  O   UNL     1      23.975  37.882  10.121  0.00  0.00    -0.343 OA
ATOM     12  C   UNL     1      22.882  37.728   9.265  0.00  0.00    +0.220 C 
ATOM     13  C   UNL     1      21.777  36.865   9.901  0.00  0.00    +0.076 C 
ATOM     14  C   UNL     1      22.426  35.551  10.365  0.00  0.00    +0.177 C 
ATOM     15  O   UNL     1      21.438  34.698  10.926  0.00  0.00    -0.221 OA
ATOM     16  C   UNL     1      23.567  35.847  11.388  0.00  0.00    +0.155 C 
BRANCH  16  17
ATOM     17  N   UNL     1      24.181  34.600  11.837  0.00  0.00    -0.202 NA
ATOM     18  C   UNL     1      24.017  33.921  13.001  0.00  0.00    +0.242 C 
ATOM     19  C   UNL     1      24.542  32.512  13.088  0.00  0.00    +0.096 C 
ATOM     20  O   UNL     1      23.448  34.465  13.946  0.00  0.00    -0.273 OA
ENDBRANCH  16  17
BRANCH  12  21
ATOM     21  C   UNL     1      23.288  37.186   7.789  0.00  0.00    +0.391 C 
ATOM     22  O   UNL     1      22.132  36.752   7.248  0.00  0.00    -0.243 OA
ATOM     23  O   UNL     1      24.524  37.641   7.554  0.00  0.00    -0.243 OA
ENDBRANCH  12  21
ENDBRANCH   8  10
ENDBRANCH   6   8
ENDBRANCH   5   6
ENDBRANCH   2   5
BRANCH   1  24
ATOM     24  O   UNL     1      29.458  40.017   9.802  0.00  0.00    -0.450 OA
BRANCH  24  25
ATOM     25  C   UNL     1      30.427  40.023   8.780  0.00  0.00    +0.240 C 
BRANCH  25  26
ATOM     26  C   UNL     1      29.970  40.442   7.370  0.00  0.00    +0.100 C 
BRANCH  26  28
ATOM     27  N   UNL     1      30.014  38.775   5.540  0.00  0.00    -0.134 NA
ATOM     28  C   UNL     1      29.398  39.288   6.651  0.00  0.00    +0.086 A 
ATOM     29  C   UNL     1      28.279  38.536   6.932  0.00  0.00    +0.134 A 
ATOM     30  N   UNL     1      28.299  37.546   5.992  0.00  0.00    -0.247 N 
ATOM     31  N   UNL     1      29.338  37.703   5.148  0.00  0.00    -0.065 NA
BRANCH  30  32
ATOM     32  C   UNL     1      27.534  36.311   5.990  0.00  0.00    +0.180 C 
BRANCH  32  33
ATOM     33  C   UNL     1      27.838  35.406   7.157  0.00  0.00    -0.026 A 
ATOM     34  C   UNL     1      29.161  35.061   7.477  0.00  0.00    +0.005 A 
ATOM     35  C   UNL     1      29.439  34.300   8.616  0.00  0.00    +0.000 A 
ATOM     36  C   UNL     1      28.402  33.879   9.446  0.00  0.00    +0.000 A 
ATOM     37  C   UNL     1      27.085  34.207   9.135  0.00  0.00    +0.000 A 
ATOM     38  C   UNL     1      26.804  34.967   7.997  0.00  0.00    +0.005 A 
ENDBRANCH  32  33
ENDBRANCH  30  32
ENDBRANCH  26  28
ENDBRANCH  25  26
ENDBRANCH  24  25
ENDBRANCH   1  24
TORSDOF 12
