REMARK VINA RESULT:    -6.477      2.557      3.755
REMARK INTER + INTRA:         -14.181
REMARK INTER:                 -11.640
REMARK INTRA:                  -2.541
REMARK UNBOUND:                -2.025
REMARK  Name = lig_assembled_10.pdb
REMARK  16 active torsions:
REMARK  status: ('A' for Active; 'I' for Inactive)
REMARK    1  A    between atoms: _2  and  _8
REMARK    2  A    between atoms: _4  and  _8
REMARK    3  A    between atoms: _4  and  _11
REMARK    4  A    between atoms: _5  and  _6
REMARK    5  A    between atoms: _5  and  _15
REMARK    6  A    between atoms: _8  and  _9
REMARK    7  A    between atoms: _9  and  _10
REMARK    8  A    between atoms: _10  and  _13
REMARK    9  A    between atoms: _15  and  _17
REMARK   10  A    between atoms: _16  and  _21
REMARK   11  A    between atoms: _17  and  _20
REMARK   12  A    between atoms: _25  and  _35
REMARK   13  A    between atoms: _27  and  _28
REMARK   14  A    between atoms: _29  and  _31
REMARK   15  A    between atoms: _31  and  _33
REMARK   16  A    between atoms: _33  and  _35
REMARK                            x       y       z     vdW  Elec       q    Type
REMARK                         _______ _______ _______ _____ _____    ______ ____
ROOT
ATOM      1  C   UNL     1      27.104  12.472   1.760  0.00  0.00    +0.400 C 
ATOM      2  N   UNL     1      28.140  13.136   1.145  0.00  0.00    -0.278 N 
ATOM      3  H   UNL     1      28.276  14.002   1.756  0.00  0.00    +0.152 HD
ATOM      4  O   UNL     1      26.733  12.871   2.861  0.00  0.00    -0.226 OA
ENDROOT
BRANCH   2   5
ATOM      5  C   UNL     1      29.122  13.180   0.065  0.00  0.00    +0.152 C 
BRANCH   5   6
ATOM      6  C   UNL     1      29.502  14.583  -0.452  0.00  0.00    +0.193 C 
ATOM      7  O   UNL     1      28.572  15.512   0.149  0.00  0.00    -0.219 OA
BRANCH   6   8
ATOM      8  C   UNL     1      30.894  15.133  -0.072  0.00  0.00    +0.212 C 
ATOM      9  O   UNL     1      30.771  16.410   0.574  0.00  0.00    -0.218 OA
BRANCH   8  10
ATOM     10  C   UNL     1      31.711  14.168   0.870  0.00  0.00    +0.171 C 
ATOM     11  O   UNL     1      31.883  14.699   2.180  0.00  0.00    -0.343 OA
ATOM     12  C   UNL     1      32.761  14.176   3.133  0.00  0.00    +0.220 C 
ATOM     13  C   UNL     1      34.175  13.980   2.559  0.00  0.00    +0.076 C 
ATOM     14  C   UNL     1      34.042  13.146   1.275  0.00  0.00    +0.177 C 
ATOM     15  O   UNL     1      35.329  12.901   0.724  0.00  0.00    -0.221 OA
ATOM     16  C   UNL     1      33.117  13.877   0.252  0.00  0.00    +0.155 C 
BRANCH  16  17
ATOM     17  N   UNL     1      32.994  13.090  -0.972  0.00  0.00    -0.202 NA
ATOM     18  C   UNL     1      33.236  13.445  -2.260  0.00  0.00    +0.242 C 
ATOM     19  C   UNL     1      33.314  12.358  -3.299  0.00  0.00    +0.096 C 
ATOM     20  O   UNL     1      33.386  14.632  -2.545  0.00  0.00    -0.273 OA
ENDBRANCH  16  17
BRANCH  12  21
ATOM     21  C   UNL     1      32.213  12.822   3.844  0.00  0.00    +0.391 C 
ATOM     22  O   UNL     1      33.305  12.245   4.382  0.00  0.00    -0.243 OA
ATOM     23  O   UNL     1      30.880  12.941   3.889  0.00  0.00    -0.243 OA
ENDBRANCH  12  21
ENDBRANCH   8  10
ENDBRANCH   6   8
ENDBRANCH   5   6
ENDBRANCH   2   5
BRANCH   1  24
ATOM     24  O   UNL     1      26.592  11.492   1.091  0.00  0.00    -0.450 OA
BRANCH  24  25
ATOM     25  C   UNL     1      25.873  11.272  -0.100  0.00  0.00    +0.240 C 
BRANCH  25  26
ATOM     26  C   UNL     1      24.600  12.109  -0.327  0.00  0.00    +0.100 C 
BRANCH  26  28
ATOM     27  N   UNL     1      23.918  14.146  -1.560  0.00  0.00    -0.134 NA
ATOM     28  C   UNL     1      24.885  13.234  -1.237  0.00  0.00    +0.086 A 
ATOM     29  C   UNL     1      26.055  13.573  -1.877  0.00  0.00    +0.134 A 
ATOM     30  N   UNL     1      25.753  14.723  -2.539  0.00  0.00    -0.237 N 
ATOM     31  N   UNL     1      24.456  15.049  -2.365  0.00  0.00    -0.065 NA
BRANCH  30  32
ATOM     32  C   UNL     1      26.578  15.596  -3.358  0.00  0.00    +0.227 C 
BRANCH  32  33
ATOM     33  C   UNL     1      26.354  17.074  -3.124  0.00  0.00    +0.330 C 
ATOM     34  O   UNL     1      27.142  17.751  -2.473  0.00  0.00    -0.249 OA
BRANCH  33  35
ATOM     35  O   UNL     1      25.271  17.638  -3.698  0.00  0.00    -0.479 OA
ATOM     36  H   UNL     1      25.250  18.630  -3.733  0.00  0.00    +0.295 HD
ENDBRANCH  33  35
ENDBRANCH  32  33
BRANCH  32  37
ATOM     37  C   UNL     1      26.587  15.238  -4.851  0.00  0.00    +0.158 C 
BRANCH  37  38
ATOM     38  C   UNL     1      25.376  14.443  -5.250  0.00  0.00    +0.307 C 
ATOM     39  O   UNL     1      25.390  13.235  -5.444  0.00  0.00    -0.251 OA
BRANCH  38  40
ATOM     40  O   UNL     1      24.244  15.170  -5.297  0.00  0.00    -0.481 OA
ATOM     41  H   UNL     1      23.785  15.285  -4.441  0.00  0.00    +0.295 HD
ENDBRANCH  38  40
ENDBRANCH  37  38
ENDBRANCH  32  37
ENDBRANCH  30  32
ENDBRANCH  26  28
ENDBRANCH  25  26
ENDBRANCH  24  25
ENDBRANCH   1  24
TORSDOF 16
