REMARK VINA RESULT:    -6.063      3.629      5.234
REMARK INTER + INTRA:         -12.564
REMARK INTER:                 -10.665
REMARK INTRA:                  -1.899
REMARK UNBOUND:                -1.716
REMARK  Name = lig_assembled_32.pdb
REMARK  14 active torsions:
REMARK  status: ('A' for Active; 'I' for Inactive)
REMARK    1  A    between atoms: _2  and  _8
REMARK    2  A    between atoms: _4  and  _9
REMARK    3  A    between atoms: _4  and  _10
REMARK    4  A    between atoms: _5  and  _6
REMARK    5  A    between atoms: _5  and  _12
REMARK    6  A    between atoms: _8  and  _9
REMARK    7  A    between atoms: _12  and  _14
REMARK    8  A    between atoms: _13  and  _18
REMARK    9  A    between atoms: _14  and  _17
REMARK   10  A    between atoms: _22  and  _32
REMARK   11  A    between atoms: _24  and  _25
REMARK   12  A    between atoms: _26  and  _28
REMARK   13  A    between atoms: _28  and  _30
REMARK   14  A    between atoms: _30  and  _32
REMARK                            x       y       z     vdW  Elec       q    Type
REMARK                         _______ _______ _______ _____ _____    ______ ____
ROOT
ATOM      1  C   UNL     1      28.448  17.625  -0.581  0.00  0.00    +0.152 C 
ENDROOT
BRANCH   1   3
ATOM      2  C   UNL     1      26.859  17.134  -2.745  0.00  0.00    +0.400 C 
ATOM      3  N   UNL     1      27.855  17.593  -1.916  0.00  0.00    -0.278 N 
ATOM      4  H   UNL     1      28.444  18.213  -2.557  0.00  0.00    +0.152 HD
ATOM      5  O   UNL     1      26.760  17.633  -3.863  0.00  0.00    -0.226 OA
BRANCH   2   6
ATOM      6  O   UNL     1      26.127  16.182  -2.266  0.00  0.00    -0.450 OA
BRANCH   6   7
ATOM      7  C   UNL     1      25.417  15.051  -2.716  0.00  0.00    +0.240 C 
BRANCH   7   8
ATOM      8  C   UNL     1      23.888  15.051  -2.526  0.00  0.00    +0.100 C 
BRANCH   8  10
ATOM      9  N   UNL     1      24.415  13.103  -1.093  0.00  0.00    -0.134 NA
ATOM     10  C   UNL     1      23.483  13.950  -1.633  0.00  0.00    +0.086 A 
ATOM     11  C   UNL     1      22.230  13.574  -1.201  0.00  0.00    +0.133 A 
ATOM     12  N   UNL     1      22.468  12.489  -0.415  0.00  0.00    -0.251 N 
ATOM     13  N   UNL     1      23.780  12.208  -0.349  0.00  0.00    -0.065 NA
BRANCH  12  14
ATOM     14  C   UNL     1      21.512  11.676   0.305  0.00  0.00    +0.156 C 
BRANCH  14  15
ATOM     15  C   UNL     1      22.140  10.393   0.834  0.00  0.00    +0.143 C 
BRANCH  15  16
ATOM     16  C   UNL     1      22.356  10.496   2.316  0.00  0.00    +0.306 C 
ATOM     17  O   UNL     1      21.671   9.941   3.161  0.00  0.00    -0.251 OA
BRANCH  16  18
ATOM     18  O   UNL     1      23.398  11.294   2.636  0.00  0.00    -0.481 OA
ATOM     19  H   UNL     1      24.203  10.814   2.912  0.00  0.00    +0.295 HD
ENDBRANCH  16  18
ENDBRANCH  15  16
ENDBRANCH  14  15
ENDBRANCH  12  14
ENDBRANCH   8  10
ENDBRANCH   7   8
ENDBRANCH   6   7
ENDBRANCH   2   6
ENDBRANCH   1   3
BRANCH   1  20
ATOM     20  C   UNL     1      29.662  16.701  -0.355  0.00  0.00    +0.193 C 
ATOM     21  O   UNL     1      30.452  17.303   0.694  0.00  0.00    -0.219 OA
BRANCH  20  22
ATOM     22  C   UNL     1      29.386  15.266   0.146  0.00  0.00    +0.212 C 
ATOM     23  O   UNL     1      28.317  14.669  -0.606  0.00  0.00    -0.218 OA
BRANCH  22  24
ATOM     24  C   UNL     1      30.646  14.323   0.065  0.00  0.00    +0.171 C 
ATOM     25  O   UNL     1      31.212  14.276  -1.240  0.00  0.00    -0.343 OA
ATOM     26  C   UNL     1      32.172  13.347  -1.650  0.00  0.00    +0.220 C 
ATOM     27  C   UNL     1      31.751  11.906  -1.312  0.00  0.00    +0.076 C 
ATOM     28  C   UNL     1      31.408  11.863   0.186  0.00  0.00    +0.177 C 
ATOM     29  O   UNL     1      31.050  10.541   0.561  0.00  0.00    -0.221 OA
ATOM     30  C   UNL     1      30.260  12.872   0.503  0.00  0.00    +0.155 C 
BRANCH  30  31
ATOM     31  N   UNL     1      29.926  12.830   1.924  0.00  0.00    -0.202 NA
ATOM     32  C   UNL     1      28.754  12.513   2.531  0.00  0.00    +0.242 C 
ATOM     33  C   UNL     1      28.762  12.262   4.016  0.00  0.00    +0.096 C 
ATOM     34  O   UNL     1      27.725  12.438   1.863  0.00  0.00    -0.273 OA
ENDBRANCH  30  31
BRANCH  26  35
ATOM     35  C   UNL     1      33.666  13.676  -1.104  0.00  0.00    +0.391 C 
ATOM     36  O   UNL     1      34.283  12.481  -1.036  0.00  0.00    -0.243 OA
ATOM     37  O   UNL     1      33.816  15.002  -1.216  0.00  0.00    -0.243 OA
ENDBRANCH  26  35
ENDBRANCH  22  24
ENDBRANCH  20  22
ENDBRANCH   1  20
TORSDOF 14
