REMARK VINA RESULT:    -6.550      2.608      9.449
REMARK INTER + INTRA:         -12.536
REMARK INTER:                 -10.761
REMARK INTRA:                  -1.775
REMARK UNBOUND:                -1.775
REMARK  Name = lig_assembled_42.pdb
REMARK  11 active torsions:
REMARK  status: ('A' for Active; 'I' for Inactive)
REMARK    1  A    between atoms: _2  and  _8
REMARK    2  A    between atoms: _5  and  _6
REMARK    3  A    between atoms: _5  and  _16
REMARK    4  A    between atoms: _16  and  _18
REMARK    5  A    between atoms: _17  and  _22
REMARK    6  A    between atoms: _18  and  _21
REMARK    7  A    between atoms: _26  and  _36
REMARK    8  A    between atoms: _28  and  _29
REMARK    9  A    between atoms: _30  and  _32
REMARK   10  A    between atoms: _32  and  _34
REMARK   11  A    between atoms: _34  and  _36
REMARK                            x       y       z     vdW  Elec       q    Type
REMARK                         _______ _______ _______ _____ _____    ______ ____
ROOT
ATOM      1  C   UNL     1      28.838  15.032  -0.172  0.00  0.00    +0.400 C 
ATOM      2  N   UNL     1      27.873  15.757  -0.830  0.00  0.00    -0.278 N 
ATOM      3  H   UNL     1      27.040  15.726  -0.161  0.00  0.00    +0.152 HD
ATOM      4  O   UNL     1      28.624  14.708   0.994  0.00  0.00    -0.226 OA
ENDROOT
BRANCH   1   5
ATOM      5  O   UNL     1      29.884  14.730  -0.868  0.00  0.00    -0.450 OA
BRANCH   5   6
ATOM      6  C   UNL     1      30.944  13.802  -0.856  0.00  0.00    +0.240 C 
BRANCH   6   7
ATOM      7  C   UNL     1      32.328  14.311  -0.409  0.00  0.00    +0.100 C 
BRANCH   7   9
ATOM      8  N   UNL     1      33.921  13.653   1.376  0.00  0.00    -0.134 NA
ATOM      9  C   UNL     1      32.637  13.841   0.954  0.00  0.00    +0.086 A 
ATOM     10  C   UNL     1      31.779  13.522   1.979  0.00  0.00    +0.139 A 
ATOM     11  N   UNL     1      32.590  13.143   3.021  0.00  0.00    -0.220 N 
ATOM     12  N   UNL     1      33.886  13.230   2.634  0.00  0.00    -0.061 NA
BRANCH  11  13
ATOM     13  C   UNL     1      32.209  12.713   4.319  0.00  0.00    +0.071 A 
ATOM     14  C   UNL     1      33.106  12.838   5.391  0.00  0.00    +0.077 A 
ATOM     15  C   UNL     1      32.689  12.406   6.632  0.00  0.00    +0.168 A 
ATOM     16  O   UNL     1      33.431  12.460   7.769  0.00  0.00    -0.453 OA
ATOM     17  C   UNL     1      32.506  11.896   8.720  0.00  0.00    +0.466 C 
ATOM     18  O   UNL     1      31.243  11.512   8.134  0.00  0.00    -0.453 OA
ATOM     19  C   UNL     1      31.442  11.868   6.837  0.00  0.00    +0.166 A 
ATOM     20  C   UNL     1      30.537  11.728   5.808  0.00  0.00    +0.051 A 
ATOM     21  C   UNL     1      30.925  12.157   4.531  0.00  0.00    +0.031 A 
ENDBRANCH  11  13
ENDBRANCH   7   9
ENDBRANCH   6   7
ENDBRANCH   5   6
ENDBRANCH   1   5
BRANCH   2  22
ATOM     22  C   UNL     1      27.490  16.545  -1.999  0.00  0.00    +0.152 C 
BRANCH  22  23
ATOM     23  C   UNL     1      26.148  16.169  -2.662  0.00  0.00    +0.193 C 
ATOM     24  O   UNL     1      26.057  16.939  -3.881  0.00  0.00    -0.219 OA
BRANCH  23  25
ATOM     25  C   UNL     1      25.961  14.705  -3.116  0.00  0.00    +0.212 C 
ATOM     26  O   UNL     1      27.235  14.090  -3.366  0.00  0.00    -0.218 OA
BRANCH  25  27
ATOM     27  C   UNL     1      25.172  13.823  -2.074  0.00  0.00    +0.171 C 
ATOM     28  O   UNL     1      25.854  12.616  -1.750  0.00  0.00    -0.343 OA
ATOM     29  C   UNL     1      25.282  11.550  -1.052  0.00  0.00    +0.220 C 
ATOM     30  C   UNL     1      23.932  11.130  -1.659  0.00  0.00    +0.076 C 
ATOM     31  C   UNL     1      23.054  12.390  -1.751  0.00  0.00    +0.177 C 
ATOM     32  O   UNL     1      21.777  12.049  -2.271  0.00  0.00    -0.221 OA
ATOM     33  C   UNL     1      23.755  13.470  -2.633  0.00  0.00    +0.155 C 
BRANCH  33  34
ATOM     34  N   UNL     1      22.921  14.665  -2.729  0.00  0.00    -0.202 NA
ATOM     35  C   UNL     1      22.228  15.157  -3.787  0.00  0.00    +0.242 C 
ATOM     36  C   UNL     1      21.214  16.242  -3.536  0.00  0.00    +0.096 C 
ATOM     37  O   UNL     1      22.439  14.710  -4.913  0.00  0.00    -0.273 OA
ENDBRANCH  33  34
BRANCH  29  38
ATOM     38  C   UNL     1      25.161  11.814   0.547  0.00  0.00    +0.391 C 
ATOM     39  O   UNL     1      24.145  11.028   0.953  0.00  0.00    -0.243 OA
ATOM     40  O   UNL     1      26.279  12.460   0.900  0.00  0.00    -0.243 OA
ENDBRANCH  29  38
ENDBRANCH  25  27
ENDBRANCH  23  25
ENDBRANCH  22  23
ENDBRANCH   2  22
TORSDOF 11
