REMARK VINA RESULT:    -6.630      0.902      1.397
REMARK INTER + INTRA:         -14.252
REMARK INTER:                 -12.464
REMARK INTRA:                  -1.788
REMARK UNBOUND:                -1.808
REMARK  Name = lig_assembled_43.pdb
REMARK  15 active torsions:
REMARK  status: ('A' for Active; 'I' for Inactive)
REMARK    1  A    between atoms: _2  and  _8
REMARK    2  A    between atoms: _5  and  _6
REMARK    3  A    between atoms: _5  and  _13
REMARK    4  A    between atoms: _8  and  _9
REMARK    5  A    between atoms: _9  and  _10
REMARK    6  A    between atoms: _10  and  _11
REMARK    7  A    between atoms: _11  and  _12
REMARK    8  A    between atoms: _13  and  _15
REMARK    9  A    between atoms: _14  and  _19
REMARK   10  A    between atoms: _15  and  _18
REMARK   11  A    between atoms: _23  and  _33
REMARK   12  A    between atoms: _25  and  _26
REMARK   13  A    between atoms: _27  and  _29
REMARK   14  A    between atoms: _29  and  _31
REMARK   15  A    between atoms: _31  and  _33
REMARK                            x       y       z     vdW  Elec       q    Type
REMARK                         _______ _______ _______ _____ _____    ______ ____
ROOT
ATOM      1  C   UNL     1      28.260  14.943  -0.234  0.00  0.00    +0.152 C 
ENDROOT
BRANCH   1   3
ATOM      2  C   UNL     1      27.722  17.283  -1.529  0.00  0.00    +0.400 C 
ATOM      3  N   UNL     1      28.095  16.349  -0.592  0.00  0.00    -0.278 N 
ATOM      4  H   UNL     1      28.379  16.943   0.250  0.00  0.00    +0.152 HD
ATOM      5  O   UNL     1      27.621  18.454  -1.171  0.00  0.00    -0.226 OA
BRANCH   2   6
ATOM      6  O   UNL     1      27.539  16.833  -2.726  0.00  0.00    -0.450 OA
BRANCH   6   7
ATOM      7  C   UNL     1      26.733  17.089  -3.853  0.00  0.00    +0.240 C 
BRANCH   7   8
ATOM      8  C   UNL     1      25.945  15.906  -4.447  0.00  0.00    +0.100 C 
BRANCH   8  10
ATOM      9  N   UNL     1      23.959  15.758  -2.976  0.00  0.00    -0.134 NA
ATOM     10  C   UNL     1      25.156  15.237  -3.397  0.00  0.00    +0.086 A 
ATOM     11  C   UNL     1      25.419  14.086  -2.690  0.00  0.00    +0.133 A 
ATOM     12  N   UNL     1      24.351  13.965  -1.853  0.00  0.00    -0.251 N 
ATOM     13  N   UNL     1      23.474  14.967  -2.027  0.00  0.00    -0.065 NA
BRANCH  12  14
ATOM     14  C   UNL     1      24.114  12.948  -0.851  0.00  0.00    +0.145 C 
BRANCH  14  15
ATOM     15  C   UNL     1      23.547  11.675  -1.470  0.00  0.00    +0.024 C 
BRANCH  15  16
ATOM     16  C   UNL     1      22.026  11.736  -1.619  0.00  0.00    +0.006 C 
BRANCH  16  17
ATOM     17  C   UNL     1      21.367  12.045  -0.272  0.00  0.00    +0.026 C 
BRANCH  17  18
ATOM     18  C   UNL     1      20.575  13.319  -0.314  0.00  0.00    -0.034 C 
ATOM     19  C   UNL     1      20.109  13.871  -1.442  0.00  0.00    +0.004 C 
ENDBRANCH  17  18
ENDBRANCH  16  17
ENDBRANCH  15  16
ENDBRANCH  14  15
ENDBRANCH  12  14
ENDBRANCH   8  10
ENDBRANCH   7   8
ENDBRANCH   6   7
ENDBRANCH   2   6
ENDBRANCH   1   3
BRANCH   1  20
ATOM     20  C   UNL     1      29.440  14.614   0.703  0.00  0.00    +0.193 C 
ATOM     21  O   UNL     1      29.230  13.266   1.178  0.00  0.00    -0.219 OA
BRANCH  20  22
ATOM     22  C   UNL     1      30.857  14.589   0.089  0.00  0.00    +0.212 C 
ATOM     23  O   UNL     1      31.315  15.926  -0.170  0.00  0.00    -0.218 OA
BRANCH  22  24
ATOM     24  C   UNL     1      31.919  13.859   0.997  0.00  0.00    +0.171 C 
ATOM     25  O   UNL     1      32.114  14.515   2.245  0.00  0.00    -0.343 OA
ATOM     26  C   UNL     1      33.157  14.230   3.130  0.00  0.00    +0.220 C 
ATOM     27  C   UNL     1      34.524  14.240   2.423  0.00  0.00    +0.076 C 
ATOM     28  C   UNL     1      34.425  13.295   1.213  0.00  0.00    +0.177 C 
ATOM     29  O   UNL     1      35.677  13.236   0.545  0.00  0.00    -0.221 OA
ATOM     30  C   UNL     1      33.291  13.770   0.252  0.00  0.00    +0.155 C 
BRANCH  30  31
ATOM     31  N   UNL     1      33.199  12.879  -0.902  0.00  0.00    -0.202 NA
ATOM     32  C   UNL     1      33.251  13.168  -2.227  0.00  0.00    +0.242 C 
ATOM     33  C   UNL     1      33.428  12.031  -3.201  0.00  0.00    +0.096 C 
ATOM     34  O   UNL     1      33.156  14.336  -2.599  0.00  0.00    -0.273 OA
ENDBRANCH  30  31
BRANCH  26  35
ATOM     35  C   UNL     1      32.933  12.862   3.977  0.00  0.00    +0.391 C 
ATOM     36  O   UNL     1      34.156  12.533   4.436  0.00  0.00    -0.243 OA
ATOM     37  O   UNL     1      31.610  12.747   4.150  0.00  0.00    -0.243 OA
ENDBRANCH  26  35
ENDBRANCH  22  24
ENDBRANCH  20  22
ENDBRANCH   1  20
TORSDOF 15
