REMARK VINA RESULT:    -7.934      2.575      5.180
REMARK INTER + INTRA:         -14.804
REMARK INTER:                 -11.578
REMARK INTRA:                  -3.225
REMARK UNBOUND:                -1.768
REMARK  Name = lig_assembled_91.pdb
REMARK  11 active torsions:
REMARK  status: ('A' for Active; 'I' for Inactive)
REMARK    1  A    between atoms: _2  and  _9
REMARK    2  A    between atoms: _6  and  _7
REMARK    3  A    between atoms: _6  and  _21
REMARK    4  A    between atoms: _21  and  _23
REMARK    5  A    between atoms: _22  and  _27
REMARK    6  A    between atoms: _23  and  _26
REMARK    7  A    between atoms: _31  and  _41
REMARK    8  A    between atoms: _33  and  _34
REMARK    9  A    between atoms: _35  and  _37
REMARK   10  A    between atoms: _37  and  _39
REMARK   11  A    between atoms: _39  and  _41
REMARK                            x       y       z     vdW  Elec       q    Type
REMARK                         _______ _______ _______ _____ _____    ______ ____
ROOT
ATOM      1  C   UNL     1      28.189  12.658   3.723  0.00  0.00    +0.400 C 
ATOM      2  N   UNL     1      29.500  12.925   4.042  0.00  0.00    -0.278 N 
ATOM      3  H   UNL     1      29.594  13.971   3.846  0.00  0.00    +0.152 HD
ATOM      4  O   UNL     1      27.443  13.608   3.495  0.00  0.00    -0.226 OA
ENDROOT
BRANCH   1   5
ATOM      5  O   UNL     1      27.871  11.407   3.663  0.00  0.00    -0.450 OA
BRANCH   5   6
ATOM      6  C   UNL     1      27.643  10.408   2.696  0.00  0.00    +0.240 C 
BRANCH   6   7
ATOM      7  C   UNL     1      28.294  10.596   1.312  0.00  0.00    +0.100 C 
BRANCH   7   9
ATOM      8  N   UNL     1      27.039  10.374  -0.803  0.00  0.00    -0.134 NA
ATOM      9  C   UNL     1      27.301  11.077   0.334  0.00  0.00    +0.086 A 
ATOM     10  C   UNL     1      26.500  12.196   0.358  0.00  0.00    +0.139 A 
ATOM     11  N   UNL     1      25.785  12.166  -0.823  0.00  0.00    -0.219 N 
ATOM     12  N   UNL     1      26.122  11.034  -1.493  0.00  0.00    -0.060 NA
BRANCH  11  13
ATOM     13  C   UNL     1      24.843  13.107  -1.343  0.00  0.00    +0.085 A 
ATOM     14  C   UNL     1      25.284  14.170  -2.210  0.00  0.00    +0.026 A 
ATOM     15  C   UNL     1      24.279  15.056  -2.646  0.00  0.00    +0.074 A 
ATOM     16  C   UNL     1      24.582  16.119  -3.483  0.00  0.00    +0.028 A 
ATOM     17  C   UNL     1      25.875  16.360  -3.938  0.00  0.00    +0.002 A 
ATOM     18  C   UNL     1      26.885  15.497  -3.566  0.00  0.00    +0.001 A 
ATOM     19  N   UNL     1      22.994  14.938  -2.320  0.00  0.00    -0.247 NA
ATOM     20  C   UNL     1      22.586  13.937  -1.540  0.00  0.00    +0.074 A 
ATOM     21  C   UNL     1      21.223  13.912  -1.262  0.00  0.00    +0.028 A 
ATOM     22  C   UNL     1      20.652  12.951  -0.434  0.00  0.00    +0.002 A 
ATOM     23  C   UNL     1      21.466  11.996   0.143  0.00  0.00    +0.001 A 
ATOM     24  C   UNL     1      22.839  12.012  -0.123  0.00  0.00    +0.012 A 
ATOM     25  C   UNL     1      26.593  14.409  -2.736  0.00  0.00    +0.012 A 
ATOM     26  C   UNL     1      23.448  12.974  -0.993  0.00  0.00    +0.026 A 
ENDBRANCH  11  13
ENDBRANCH   7   9
ENDBRANCH   6   7
ENDBRANCH   5   6
ENDBRANCH   1   5
BRANCH   2  27
ATOM     27  C   UNL     1      30.786  12.435   4.530  0.00  0.00    +0.152 C 
BRANCH  27  28
ATOM     28  C   UNL     1      32.033  12.913   3.758  0.00  0.00    +0.193 C 
ATOM     29  O   UNL     1      33.183  12.496   4.528  0.00  0.00    -0.219 OA
BRANCH  28  30
ATOM     30  C   UNL     1      32.275  12.320   2.353  0.00  0.00    +0.212 C 
ATOM     31  O   UNL     1      31.565  11.079   2.202  0.00  0.00    -0.218 OA
BRANCH  30  32
ATOM     32  C   UNL     1      31.848  13.288   1.184  0.00  0.00    +0.171 C 
ATOM     33  O   UNL     1      30.468  13.633   1.235  0.00  0.00    -0.343 OA
ATOM     34  C   UNL     1      29.776  14.269   0.201  0.00  0.00    +0.220 C 
ATOM     35  C   UNL     1      29.993  13.564  -1.149  0.00  0.00    +0.076 C 
ATOM     36  C   UNL     1      31.510  13.438  -1.367  0.00  0.00    +0.177 C 
ATOM     37  O   UNL     1      31.766  12.827  -2.623  0.00  0.00    -0.221 OA
ATOM     38  C   UNL     1      32.155  12.628  -0.200  0.00  0.00    +0.155 C 
BRANCH  38  39
ATOM     39  N   UNL     1      33.595  12.500  -0.407  0.00  0.00    -0.202 NA
ATOM     40  C   UNL     1      34.346  11.390  -0.622  0.00  0.00    +0.242 C 
ATOM     41  C   UNL     1      35.764  11.566  -1.097  0.00  0.00    +0.096 C 
ATOM     42  O   UNL     1      33.857  10.279  -0.428  0.00  0.00    -0.273 OA
ENDBRANCH  38  39
BRANCH  34  43
ATOM     43  C   UNL     1      30.085  15.861   0.100  0.00  0.00    +0.391 C 
ATOM     44  O   UNL     1      29.088  16.361  -0.656  0.00  0.00    -0.243 OA
ATOM     45  O   UNL     1      31.012  16.118   1.031  0.00  0.00    -0.243 OA
ENDBRANCH  34  43
ENDBRANCH  30  32
ENDBRANCH  28  30
ENDBRANCH  27  28
ENDBRANCH   2  27
TORSDOF 11
