REMARK VINA RESULT:    -6.779      1.441      1.862
REMARK INTER + INTRA:         -13.363
REMARK INTER:                 -11.524
REMARK INTRA:                  -1.839
REMARK UNBOUND:                -1.431
REMARK  Name = lig_assembled_36.pdb
REMARK  13 active torsions:
REMARK  status: ('A' for Active; 'I' for Inactive)
REMARK    1  A    between atoms: _2  and  _9
REMARK    2  A    between atoms: _6  and  _7
REMARK    3  A    between atoms: _6  and  _16
REMARK    4  A    between atoms: _9  and  _10
REMARK    5  A    between atoms: _13  and  _14
REMARK    6  A    between atoms: _16  and  _18
REMARK    7  A    between atoms: _17  and  _22
REMARK    8  A    between atoms: _18  and  _21
REMARK    9  A    between atoms: _26  and  _36
REMARK   10  A    between atoms: _28  and  _29
REMARK   11  A    between atoms: _30  and  _32
REMARK   12  A    between atoms: _32  and  _34
REMARK   13  A    between atoms: _34  and  _36
REMARK                            x       y       z     vdW  Elec       q    Type
REMARK                         _______ _______ _______ _____ _____    ______ ____
ROOT
ATOM      1  C   UNL     1      27.587  14.080  -2.009  0.00  0.00    +0.400 C 
ATOM      2  N   UNL     1      28.549  14.536  -1.138  0.00  0.00    -0.278 N 
ATOM      3  H   UNL     1      29.219  13.708  -1.054  0.00  0.00    +0.152 HD
ATOM      4  O   UNL     1      27.788  13.014  -2.586  0.00  0.00    -0.226 OA
ENDROOT
BRANCH   1   5
ATOM      5  O   UNL     1      26.531  14.817  -2.113  0.00  0.00    -0.450 OA
BRANCH   5   6
ATOM      6  C   UNL     1      26.104  15.985  -2.776  0.00  0.00    +0.240 C 
BRANCH   6   7
ATOM      7  C   UNL     1      25.610  15.837  -4.228  0.00  0.00    +0.100 C 
BRANCH   7   9
ATOM      8  N   UNL     1      24.087  14.120  -5.157  0.00  0.00    -0.134 NA
ATOM      9  C   UNL     1      24.318  15.129  -4.259  0.00  0.00    +0.086 A 
ATOM     10  C   UNL     1      23.203  15.292  -3.466  0.00  0.00    +0.134 A 
ATOM     11  N   UNL     1      22.370  14.291  -3.869  0.00  0.00    -0.247 N 
ATOM     12  N   UNL     1      22.879  13.624  -4.922  0.00  0.00    -0.065 NA
BRANCH  11  13
ATOM     13  C   UNL     1      21.097  13.904  -3.294  0.00  0.00    +0.180 C 
BRANCH  13  14
ATOM     14  C   UNL     1      21.286  13.165  -1.989  0.00  0.00    -0.026 A 
ATOM     15  C   UNL     1      20.639  13.592  -0.819  0.00  0.00    +0.007 A 
ATOM     16  C   UNL     1      20.815  12.899   0.383  0.00  0.00    +0.019 A 
ATOM     17  C   UNL     1      21.645  11.776   0.433  0.00  0.00    +0.052 A 
ATOM     18  C   UNL     1      22.313  11.358  -0.721  0.00  0.00    +0.019 A 
ATOM     19  C   UNL     1      22.137  12.051  -1.923  0.00  0.00    +0.007 A 
BRANCH  17  20
ATOM     20  C   UNL     1      21.808  11.053   1.663  0.00  0.00    +0.099 C 
ATOM     21  N   UNL     1      21.951  10.467   2.654  0.00  0.00    -0.191 NA
ENDBRANCH  17  20
ENDBRANCH  13  14
ENDBRANCH  11  13
ENDBRANCH   7   9
ENDBRANCH   6   7
ENDBRANCH   5   6
ENDBRANCH   1   5
BRANCH   2  22
ATOM     22  C   UNL     1      29.060  15.624  -0.309  0.00  0.00    +0.152 C 
BRANCH  22  23
ATOM     23  C   UNL     1      30.378  15.344   0.443  0.00  0.00    +0.193 C 
ATOM     24  O   UNL     1      30.896  16.625   0.865  0.00  0.00    -0.219 OA
BRANCH  23  25
ATOM     25  C   UNL     1      30.298  14.514   1.743  0.00  0.00    +0.212 C 
ATOM     26  O   UNL     1      29.217  13.570   1.669  0.00  0.00    -0.218 OA
BRANCH  25  27
ATOM     27  C   UNL     1      31.628  13.733   2.068  0.00  0.00    +0.171 C 
ATOM     28  O   UNL     1      32.536  14.501   2.852  0.00  0.00    -0.343 OA
ATOM     29  C   UNL     1      33.870  14.155   3.076  0.00  0.00    +0.220 C 
ATOM     30  C   UNL     1      34.605  13.831   1.764  0.00  0.00    +0.076 C 
ATOM     31  C   UNL     1      33.777  12.769   1.020  0.00  0.00    +0.177 C 
ATOM     32  O   UNL     1      34.434  12.404  -0.185  0.00  0.00    -0.221 OA
ATOM     33  C   UNL     1      32.339  13.307   0.742  0.00  0.00    +0.155 C 
BRANCH  33  34
ATOM     34  N   UNL     1      31.551  12.304   0.030  0.00  0.00    -0.202 NA
ATOM     35  C   UNL     1      31.173  12.262  -1.273  0.00  0.00    +0.242 C 
ATOM     36  C   UNL     1      30.618  10.971  -1.816  0.00  0.00    +0.096 C 
ATOM     37  O   UNL     1      31.293  13.266  -1.973  0.00  0.00    -0.273 OA
ENDBRANCH  33  34
BRANCH  29  38
ATOM     38  C   UNL     1      34.056  12.969   4.172  0.00  0.00    +0.391 C 
ATOM     39  O   UNL     1      35.375  12.694   4.166  0.00  0.00    -0.243 OA
ATOM     40  O   UNL     1      32.913  12.927   4.867  0.00  0.00    -0.243 OA
ENDBRANCH  29  38
ENDBRANCH  25  27
ENDBRANCH  23  25
ENDBRANCH  22  23
ENDBRANCH   2  22
TORSDOF 13
