REMARK VINA RESULT:    -5.855      3.300      7.697
REMARK INTER + INTRA:         -12.592
REMARK INTER:                 -10.176
REMARK INTRA:                  -2.416
REMARK UNBOUND:                -2.287
REMARK  Name = lig_assembled_67.pdb
REMARK  13 active torsions:
REMARK  status: ('A' for Active; 'I' for Inactive)
REMARK    1  A    between atoms: _2  and  _8
REMARK    2  A    between atoms: _5  and  _6
REMARK    3  A    between atoms: _5  and  _14
REMARK    4  A    between atoms: _8  and  _9
REMARK    5  A    between atoms: _9  and  _10
REMARK    6  A    between atoms: _14  and  _16
REMARK    7  A    between atoms: _15  and  _20
REMARK    8  A    between atoms: _16  and  _19
REMARK    9  A    between atoms: _24  and  _34
REMARK   10  A    between atoms: _26  and  _27
REMARK   11  A    between atoms: _28  and  _30
REMARK   12  A    between atoms: _30  and  _32
REMARK   13  A    between atoms: _32  and  _34
REMARK                            x       y       z     vdW  Elec       q    Type
REMARK                         _______ _______ _______ _____ _____    ______ ____
ROOT
ATOM      1  C   UNL     1      28.393  17.222  -0.585  0.00  0.00    +0.400 C 
ATOM      2  N   UNL     1      27.400  16.676  -1.365  0.00  0.00    -0.278 N 
ATOM      3  H   UNL     1      26.509  17.120  -0.976  0.00  0.00    +0.152 HD
ATOM      4  O   UNL     1      28.095  18.142   0.172  0.00  0.00    -0.226 OA
ENDROOT
BRANCH   2   5
ATOM      5  C   UNL     1      27.027  15.795  -2.468  0.00  0.00    +0.152 C 
BRANCH   5   6
ATOM      6  C   UNL     1      25.781  16.209  -3.277  0.00  0.00    +0.193 C 
ATOM      7  O   UNL     1      26.091  17.475  -3.899  0.00  0.00    -0.219 OA
BRANCH   6   8
ATOM      8  C   UNL     1      25.354  15.298  -4.449  0.00  0.00    +0.212 C 
ATOM      9  O   UNL     1      26.052  15.666  -5.650  0.00  0.00    -0.218 OA
BRANCH   8  10
ATOM     10  C   UNL     1      25.603  13.766  -4.172  0.00  0.00    +0.171 C 
ATOM     11  O   UNL     1      26.406  13.151  -5.174  0.00  0.00    -0.343 OA
ATOM     12  C   UNL     1      26.579  11.772  -5.310  0.00  0.00    +0.220 C 
ATOM     13  C   UNL     1      25.232  11.027  -5.323  0.00  0.00    +0.076 C 
ATOM     14  C   UNL     1      24.450  11.462  -4.073  0.00  0.00    +0.177 C 
ATOM     15  O   UNL     1      23.210  10.771  -4.016  0.00  0.00    -0.221 OA
ATOM     16  C   UNL     1      24.238  13.008  -4.083  0.00  0.00    +0.155 C 
BRANCH  16  17
ATOM     17  N   UNL     1      23.489  13.424  -2.900  0.00  0.00    -0.202 NA
ATOM     18  C   UNL     1      22.297  14.068  -2.809  0.00  0.00    +0.242 C 
ATOM     19  C   UNL     1      21.609  14.114  -1.469  0.00  0.00    +0.096 C 
ATOM     20  O   UNL     1      21.811  14.590  -3.810  0.00  0.00    -0.273 OA
ENDBRANCH  16  17
BRANCH  12  21
ATOM     21  C   UNL     1      27.601  11.137  -4.218  0.00  0.00    +0.391 C 
ATOM     22  O   UNL     1      27.471   9.803  -4.354  0.00  0.00    -0.243 OA
ATOM     23  O   UNL     1      28.388  12.144  -3.819  0.00  0.00    -0.243 OA
ENDBRANCH  12  21
ENDBRANCH   8  10
ENDBRANCH   6   8
ENDBRANCH   5   6
ENDBRANCH   2   5
BRANCH   1  24
ATOM     24  O   UNL     1      29.560  16.680  -0.706  0.00  0.00    -0.450 OA
BRANCH  24  25
ATOM     25  C   UNL     1      30.564  16.114   0.104  0.00  0.00    +0.240 C 
BRANCH  25  26
ATOM     26  C   UNL     1      30.693  14.579   0.107  0.00  0.00    +0.100 C 
BRANCH  26  28
ATOM     27  N   UNL     1      28.492  13.572  -0.409  0.00  0.00    -0.134 NA
ATOM     28  C   UNL     1      29.422  13.956   0.522  0.00  0.00    +0.086 A 
ATOM     29  C   UNL     1      28.949  13.660   1.780  0.00  0.00    +0.133 A 
ATOM     30  N   UNL     1      27.727  13.103   1.548  0.00  0.00    -0.251 N 
ATOM     31  N   UNL     1      27.453  13.054   0.234  0.00  0.00    -0.065 NA
BRANCH  30  32
ATOM     32  C   UNL     1      26.780  12.588   2.511  0.00  0.00    +0.150 C 
BRANCH  32  33
ATOM     33  C   UNL     1      26.700  11.064   2.536  0.00  0.00    +0.084 C 
BRANCH  33  34
ATOM     34  C   UNL     1      25.335  10.546   2.105  0.00  0.00    +0.252 C 
ATOM     35  O   UNL     1      24.307  11.129   2.913  0.00  0.00    -0.349 OA
ATOM     36  C   UNL     1      23.181  11.153   2.039  0.00  0.00    +0.191 C 
ATOM     37  C   UNL     1      23.791  11.455   0.694  0.00  0.00    +0.191 C 
ATOM     38  O   UNL     1      25.091  10.865   0.730  0.00  0.00    -0.349 OA
ENDBRANCH  33  34
ENDBRANCH  32  33
ENDBRANCH  30  32
ENDBRANCH  26  28
ENDBRANCH  25  26
ENDBRANCH  24  25
ENDBRANCH   1  24
TORSDOF 13
