REMARK VINA RESULT:    -7.711      1.213      3.427
REMARK INTER + INTRA:         -13.746
REMARK INTER:                 -12.346
REMARK INTRA:                  -1.400
REMARK UNBOUND:                -0.626
REMARK  Name = lig_assembled_5.pdb
REMARK  13 active torsions:
REMARK  status: ('A' for Active; 'I' for Inactive)
REMARK    1  A    between atoms: _2  and  _8
REMARK    2  A    between atoms: _5  and  _6
REMARK    3  A    between atoms: _5  and  _15
REMARK    4  A    between atoms: _11  and  _14
REMARK    5  A    between atoms: _12  and  _14
REMARK    6  A    between atoms: _15  and  _17
REMARK    7  A    between atoms: _16  and  _21
REMARK    8  A    between atoms: _17  and  _20
REMARK    9  A    between atoms: _25  and  _35
REMARK   10  A    between atoms: _27  and  _28
REMARK   11  A    between atoms: _29  and  _31
REMARK   12  A    between atoms: _31  and  _33
REMARK   13  A    between atoms: _33  and  _35
REMARK                            x       y       z     vdW  Elec       q    Type
REMARK                         _______ _______ _______ _____ _____    ______ ____
ROOT
ATOM      1  C   UNL     1      27.660  17.622  -1.194  0.00  0.00    +0.400 C 
ATOM      2  N   UNL     1      28.383  16.968  -0.224  0.00  0.00    -0.278 N 
ATOM      3  H   UNL     1      28.726  17.760   0.406  0.00  0.00    +0.152 HD
ATOM      4  O   UNL     1      27.429  18.818  -1.036  0.00  0.00    -0.226 OA
ENDROOT
BRANCH   2   5
ATOM      5  C   UNL     1      28.868  15.705   0.327  0.00  0.00    +0.152 C 
BRANCH   5   6
ATOM      6  C   UNL     1      30.183  15.163  -0.270  0.00  0.00    +0.193 C 
ATOM      7  O   UNL     1      31.020  16.309  -0.538  0.00  0.00    -0.219 OA
BRANCH   6   8
ATOM      8  C   UNL     1      31.051  14.251   0.623  0.00  0.00    +0.212 C 
ATOM      9  O   UNL     1      30.332  13.057   0.971  0.00  0.00    -0.218 OA
BRANCH   8  10
ATOM     10  C   UNL     1      32.417  13.838  -0.047  0.00  0.00    +0.171 C 
ATOM     11  O   UNL     1      32.236  13.100  -1.251  0.00  0.00    -0.343 OA
ATOM     12  C   UNL     1      33.254  12.409  -1.913  0.00  0.00    +0.220 C 
ATOM     13  C   UNL     1      34.031  11.487  -0.958  0.00  0.00    +0.076 C 
ATOM     14  C   UNL     1      34.497  12.341   0.233  0.00  0.00    +0.177 C 
ATOM     15  O   UNL     1      35.257  11.543   1.130  0.00  0.00    -0.221 OA
ATOM     16  C   UNL     1      33.267  12.982   0.948  0.00  0.00    +0.155 C 
BRANCH  16  17
ATOM     17  N   UNL     1      33.705  13.789   2.084  0.00  0.00    -0.202 NA
ATOM     18  C   UNL     1      33.432  13.646   3.406  0.00  0.00    +0.242 C 
ATOM     19  C   UNL     1      34.249  14.438   4.395  0.00  0.00    +0.096 C 
ATOM     20  O   UNL     1      32.538  12.882   3.763  0.00  0.00    -0.273 OA
ENDBRANCH  16  17
BRANCH  12  21
ATOM     21  C   UNL     1      34.252  13.376  -2.754  0.00  0.00    +0.391 C 
ATOM     22  O   UNL     1      35.400  12.679  -2.864  0.00  0.00    -0.243 OA
ATOM     23  O   UNL     1      33.484  14.344  -3.268  0.00  0.00    -0.243 OA
ENDBRANCH  12  21
ENDBRANCH   8  10
ENDBRANCH   6   8
ENDBRANCH   5   6
ENDBRANCH   2   5
BRANCH   1  24
ATOM     24  O   UNL     1      27.315  16.906  -2.213  0.00  0.00    -0.450 OA
BRANCH  24  25
ATOM     25  C   UNL     1      26.745  17.071  -3.490  0.00  0.00    +0.240 C 
BRANCH  25  26
ATOM     26  C   UNL     1      26.096  15.836  -4.145  0.00  0.00    +0.100 C 
BRANCH  26  28
ATOM     27  N   UNL     1      23.830  15.875  -3.152  0.00  0.00    -0.134 NA
ATOM     28  C   UNL     1      25.053  15.280  -3.264  0.00  0.00    +0.086 A 
ATOM     29  C   UNL     1      25.084  14.162  -2.462  0.00  0.00    +0.139 A 
ATOM     30  N   UNL     1      23.830  14.097  -1.894  0.00  0.00    -0.220 N 
ATOM     31  N   UNL     1      23.096  15.157  -2.313  0.00  0.00    -0.061 NA
BRANCH  30  32
ATOM     32  C   UNL     1      23.299  13.105  -1.028  0.00  0.00    +0.067 A 
ATOM     33  C   UNL     1      21.916  12.933  -0.899  0.00  0.00    +0.031 A 
ATOM     34  C   UNL     1      21.412  11.995   0.005  0.00  0.00    +0.048 A 
ATOM     35  C   UNL     1      22.271  11.205   0.771  0.00  0.00    +0.120 A 
ATOM     36  C   UNL     1      23.650  11.361   0.631  0.00  0.00    +0.048 A 
ATOM     37  C   UNL     1      24.164  12.308  -0.265  0.00  0.00    +0.031 A 
BRANCH  35  38
ATOM     38  O   UNL     1      21.648  10.372   1.658  0.00  0.00    -0.495 OA
ATOM     39  C   UNL     1      22.463   9.818   2.683  0.00  0.00    +0.277 C 
ENDBRANCH  35  38
ENDBRANCH  30  32
ENDBRANCH  26  28
ENDBRANCH  25  26
ENDBRANCH  24  25
ENDBRANCH   1  24
TORSDOF 12
