REMARK VINA RESULT:    -7.057      4.489     10.899
REMARK INTER + INTRA:         -14.601
REMARK INTER:                 -12.539
REMARK INTRA:                  -2.062
REMARK UNBOUND:                -1.975
REMARK  Name = lig_assembled_77.pdb
REMARK  14 active torsions:
REMARK  status: ('A' for Active; 'I' for Inactive)
REMARK    1  A    between atoms: _2  and  _9
REMARK    2  A    between atoms: _3  and  _16
REMARK    3  A    between atoms: _6  and  _7
REMARK    4  A    between atoms: _6  and  _22
REMARK    5  A    between atoms: _12  and  _50
REMARK    6  A    between atoms: _13  and  _50
REMARK    7  A    between atoms: _22  and  _24
REMARK    8  A    between atoms: _23  and  _28
REMARK    9  A    between atoms: _24  and  _27
REMARK   10  A    between atoms: _32  and  _42
REMARK   11  A    between atoms: _34  and  _35
REMARK   12  A    between atoms: _36  and  _38
REMARK   13  A    between atoms: _38  and  _40
REMARK   14  A    between atoms: _40  and  _42
REMARK                            x       y       z     vdW  Elec       q    Type
REMARK                         _______ _______ _______ _____ _____    ______ ____
ROOT
ATOM      1  C   UNL     1      32.352  12.214   3.374  0.00  0.00    +0.240 C 
ENDROOT
BRANCH   1   2
ATOM      2  C   UNL     1      31.013  12.921   3.658  0.00  0.00    +0.100 C 
BRANCH   2   4
ATOM      3  N   UNL     1      31.417  14.884   2.211  0.00  0.00    -0.134 NA
ATOM      4  C   UNL     1      30.648  13.805   2.535  0.00  0.00    +0.086 A 
ATOM      5  C   UNL     1      29.579  13.739   1.671  0.00  0.00    +0.139 A 
ATOM      6  N   UNL     1      29.745  14.806   0.818  0.00  0.00    -0.220 N 
ATOM      7  N   UNL     1      30.858  15.492   1.173  0.00  0.00    -0.061 NA
BRANCH   6   8
ATOM      8  C   UNL     1      28.970  15.169  -0.316  0.00  0.00    +0.067 A 
ATOM      9  C   UNL     1      28.699  16.516  -0.603  0.00  0.00    +0.030 A 
ATOM     10  C   UNL     1      27.836  16.848  -1.652  0.00  0.00    +0.029 A 
ATOM     11  C   UNL     1      27.249  15.836  -2.413  0.00  0.00    +0.094 A 
ATOM     12  C   UNL     1      27.584  14.497  -2.195  0.00  0.00    +0.029 A 
ATOM     13  C   UNL     1      28.435  14.163  -1.139  0.00  0.00    +0.030 A 
BRANCH  11  14
ATOM     14  S   UNL     1      26.096  16.260  -3.703  0.00  0.00    +0.025 S 
ATOM     15  O   UNL     1      25.795  17.670  -3.529  0.00  0.00    -0.164 OA
ATOM     16  O   UNL     1      26.644  15.769  -4.953  0.00  0.00    -0.164 OA
BRANCH  14  17
ATOM     17  C   UNL     1      24.579  15.366  -3.436  0.00  0.00    +0.094 A 
ATOM     18  C   UNL     1      24.017  15.269  -2.162  0.00  0.00    +0.029 A 
ATOM     19  C   UNL     1      22.857  14.508  -1.978  0.00  0.00    +0.024 A 
ATOM     20  C   UNL     1      22.226  13.878  -3.058  0.00  0.00    +0.025 A 
ATOM     21  C   UNL     1      22.820  13.961  -4.321  0.00  0.00    +0.024 A 
ATOM     22  C   UNL     1      23.979  14.717  -4.519  0.00  0.00    +0.029 A 
BRANCH  20  23
ATOM     23  N   UNL     1      21.174  12.985  -2.836  0.00  0.00    -0.358 N 
ATOM     24  H   UNL     1      21.426  12.151  -2.316  0.00  0.00    +0.142 HD
ATOM     25  H   UNL     1      20.323  13.418  -2.489  0.00  0.00    +0.142 HD
ENDBRANCH  20  23
ENDBRANCH  14  17
ENDBRANCH  11  14
ENDBRANCH   6   8
ENDBRANCH   2   4
ENDBRANCH   1   2
BRANCH   1  26
ATOM     26  O   UNL     1      33.492  12.685   4.054  0.00  0.00    -0.450 OA
BRANCH  26  27
ATOM     27  C   UNL     1      33.835  13.653   4.839  0.00  0.00    +0.400 C 
ATOM     28  N   UNL     1      33.716  13.399   6.185  0.00  0.00    -0.278 N 
ATOM     29  H   UNL     1      34.223  14.223   6.639  0.00  0.00    +0.152 HD
ATOM     30  O   UNL     1      34.278  14.746   4.493  0.00  0.00    -0.226 OA
BRANCH  28  31
ATOM     31  C   UNL     1      33.207  12.536   7.248  0.00  0.00    +0.152 C 
BRANCH  31  32
ATOM     32  C   UNL     1      33.706  11.077   7.236  0.00  0.00    +0.193 C 
ATOM     33  O   UNL     1      34.600  10.935   8.362  0.00  0.00    -0.219 OA
BRANCH  32  34
ATOM     34  C   UNL     1      32.657   9.960   7.434  0.00  0.00    +0.212 C 
ATOM     35  O   UNL     1      33.154   8.960   8.339  0.00  0.00    -0.218 OA
BRANCH  34  36
ATOM     36  C   UNL     1      31.276  10.490   7.978  0.00  0.00    +0.171 C 
ATOM     37  O   UNL     1      31.165  10.379   9.393  0.00  0.00    -0.343 OA
ATOM     38  C   UNL     1      29.975  10.543  10.106  0.00  0.00    +0.220 C 
ATOM     39  C   UNL     1      28.836   9.692   9.519  0.00  0.00    +0.076 C 
ATOM     40  C   UNL     1      28.742  10.016   8.019  0.00  0.00    +0.177 C 
ATOM     41  O   UNL     1      27.676   9.283   7.433  0.00  0.00    -0.221 OA
ATOM     42  C   UNL     1      30.099   9.702   7.315  0.00  0.00    +0.155 C 
BRANCH  42  43
ATOM     43  N   UNL     1      30.012  10.003   5.888  0.00  0.00    -0.202 NA
ATOM     44  C   UNL     1      30.074   9.168   4.820  0.00  0.00    +0.242 C 
ATOM     45  C   UNL     1      29.661   9.699   3.472  0.00  0.00    +0.096 C 
ATOM     46  O   UNL     1      30.459   8.011   4.975  0.00  0.00    -0.273 OA
ENDBRANCH  42  43
BRANCH  38  47
ATOM     47  C   UNL     1      29.532  12.097  10.277  0.00  0.00    +0.391 C 
ATOM     48  O   UNL     1      30.616  12.809   9.913  0.00  0.00    -0.243 OA
ATOM     49  O   UNL     1      28.201  12.089  10.416  0.00  0.00    -0.243 OA
ENDBRANCH  38  47
ENDBRANCH  34  36
ENDBRANCH  32  34
ENDBRANCH  31  32
ENDBRANCH  28  31
ENDBRANCH  26  27
ENDBRANCH   1  26
TORSDOF 14
