REMARK VINA RESULT:    -5.984      3.136      8.769
REMARK INTER + INTRA:         -13.652
REMARK INTER:                 -11.247
REMARK INTRA:                  -2.405
REMARK UNBOUND:                -1.720
REMARK  Name = lig_assembled_54.pdb
REMARK  19 active torsions:
REMARK  status: ('A' for Active; 'I' for Inactive)
REMARK    1  A    between atoms: _2  and  _8
REMARK    2  A    between atoms: _4  and  _13
REMARK    3  A    between atoms: _5  and  _6
REMARK    4  A    between atoms: _5  and  _16
REMARK    5  A    between atoms: _8  and  _9
REMARK    6  A    between atoms: _9  and  _10
REMARK    7  A    between atoms: _10  and  _14
REMARK    8  A    between atoms: _10  and  _15
REMARK    9  A    between atoms: _11  and  _12
REMARK   10  A    between atoms: _11  and  _15
REMARK   11  A    between atoms: _13  and  _14
REMARK   12  A    between atoms: _16  and  _18
REMARK   13  A    between atoms: _17  and  _22
REMARK   14  A    between atoms: _18  and  _21
REMARK   15  A    between atoms: _26  and  _36
REMARK   16  A    between atoms: _28  and  _29
REMARK   17  A    between atoms: _30  and  _32
REMARK   18  A    between atoms: _32  and  _34
REMARK   19  A    between atoms: _34  and  _36
REMARK                            x       y       z     vdW  Elec       q    Type
REMARK                         _______ _______ _______ _____ _____    ______ ____
ROOT
ATOM      1  C   UNL     1      27.854  15.020  -1.286  0.00  0.00    +0.400 C 
ATOM      2  N   UNL     1      26.701  15.014  -2.035  0.00  0.00    -0.278 N 
ATOM      3  H   UNL     1      26.410  13.985  -2.034  0.00  0.00    +0.152 HD
ATOM      4  O   UNL     1      28.158  13.993  -0.684  0.00  0.00    -0.226 OA
ENDROOT
BRANCH   1   5
ATOM      5  O   UNL     1      28.534  16.119  -1.314  0.00  0.00    -0.450 OA
BRANCH   5   6
ATOM      6  C   UNL     1      28.728  17.275  -0.533  0.00  0.00    +0.240 C 
BRANCH   6   7
ATOM      7  C   UNL     1      30.129  17.500   0.067  0.00  0.00    +0.100 C 
BRANCH   7   9
ATOM      8  N   UNL     1      31.700  15.700  -0.582  0.00  0.00    -0.134 NA
ATOM      9  C   UNL     1      30.789  16.203   0.308  0.00  0.00    +0.086 A 
ATOM     10  C   UNL     1      30.664  15.330   1.368  0.00  0.00    +0.133 A 
ATOM     11  N   UNL     1      31.551  14.337   1.081  0.00  0.00    -0.251 N 
ATOM     12  N   UNL     1      32.168  14.558  -0.094  0.00  0.00    -0.065 NA
BRANCH  11  13
ATOM     13  C   UNL     1      31.910  13.190   1.891  0.00  0.00    +0.150 C 
BRANCH  13  14
ATOM     14  C   UNL     1      31.425  13.338   3.325  0.00  0.00    +0.084 C 
BRANCH  14  15
ATOM     15  C   UNL     1      30.301  12.364   3.693  0.00  0.00    +0.252 C 
BRANCH  15  16
ATOM     16  O   UNL     1      30.812  11.031   3.780  0.00  0.00    -0.352 OA
BRANCH  16  17
ATOM     17  C   UNL     1      29.817  10.016   3.659  0.00  0.00    +0.159 C 
ATOM     18  C   UNL     1      29.130   9.843   4.999  0.00  0.00    +0.034 C 
ENDBRANCH  16  17
ENDBRANCH  15  16
BRANCH  15  19
ATOM     19  O   UNL     1      29.309  12.438   2.662  0.00  0.00    -0.352 OA
BRANCH  19  20
ATOM     20  C   UNL     1      28.199  13.261   3.029  0.00  0.00    +0.159 C 
ATOM     21  C   UNL     1      26.942  12.415   3.054  0.00  0.00    +0.034 C 
ENDBRANCH  19  20
ENDBRANCH  15  19
ENDBRANCH  14  15
ENDBRANCH  13  14
ENDBRANCH  11  13
ENDBRANCH   7   9
ENDBRANCH   6   7
ENDBRANCH   5   6
ENDBRANCH   1   5
BRANCH   2  22
ATOM     22  C   UNL     1      25.711  15.767  -2.802  0.00  0.00    +0.152 C 
BRANCH  22  23
ATOM     23  C   UNL     1      25.468  15.291  -4.249  0.00  0.00    +0.193 C 
ATOM     24  O   UNL     1      26.708  14.712  -4.710  0.00  0.00    -0.219 OA
BRANCH  23  25
ATOM     25  C   UNL     1      24.418  14.180  -4.469  0.00  0.00    +0.212 C 
ATOM     26  O   UNL     1      25.015  13.048  -5.124  0.00  0.00    -0.218 OA
BRANCH  25  27
ATOM     27  C   UNL     1      23.738  13.689  -3.134  0.00  0.00    +0.171 C 
ATOM     28  O   UNL     1      24.201  12.407  -2.723  0.00  0.00    -0.343 OA
ATOM     29  C   UNL     1      23.601  11.635  -1.726  0.00  0.00    +0.220 C 
ATOM     30  C   UNL     1      22.085  11.493  -1.948  0.00  0.00    +0.076 C 
ATOM     31  C   UNL     1      21.506  12.909  -2.108  0.00  0.00    +0.177 C 
ATOM     32  O   UNL     1      20.097  12.837  -2.277  0.00  0.00    -0.221 OA
ATOM     33  C   UNL     1      22.185  13.635  -3.310  0.00  0.00    +0.155 C 
BRANCH  33  34
ATOM     34  N   UNL     1      21.633  14.978  -3.469  0.00  0.00    -0.202 NA
ATOM     35  C   UNL     1      20.968  15.524  -4.519  0.00  0.00    +0.242 C 
ATOM     36  C   UNL     1      20.250  16.832  -4.309  0.00  0.00    +0.096 C 
ATOM     37  O   UNL     1      20.966  14.946  -5.604  0.00  0.00    -0.273 OA
ENDBRANCH  33  34
BRANCH  29  38
ATOM     38  C   UNL     1      23.937  12.147  -0.221  0.00  0.00    +0.391 C 
ATOM     39  O   UNL     1      23.076  11.482   0.573  0.00  0.00    -0.243 OA
ATOM     40  O   UNL     1      25.111  12.786  -0.302  0.00  0.00    -0.243 OA
ENDBRANCH  29  38
ENDBRANCH  25  27
ENDBRANCH  23  25
ENDBRANCH  22  23
ENDBRANCH   2  22
TORSDOF 17
