REMARK VINA RESULT:    -6.564      3.448     10.219
REMARK INTER + INTRA:         -12.331
REMARK INTER:                 -11.156
REMARK INTRA:                  -1.175
REMARK UNBOUND:                -1.545
REMARK  Name = lig_assembled_48.pdb
REMARK  11 active torsions:
REMARK  status: ('A' for Active; 'I' for Inactive)
REMARK    1  A    between atoms: _2  and  _8
REMARK    2  A    between atoms: _5  and  _6
REMARK    3  A    between atoms: _5  and  _13
REMARK    4  A    between atoms: _13  and  _15
REMARK    5  A    between atoms: _14  and  _19
REMARK    6  A    between atoms: _15  and  _18
REMARK    7  A    between atoms: _23  and  _33
REMARK    8  A    between atoms: _25  and  _26
REMARK    9  A    between atoms: _27  and  _29
REMARK   10  A    between atoms: _29  and  _31
REMARK   11  A    between atoms: _31  and  _33
REMARK                            x       y       z     vdW  Elec       q    Type
REMARK                         _______ _______ _______ _____ _____    ______ ____
ROOT
ATOM      1  C   UNL     1      26.559  15.545  -2.619  0.00  0.00    +0.152 C 
ENDROOT
BRANCH   1   3
ATOM      2  C   UNL     1      27.736  17.697  -1.425  0.00  0.00    +0.400 C 
ATOM      3  N   UNL     1      26.832  16.847  -2.016  0.00  0.00    -0.278 N 
ATOM      4  H   UNL     1      25.933  17.424  -2.048  0.00  0.00    +0.152 HD
ATOM      5  O   UNL     1      27.406  18.869  -1.258  0.00  0.00    -0.226 OA
BRANCH   2   6
ATOM      6  O   UNL     1      28.857  17.162  -1.068  0.00  0.00    -0.450 OA
BRANCH   6   7
ATOM      7  C   UNL     1      29.329  16.120  -0.246  0.00  0.00    +0.240 C 
BRANCH   7   8
ATOM      8  C   UNL     1      30.731  16.281   0.372  0.00  0.00    +0.100 C 
BRANCH   8  10
ATOM      9  N   UNL     1      31.062  13.835   0.253  0.00  0.00    -0.134 NA
ATOM     10  C   UNL     1      31.178  15.003   0.954  0.00  0.00    +0.086 A 
ATOM     11  C   UNL     1      31.763  14.740   2.174  0.00  0.00    +0.134 A 
ATOM     12  N   UNL     1      32.067  13.412   2.120  0.00  0.00    -0.248 N 
ATOM     13  N   UNL     1      31.574  12.860   0.990  0.00  0.00    -0.065 NA
BRANCH  12  14
ATOM     14  C   UNL     1      32.850  12.578   3.024  0.00  0.00    +0.109 C 
ATOM     15  C   UNL     1      34.043  11.936   2.292  0.00  0.00    +0.027 C 
ATOM     16  C   UNL     1      35.125  12.966   1.977  0.00  0.00    +0.002 C 
ATOM     17  C   UNL     1      35.647  13.614   3.253  0.00  0.00    +0.000 C 
ATOM     18  C   UNL     1      34.530  14.218   4.100  0.00  0.00    +0.002 C 
ATOM     19  C   UNL     1      33.346  13.266   4.311  0.00  0.00    +0.027 C 
ENDBRANCH  12  14
ENDBRANCH   8  10
ENDBRANCH   7   8
ENDBRANCH   6   7
ENDBRANCH   2   6
ENDBRANCH   1   3
BRANCH   1  20
ATOM     20  C   UNL     1      25.588  15.541  -3.818  0.00  0.00    +0.193 C 
ATOM     21  O   UNL     1      26.389  15.754  -5.001  0.00  0.00    -0.219 OA
BRANCH  20  22
ATOM     22  C   UNL     1      24.813  14.237  -4.107  0.00  0.00    +0.212 C 
ATOM     23  O   UNL     1      25.684  13.255  -4.692  0.00  0.00    -0.218 OA
BRANCH  22  24
ATOM     24  C   UNL     1      24.140  13.613  -2.825  0.00  0.00    +0.171 C 
ATOM     25  O   UNL     1      24.672  12.335  -2.493  0.00  0.00    -0.343 OA
ATOM     26  C   UNL     1      24.102  11.461  -1.565  0.00  0.00    +0.220 C 
ATOM     27  C   UNL     1      22.602  11.244  -1.832  0.00  0.00    +0.076 C 
ATOM     28  C   UNL     1      21.941  12.630  -1.907  0.00  0.00    +0.177 C 
ATOM     29  O   UNL     1      20.543  12.486  -2.113  0.00  0.00    -0.221 OA
ATOM     30  C   UNL     1      22.597  13.479  -3.040  0.00  0.00    +0.155 C 
BRANCH  30  31
ATOM     31  N   UNL     1      21.966  14.794  -3.119  0.00  0.00    -0.202 NA
ATOM     32  C   UNL     1      21.320  15.386  -4.155  0.00  0.00    +0.242 C 
ATOM     33  C   UNL     1      20.508  16.624  -3.879  0.00  0.00    +0.096 C 
ATOM     34  O   UNL     1      21.410  14.903  -5.283  0.00  0.00    -0.273 OA
ENDBRANCH  30  31
BRANCH  26  35
ATOM     35  C   UNL     1      24.378  11.885  -0.022  0.00  0.00    +0.391 C 
ATOM     36  O   UNL     1      23.569  11.091   0.707  0.00  0.00    -0.243 OA
ATOM     37  O   UNL     1      25.494  12.625  -0.035  0.00  0.00    -0.243 OA
ENDBRANCH  26  35
ENDBRANCH  22  24
ENDBRANCH  20  22
ENDBRANCH   1  20
TORSDOF 11
