REMARK VINA RESULT:    -6.481      3.876     10.158
REMARK INTER + INTRA:         -12.456
REMARK INTER:                 -11.093
REMARK INTRA:                  -1.362
REMARK UNBOUND:                -1.808
REMARK  Name = lig_assembled_8.pdb
REMARK  11 active torsions:
REMARK  status: ('A' for Active; 'I' for Inactive)
REMARK    1  A    between atoms: _2  and  _8
REMARK    2  A    between atoms: _5  and  _6
REMARK    3  A    between atoms: _5  and  _13
REMARK    4  A    between atoms: _13  and  _15
REMARK    5  A    between atoms: _14  and  _19
REMARK    6  A    between atoms: _15  and  _18
REMARK    7  A    between atoms: _23  and  _33
REMARK    8  A    between atoms: _25  and  _26
REMARK    9  A    between atoms: _27  and  _29
REMARK   10  A    between atoms: _29  and  _31
REMARK   11  A    between atoms: _31  and  _33
REMARK                            x       y       z     vdW  Elec       q    Type
REMARK                         _______ _______ _______ _____ _____    ______ ____
ROOT
ATOM      1  C   UNL     1      27.909  17.625  -1.141  0.00  0.00    +0.400 C 
ATOM      2  N   UNL     1      27.218  17.560  -2.328  0.00  0.00    -0.278 N 
ATOM      3  H   UNL     1      26.350  18.155  -2.142  0.00  0.00    +0.152 HD
ATOM      4  O   UNL     1      27.521  18.420  -0.288  0.00  0.00    -0.226 OA
ENDROOT
BRANCH   1   5
ATOM      5  O   UNL     1      28.902  16.805  -1.025  0.00  0.00    -0.450 OA
BRANCH   5   6
ATOM      6  C   UNL     1      29.442  15.909  -0.082  0.00  0.00    +0.240 C 
BRANCH   6   7
ATOM      7  C   UNL     1      30.943  16.034   0.239  0.00  0.00    +0.100 C 
BRANCH   7   9
ATOM      8  N   UNL     1      31.235  13.742  -0.629  0.00  0.00    -0.134 NA
ATOM      9  C   UNL     1      31.710  15.009  -0.492  0.00  0.00    +0.086 A 
ATOM     10  C   UNL     1      32.926  15.099  -1.129  0.00  0.00    +0.139 A 
ATOM     11  N   UNL     1      33.154  13.846  -1.672  0.00  0.00    -0.219 N 
ATOM     12  N   UNL     1      32.115  13.050  -1.336  0.00  0.00    -0.061 NA
BRANCH  11  13
ATOM     13  C   UNL     1      34.261  13.419  -2.468  0.00  0.00    +0.081 A 
ATOM     14  C   UNL     1      34.118  13.445  -3.874  0.00  0.00    +0.029 A 
ATOM     15  C   UNL     1      35.146  13.021  -4.721  0.00  0.00    +0.002 A 
ATOM     16  C   UNL     1      36.340  12.562  -4.188  0.00  0.00    +0.001 A 
ATOM     17  C   UNL     1      36.507  12.535  -2.806  0.00  0.00    +0.017 A 
ATOM     18  C   UNL     1      35.483  12.960  -1.937  0.00  0.00    +0.043 A 
ATOM     19 BR   UNL     1      35.950  12.834  -0.095  0.00  0.00    -0.048 Br
ENDBRANCH  11  13
ENDBRANCH   7   9
ENDBRANCH   6   7
ENDBRANCH   5   6
ENDBRANCH   1   5
BRANCH   2  20
ATOM     20  C   UNL     1      27.148  17.066  -3.701  0.00  0.00    +0.152 C 
BRANCH  20  21
ATOM     21  C   UNL     1      25.936  16.173  -4.040  0.00  0.00    +0.193 C 
ATOM     22  O   UNL     1      26.065  15.810  -5.433  0.00  0.00    -0.219 OA
BRANCH  21  23
ATOM     23  C   UNL     1      25.813  14.823  -3.300  0.00  0.00    +0.212 C 
ATOM     24  O   UNL     1      26.315  14.939  -1.958  0.00  0.00    -0.218 OA
BRANCH  23  25
ATOM     25  C   UNL     1      24.336  14.277  -3.240  0.00  0.00    +0.171 C 
ATOM     26  O   UNL     1      23.364  15.312  -3.340  0.00  0.00    -0.343 OA
ATOM     27  C   UNL     1      22.003  15.144  -3.074  0.00  0.00    +0.220 C 
ATOM     28  C   UNL     1      21.767  14.465  -1.714  0.00  0.00    +0.076 C 
ATOM     29  C   UNL     1      22.595  13.170  -1.694  0.00  0.00    +0.177 C 
ATOM     30  O   UNL     1      22.381  12.480  -0.471  0.00  0.00    -0.221 OA
ATOM     31  C   UNL     1      24.106  13.495  -1.905  0.00  0.00    +0.155 C 
BRANCH  31  32
ATOM     32  N   UNL     1      24.898  12.267  -1.880  0.00  0.00    -0.202 NA
ATOM     33  C   UNL     1      25.594  11.705  -0.860  0.00  0.00    +0.242 C 
ATOM     34  C   UNL     1      26.078  10.287  -1.020  0.00  0.00    +0.096 C 
ATOM     35  O   UNL     1      25.811  12.356   0.160  0.00  0.00    -0.273 OA
ENDBRANCH  31  32
BRANCH  27  36
ATOM     36  C   UNL     1      21.200  14.388  -4.267  0.00  0.00    +0.391 C 
ATOM     37  O   UNL     1      20.032  14.009  -3.713  0.00  0.00    -0.243 OA
ATOM     38  O   UNL     1      21.850  14.687  -5.398  0.00  0.00    -0.243 OA
ENDBRANCH  27  36
ENDBRANCH  23  25
ENDBRANCH  21  23
ENDBRANCH  20  21
ENDBRANCH   2  20
TORSDOF 11
