REMARK VINA RESULT:    -7.576      2.495      4.899
REMARK INTER + INTRA:         -15.827
REMARK INTER:                 -13.326
REMARK INTRA:                  -2.500
REMARK UNBOUND:                -2.494
REMARK  Name = lig_assembled_79.pdb
REMARK  15 active torsions:
REMARK  status: ('A' for Active; 'I' for Inactive)
REMARK    1  A    between atoms: _2  and  _9
REMARK    2  A    between atoms: _6  and  _7
REMARK    3  A    between atoms: _6  and  _21
REMARK    4  A    between atoms: _9  and  _10
REMARK    5  A    between atoms: _9  and  _11
REMARK    6  A    between atoms: _9  and  _12
REMARK    7  A    between atoms: _12  and  _13
REMARK    8  A    between atoms: _21  and  _23
REMARK    9  A    between atoms: _22  and  _27
REMARK   10  A    between atoms: _23  and  _26
REMARK   11  A    between atoms: _31  and  _41
REMARK   12  A    between atoms: _33  and  _34
REMARK   13  A    between atoms: _35  and  _37
REMARK   14  A    between atoms: _37  and  _39
REMARK   15  A    between atoms: _39  and  _41
REMARK                            x       y       z     vdW  Elec       q    Type
REMARK                         _______ _______ _______ _____ _____    ______ ____
ROOT
ATOM      1  O   UNL     1      32.085  12.533  -3.865  0.00  0.00    -0.450 OA
ENDROOT
BRANCH   1   2
ATOM      2  C   UNL     1      32.977  13.421  -4.162  0.00  0.00    +0.400 C 
ATOM      3  N   UNL     1      33.898  13.691  -3.178  0.00  0.00    -0.278 N 
ATOM      4  H   UNL     1      34.634  14.279  -3.684  0.00  0.00    +0.152 HD
ATOM      5  O   UNL     1      33.086  14.008  -5.236  0.00  0.00    -0.226 OA
BRANCH   3   6
ATOM      6  C   UNL     1      34.305  13.552  -1.783  0.00  0.00    +0.152 C 
BRANCH   6   7
ATOM      7  C   UNL     1      33.336  14.130  -0.731  0.00  0.00    +0.193 C 
ATOM      8  O   UNL     1      32.888  15.407  -1.237  0.00  0.00    -0.219 OA
BRANCH   7   9
ATOM      9  C   UNL     1      32.034  13.347  -0.452  0.00  0.00    +0.212 C 
ATOM     10  O   UNL     1      32.184  11.971  -0.835  0.00  0.00    -0.218 OA
BRANCH   9  11
ATOM     11  C   UNL     1      31.583  13.404   1.058  0.00  0.00    +0.171 C 
ATOM     12  O   UNL     1      31.705  12.146   1.713  0.00  0.00    -0.343 OA
ATOM     13  C   UNL     1      31.157  11.852   2.964  0.00  0.00    +0.220 C 
ATOM     14  C   UNL     1      29.667  12.230   3.036  0.00  0.00    +0.076 C 
ATOM     15  C   UNL     1      29.541  13.701   2.603  0.00  0.00    +0.177 C 
ATOM     16  O   UNL     1      28.185  14.114   2.690  0.00  0.00    -0.221 OA
ATOM     17  C   UNL     1      30.098  13.884   1.157  0.00  0.00    +0.155 C 
BRANCH  17  18
ATOM     18  N   UNL     1      29.975  15.278   0.739  0.00  0.00    -0.202 NA
ATOM     19  C   UNL     1      29.303  15.813  -0.312  0.00  0.00    +0.242 C 
ATOM     20  C   UNL     1      29.094  17.305  -0.344  0.00  0.00    +0.096 C 
ATOM     21  O   UNL     1      28.883  15.076  -1.203  0.00  0.00    -0.273 OA
ENDBRANCH  17  18
BRANCH  13  22
ATOM     22  C   UNL     1      31.994  12.486   4.203  0.00  0.00    +0.391 C 
ATOM     23  O   UNL     1      33.030  13.130   3.630  0.00  0.00    -0.243 OA
ATOM     24  O   UNL     1      31.197  12.393   5.274  0.00  0.00    -0.243 OA
ENDBRANCH  13  22
ENDBRANCH   9  11
ENDBRANCH   7   9
ENDBRANCH   6   7
ENDBRANCH   3   6
ENDBRANCH   1   2
BRANCH   1  25
ATOM     25  C   UNL     1      31.232  11.618  -4.513  0.00  0.00    +0.240 C 
BRANCH  25  26
ATOM     26  C   UNL     1      29.908  11.262  -3.810  0.00  0.00    +0.100 C 
BRANCH  26  28
ATOM     27  N   UNL     1      28.752  12.518  -5.590  0.00  0.00    -0.134 NA
ATOM     28  C   UNL     1      28.830  12.151  -4.278  0.00  0.00    +0.086 A 
ATOM     29  C   UNL     1      27.800  12.742  -3.582  0.00  0.00    +0.134 A 
ATOM     30  N   UNL     1      27.065  13.388  -4.536  0.00  0.00    -0.238 N 
ATOM     31  N   UNL     1      27.700  13.310  -5.733  0.00  0.00    -0.065 NA
BRANCH  30  32
ATOM     32  C   UNL     1      25.870  14.273  -4.417  0.00  0.00    +0.122 C 
ATOM     33  C   UNL     1      24.661  13.450  -4.924  0.00  0.00    +0.044 C 
ATOM     34  C   UNL     1      26.206  15.514  -5.266  0.00  0.00    +0.044 C 
BRANCH  32  35
ATOM     35  C   UNL     1      25.561  14.697  -2.966  0.00  0.00    +0.192 C 
ATOM     36  O   UNL     1      26.076  15.714  -2.492  0.00  0.00    -0.289 OA
BRANCH  35  37
ATOM     37  C   UNL     1      24.664  13.910  -2.072  0.00  0.00    +0.045 A 
ATOM     38  C   UNL     1      25.199  12.923  -1.251  0.00  0.00    +0.095 A 
ATOM     39  N   UNL     1      24.201  12.319  -0.548  0.00  0.00    -0.360 N 
ATOM     40  H   UNL     1      24.325  11.562   0.111  0.00  0.00    +0.165 HD
ATOM     41  C   UNL     1      22.993  12.879  -0.873  0.00  0.00    +0.047 A 
ATOM     42  C   UNL     1      21.715  12.553  -0.395  0.00  0.00    +0.026 A 
ATOM     43  C   UNL     1      20.624  13.269  -0.886  0.00  0.00    +0.002 A 
ATOM     44  C   UNL     1      20.808  14.277  -1.819  0.00  0.00    +0.001 A 
ATOM     45  C   UNL     1      22.091  14.588  -2.283  0.00  0.00    +0.011 A 
ATOM     46  C   UNL     1      23.233  13.886  -1.818  0.00  0.00    +0.010 A 
ENDBRANCH  35  37
ENDBRANCH  32  35
ENDBRANCH  30  32
ENDBRANCH  26  28
ENDBRANCH  25  26
ENDBRANCH   1  25
TORSDOF 13
