REMARK VINA RESULT:    -5.774      3.722      6.673
REMARK INTER + INTRA:         -12.416
REMARK INTER:                 -10.853
REMARK INTRA:                  -1.562
REMARK UNBOUND:                -2.422
REMARK  Name = lig_assembled_53.pdb
REMARK  13 active torsions:
REMARK  status: ('A' for Active; 'I' for Inactive)
REMARK    1  A    between atoms: _2  and  _8
REMARK    2  A    between atoms: _4  and  _8
REMARK    3  A    between atoms: _4  and  _9
REMARK    4  A    between atoms: _5  and  _6
REMARK    5  A    between atoms: _5  and  _11
REMARK    6  A    between atoms: _11  and  _13
REMARK    7  A    between atoms: _12  and  _17
REMARK    8  A    between atoms: _13  and  _16
REMARK    9  A    between atoms: _21  and  _31
REMARK   10  A    between atoms: _23  and  _24
REMARK   11  A    between atoms: _25  and  _27
REMARK   12  A    between atoms: _27  and  _29
REMARK   13  A    between atoms: _29  and  _31
REMARK                            x       y       z     vdW  Elec       q    Type
REMARK                         _______ _______ _______ _____ _____    ______ ____
ROOT
ATOM      1  C   UNL     1      30.916  12.851   3.656  0.00  0.00    +0.152 C 
ENDROOT
BRANCH   1   3
ATOM      2  C   UNL     1      32.718  13.617   1.755  0.00  0.00    +0.400 C 
ATOM      3  N   UNL     1      32.131  13.088   2.881  0.00  0.00    -0.278 N 
ATOM      4  H   UNL     1      32.958  12.681   3.422  0.00  0.00    +0.152 HD
ATOM      5  O   UNL     1      33.945  13.673   1.714  0.00  0.00    -0.226 OA
BRANCH   2   6
ATOM      6  O   UNL     1      31.905  13.982   0.819  0.00  0.00    -0.450 OA
BRANCH   6   7
ATOM      7  C   UNL     1      31.678  15.084  -0.029  0.00  0.00    +0.240 C 
BRANCH   7   8
ATOM      8  C   UNL     1      30.801  16.229   0.512  0.00  0.00    +0.100 C 
BRANCH   8  10
ATOM      9  N   UNL     1      29.361  17.678  -0.888  0.00  0.00    -0.134 NA
ATOM     10  C   UNL     1      29.635  16.443  -0.364  0.00  0.00    +0.086 A 
ATOM     11  C   UNL     1      28.680  15.550  -0.794  0.00  0.00    +0.134 A 
ATOM     12  N   UNL     1      27.815  16.312  -1.520  0.00  0.00    -0.241 N 
ATOM     13  N   UNL     1      28.255  17.582  -1.613  0.00  0.00    -0.065 NA
BRANCH  12  14
ATOM     14  C   UNL     1      26.651  15.928  -2.293  0.00  0.00    +0.265 C 
BRANCH  14  15
ATOM     15  C   UNL     1      26.474  16.661  -3.596  0.00  0.00    +0.326 C 
ATOM     16  O   UNL     1      26.736  16.241  -4.712  0.00  0.00    -0.249 OA
BRANCH  15  17
ATOM     17  O   UNL     1      25.979  17.916  -3.423  0.00  0.00    -0.479 OA
ATOM     18  H   UNL     1      25.476  18.284  -4.175  0.00  0.00    +0.295 HD
ENDBRANCH  15  17
ENDBRANCH  14  15
ENDBRANCH  12  14
ENDBRANCH   8  10
ENDBRANCH   7   8
ENDBRANCH   6   7
ENDBRANCH   2   6
ENDBRANCH   1   3
BRANCH   1  19
ATOM     19  C   UNL     1      31.114  12.250   5.062  0.00  0.00    +0.193 C 
ATOM     20  O   UNL     1      30.530  10.929   5.035  0.00  0.00    -0.219 OA
BRANCH  19  21
ATOM     21  C   UNL     1      32.564  12.020   5.545  0.00  0.00    +0.212 C 
ATOM     22  O   UNL     1      33.325  13.235   5.443  0.00  0.00    -0.218 OA
BRANCH  21  23
ATOM     23  C   UNL     1      32.652  11.493   7.028  0.00  0.00    +0.171 C 
ATOM     24  O   UNL     1      32.107  12.412   7.969  0.00  0.00    -0.343 OA
ATOM     25  C   UNL     1      32.272  12.313   9.353  0.00  0.00    +0.220 C 
ATOM     26  C   UNL     1      33.749  12.129   9.740  0.00  0.00    +0.076 C 
ATOM     27  C   UNL     1      34.292  10.935   8.937  0.00  0.00    +0.177 C 
ATOM     28  O   UNL     1      35.648  10.696   9.287  0.00  0.00    -0.221 OA
ATOM     29  C   UNL     1      34.141  11.204   7.407  0.00  0.00    +0.155 C 
BRANCH  29  30
ATOM     30  N   UNL     1      34.663  10.075   6.640  0.00  0.00    -0.202 NA
ATOM     31  C   UNL     1      35.609  10.050   5.668  0.00  0.00    +0.242 C 
ATOM     32  C   UNL     1      36.170   8.716   5.249  0.00  0.00    +0.096 C 
ATOM     33  O   UNL     1      35.984  11.104   5.157  0.00  0.00    -0.273 OA
ENDBRANCH  29  30
BRANCH  25  34
ATOM     34  C   UNL     1      31.329  11.181  10.037  0.00  0.00    +0.391 C 
ATOM     35  O   UNL     1      31.847  10.995  11.267  0.00  0.00    -0.243 OA
ATOM     36  O   UNL     1      30.244  11.083   9.260  0.00  0.00    -0.243 OA
ENDBRANCH  25  34
ENDBRANCH  21  23
ENDBRANCH  19  21
ENDBRANCH   1  19
TORSDOF 13
