REMARK VINA RESULT:    -6.928      3.304      7.959
REMARK INTER + INTRA:         -12.991
REMARK INTER:                 -10.797
REMARK INTRA:                  -2.194
REMARK UNBOUND:                -1.202
REMARK  Name = lig_assembled_38.pdb
REMARK  12 active torsions:
REMARK  status: ('A' for Active; 'I' for Inactive)
REMARK    1  A    between atoms: _2  and  _8
REMARK    2  A    between atoms: _5  and  _6
REMARK    3  A    between atoms: _5  and  _14
REMARK    4  A    between atoms: _8  and  _9
REMARK    5  A    between atoms: _14  and  _16
REMARK    6  A    between atoms: _15  and  _20
REMARK    7  A    between atoms: _16  and  _19
REMARK    8  A    between atoms: _24  and  _34
REMARK    9  A    between atoms: _26  and  _27
REMARK   10  A    between atoms: _28  and  _30
REMARK   11  A    between atoms: _30  and  _32
REMARK   12  A    between atoms: _32  and  _34
REMARK                            x       y       z     vdW  Elec       q    Type
REMARK                         _______ _______ _______ _____ _____    ______ ____
ROOT
ATOM      1  C   UNL     1      28.933  16.959  -0.571  0.00  0.00    +0.400 C 
ATOM      2  N   UNL     1      27.759  16.680  -1.230  0.00  0.00    -0.278 N 
ATOM      3  H   UNL     1      27.142  17.523  -1.005  0.00  0.00    +0.152 HD
ATOM      4  O   UNL     1      29.071  18.078  -0.083  0.00  0.00    -0.226 OA
ENDROOT
BRANCH   2   5
ATOM      5  C   UNL     1      27.000  15.777  -2.091  0.00  0.00    +0.152 C 
BRANCH   5   6
ATOM      6  C   UNL     1      26.158  16.442  -3.199  0.00  0.00    +0.193 C 
ATOM      7  O   UNL     1      27.024  17.382  -3.872  0.00  0.00    -0.219 OA
BRANCH   6   8
ATOM      8  C   UNL     1      25.621  15.537  -4.330  0.00  0.00    +0.212 C 
ATOM      9  O   UNL     1      26.380  15.734  -5.534  0.00  0.00    -0.218 OA
BRANCH   8  10
ATOM     10  C   UNL     1      25.643  14.003  -3.966  0.00  0.00    +0.171 C 
ATOM     11  O   UNL     1      26.619  13.278  -4.707  0.00  0.00    -0.343 OA
ATOM     12  C   UNL     1      26.690  11.884  -4.763  0.00  0.00    +0.220 C 
ATOM     13  C   UNL     1      25.330  11.258  -5.118  0.00  0.00    +0.076 C 
ATOM     14  C   UNL     1      24.293  11.813  -4.128  0.00  0.00    +0.177 C 
ATOM     15  O   UNL     1      23.022  11.234  -4.386  0.00  0.00    -0.221 OA
ATOM     16  C   UNL     1      24.237  13.370  -4.225  0.00  0.00    +0.155 C 
BRANCH  16  17
ATOM     17  N   UNL     1      23.247  13.901  -3.291  0.00  0.00    -0.202 NA
ATOM     18  C   UNL     1      22.104  14.590  -3.536  0.00  0.00    +0.242 C 
ATOM     19  C   UNL     1      21.117  14.762  -2.411  0.00  0.00    +0.096 C 
ATOM     20  O   UNL     1      21.902  15.052  -4.658  0.00  0.00    -0.273 OA
ENDBRANCH  16  17
BRANCH  12  21
ATOM     21  C   UNL     1      27.326  11.214  -3.428  0.00  0.00    +0.391 C 
ATOM     22  O   UNL     1      27.948  12.227  -2.793  0.00  0.00    -0.243 OA
ATOM     23  O   UNL     1      26.752  10.011  -3.308  0.00  0.00    -0.243 OA
ENDBRANCH  12  21
ENDBRANCH   8  10
ENDBRANCH   6   8
ENDBRANCH   5   6
ENDBRANCH   2   5
BRANCH   1  24
ATOM     24  O   UNL     1      29.781  15.986  -0.501  0.00  0.00    -0.450 OA
BRANCH  24  25
ATOM     25  C   UNL     1      30.842  15.551   0.316  0.00  0.00    +0.240 C 
BRANCH  25  26
ATOM     26  C   UNL     1      31.012  14.033   0.513  0.00  0.00    +0.100 C 
BRANCH  26  28
ATOM     27  N   UNL     1      29.148  14.291   2.124  0.00  0.00    -0.134 NA
ATOM     28  C   UNL     1      29.884  13.487   1.295  0.00  0.00    +0.086 A 
ATOM     29  C   UNL     1      29.365  12.212   1.325  0.00  0.00    +0.134 A 
ATOM     30  N   UNL     1      28.280  12.317   2.147  0.00  0.00    -0.247 N 
ATOM     31  N   UNL     1      28.163  13.566   2.636  0.00  0.00    -0.065 NA
BRANCH  30  32
ATOM     32  C   UNL     1      27.203  11.359   2.320  0.00  0.00    +0.180 C 
BRANCH  32  33
ATOM     33  C   UNL     1      25.985  11.666   1.485  0.00  0.00    -0.025 A 
ATOM     34  C   UNL     1      26.109  12.239   0.211  0.00  0.00    +0.005 A 
ATOM     35  C   UNL     1      24.984  12.438  -0.594  0.00  0.00    +0.001 A 
ATOM     36  C   UNL     1      23.721  12.067  -0.136  0.00  0.00    +0.015 A 
ATOM     37  C   UNL     1      23.587  11.507   1.132  0.00  0.00    +0.018 A 
ATOM     38 BR   UNL     1      21.877  10.993   1.755  0.00  0.00    -0.050 Br
ATOM     39  C   UNL     1      24.706  11.305   1.942  0.00  0.00    +0.020 A 
ENDBRANCH  32  33
ENDBRANCH  30  32
ENDBRANCH  26  28
ENDBRANCH  25  26
ENDBRANCH  24  25
ENDBRANCH   1  24
TORSDOF 12
