REMARK VINA RESULT:    -6.777      2.958      8.659
REMARK INTER + INTRA:         -12.917
REMARK INTER:                 -11.132
REMARK INTRA:                  -1.784
REMARK UNBOUND:                -1.188
REMARK  Name = lig_assembled_35.pdb
REMARK  14 active torsions:
REMARK  status: ('A' for Active; 'I' for Inactive)
REMARK    1  A    between atoms: _2  and  _8
REMARK    2  A    between atoms: _4  and  _8
REMARK    3  A    between atoms: _4  and  _10
REMARK    4  A    between atoms: _5  and  _6
REMARK    5  A    between atoms: _5  and  _12
REMARK    6  A    between atoms: _8  and  _9
REMARK    7  A    between atoms: _12  and  _14
REMARK    8  A    between atoms: _13  and  _18
REMARK    9  A    between atoms: _14  and  _17
REMARK   10  A    between atoms: _22  and  _32
REMARK   11  A    between atoms: _24  and  _25
REMARK   12  A    between atoms: _26  and  _28
REMARK   13  A    between atoms: _28  and  _30
REMARK   14  A    between atoms: _30  and  _32
REMARK                            x       y       z     vdW  Elec       q    Type
REMARK                         _______ _______ _______ _____ _____    ______ ____
ROOT
ATOM      1  C   UNL     1      27.493  15.005  -2.079  0.00  0.00    +0.152 C 
ENDROOT
BRANCH   1   3
ATOM      2  C   UNL     1      28.439  17.102  -0.611  0.00  0.00    +0.400 C 
ATOM      3  N   UNL     1      27.621  16.179  -1.219  0.00  0.00    -0.278 N 
ATOM      4  H   UNL     1      26.641  16.486  -0.924  0.00  0.00    +0.152 HD
ATOM      5  O   UNL     1      27.917  18.080  -0.082  0.00  0.00    -0.226 OA
BRANCH   2   6
ATOM      6  O   UNL     1      29.702  16.829  -0.630  0.00  0.00    -0.450 OA
BRANCH   6   7
ATOM      7  C   UNL     1      30.704  16.349   0.237  0.00  0.00    +0.240 C 
BRANCH   7   8
ATOM      8  C   UNL     1      30.940  14.827   0.277  0.00  0.00    +0.100 C 
BRANCH   8  10
ATOM      9  N   UNL     1      32.839  15.330  -1.228  0.00  0.00    -0.134 NA
ATOM     10  C   UNL     1      31.917  14.433  -0.755  0.00  0.00    +0.086 A 
ATOM     11  C   UNL     1      32.096  13.227  -1.395  0.00  0.00    +0.134 A 
ATOM     12  N   UNL     1      33.148  13.450  -2.233  0.00  0.00    -0.238 N 
ATOM     13  N   UNL     1      33.577  14.721  -2.144  0.00  0.00    -0.065 NA
BRANCH  12  14
ATOM     14  C   UNL     1      33.795  12.549  -3.169  0.00  0.00    +0.214 C 
ATOM     15  C   UNL     1      33.128  11.177  -3.155  0.00  0.00    +0.045 C 
BRANCH  14  16
ATOM     16  C   UNL     1      33.851  13.143  -4.561  0.00  0.00    +0.329 C 
ATOM     17  O   UNL     1      34.697  12.861  -5.399  0.00  0.00    -0.249 OA
BRANCH  16  18
ATOM     18  O   UNL     1      32.885  14.059  -4.818  0.00  0.00    -0.479 OA
ATOM     19  H   UNL     1      32.503  14.034  -5.719  0.00  0.00    +0.295 HD
ENDBRANCH  16  18
ENDBRANCH  14  16
ENDBRANCH  12  14
ENDBRANCH   8  10
ENDBRANCH   7   8
ENDBRANCH   6   7
ENDBRANCH   2   6
ENDBRANCH   1   3
BRANCH   1  20
ATOM     20  C   UNL     1      26.141  14.837  -2.803  0.00  0.00    +0.193 C 
ATOM     21  O   UNL     1      26.426  14.839  -4.219  0.00  0.00    -0.219 OA
BRANCH  20  22
ATOM     22  C   UNL     1      25.363  13.524  -2.567  0.00  0.00    +0.212 C 
ATOM     23  O   UNL     1      25.911  12.465  -3.369  0.00  0.00    -0.218 OA
BRANCH  22  24
ATOM     24  C   UNL     1      25.356  13.063  -1.060  0.00  0.00    +0.171 C 
ATOM     25  O   UNL     1      26.490  12.269  -0.725  0.00  0.00    -0.343 OA
ATOM     26  C   UNL     1      26.616  11.535   0.457  0.00  0.00    +0.220 C 
ATOM     27  C   UNL     1      25.383  10.651   0.713  0.00  0.00    +0.076 C 
ATOM     28  C   UNL     1      24.142  11.557   0.644  0.00  0.00    +0.177 C 
ATOM     29  O   UNL     1      22.974  10.795   0.914  0.00  0.00    -0.221 OA
ATOM     30  C   UNL     1      24.058  12.247  -0.753  0.00  0.00    +0.155 C 
BRANCH  30  31
ATOM     31  N   UNL     1      22.877  13.103  -0.826  0.00  0.00    -0.202 NA
ATOM     32  C   UNL     1      21.754  12.970  -1.577  0.00  0.00    +0.242 C 
ATOM     33  C   UNL     1      20.564  13.832  -1.243  0.00  0.00    +0.096 C 
ATOM     34  O   UNL     1      21.733  12.159  -2.501  0.00  0.00    -0.273 OA
ENDBRANCH  30  31
BRANCH  26  35
ATOM     35  C   UNL     1      26.976  12.448   1.751  0.00  0.00    +0.391 C 
ATOM     36  O   UNL     1      26.599  11.709   2.813  0.00  0.00    -0.243 OA
ATOM     37  O   UNL     1      27.768  13.430   1.303  0.00  0.00    -0.243 OA
ENDBRANCH  26  35
ENDBRANCH  22  24
ENDBRANCH  20  22
ENDBRANCH   1  20
TORSDOF 13
