REMARK VINA RESULT:    -5.979      3.177      7.161
REMARK INTER + INTRA:         -14.703
REMARK INTER:                 -11.175
REMARK INTRA:                  -3.528
REMARK UNBOUND:                -2.957
REMARK  Name = lig_assembled_74.pdb
REMARK  19 active torsions:
REMARK  status: ('A' for Active; 'I' for Inactive)
REMARK    1  A    between atoms: _2  and  _8
REMARK    2  A    between atoms: _4  and  _13
REMARK    3  A    between atoms: _5  and  _6
REMARK    4  A    between atoms: _5  and  _17
REMARK    5  A    between atoms: _8  and  _9
REMARK    6  A    between atoms: _9  and  _10
REMARK    7  A    between atoms: _9  and  _12
REMARK    8  A    between atoms: _10  and  _11
REMARK    9  A    between atoms: _11  and  _15
REMARK   10  A    between atoms: _12  and  _13
REMARK   11  A    between atoms: _13  and  _14
REMARK   12  A    between atoms: _17  and  _19
REMARK   13  A    between atoms: _18  and  _23
REMARK   14  A    between atoms: _19  and  _22
REMARK   15  A    between atoms: _27  and  _37
REMARK   16  A    between atoms: _29  and  _30
REMARK   17  A    between atoms: _31  and  _33
REMARK   18  A    between atoms: _33  and  _35
REMARK   19  A    between atoms: _35  and  _37
REMARK                            x       y       z     vdW  Elec       q    Type
REMARK                         _______ _______ _______ _____ _____    ______ ____
ROOT
ATOM      1  C   UNL     1      29.014  17.027  -0.482  0.00  0.00    +0.400 C 
ATOM      2  N   UNL     1      27.865  16.674  -1.149  0.00  0.00    -0.278 N 
ATOM      3  H   UNL     1      27.157  17.408  -0.829  0.00  0.00    +0.152 HD
ATOM      4  O   UNL     1      29.030  18.100   0.116  0.00  0.00    -0.226 OA
ENDROOT
BRANCH   1   5
ATOM      5  O   UNL     1      29.975  16.164  -0.525  0.00  0.00    -0.450 OA
BRANCH   5   6
ATOM      6  C   UNL     1      30.253  14.852  -0.093  0.00  0.00    +0.240 C 
BRANCH   6   7
ATOM      7  C   UNL     1      29.784  14.455   1.320  0.00  0.00    +0.100 C 
BRANCH   7   9
ATOM      8  N   UNL     1      27.789  13.406   2.360  0.00  0.00    -0.134 NA
ATOM      9  C   UNL     1      28.560  13.634   1.251  0.00  0.00    +0.086 A 
ATOM     10  C   UNL     1      27.950  13.063   0.156  0.00  0.00    +0.133 A 
ATOM     11  N   UNL     1      26.733  12.668   0.636  0.00  0.00    -0.251 N 
ATOM     12  N   UNL     1      26.681  12.787   1.976  0.00  0.00    -0.065 NA
BRANCH  11  13
ATOM     13  C   UNL     1      25.513  12.489  -0.127  0.00  0.00    +0.149 C 
BRANCH  13  14
ATOM     14  C   UNL     1      24.713  11.206   0.188  0.00  0.00    +0.021 C 
BRANCH  14  15
ATOM     15  C   UNL     1      25.412   9.915  -0.286  0.00  0.00    +0.125 C 
BRANCH  15  16
ATOM     16  C   UNL     1      24.497   8.899  -0.936  0.00  0.00    +0.305 C 
ATOM     17  O   UNL     1      23.738   8.156  -0.334  0.00  0.00    -0.251 OA
BRANCH  16  18
ATOM     18  O   UNL     1      24.544   8.932  -2.280  0.00  0.00    -0.481 OA
ATOM     19  H   UNL     1      23.991   9.614  -2.703  0.00  0.00    +0.295 HD
ENDBRANCH  16  18
ENDBRANCH  15  16
ENDBRANCH  14  15
BRANCH  14  20
ATOM     20  C   UNL     1      23.268  11.356  -0.372  0.00  0.00    +0.009 C 
BRANCH  20  21
ATOM     21  C   UNL     1      22.124  11.105   0.635  0.00  0.00    -0.017 C 
ATOM     22  C   UNL     1      22.633  11.004   2.075  0.00  0.00    +0.007 C 
ATOM     23  C   UNL     1      21.080  12.225   0.553  0.00  0.00    +0.007 C 
ENDBRANCH  20  21
ENDBRANCH  14  20
ENDBRANCH  13  14
ENDBRANCH  11  13
ENDBRANCH   7   9
ENDBRANCH   6   7
ENDBRANCH   5   6
ENDBRANCH   1   5
BRANCH   2  24
ATOM     24  C   UNL     1      27.198  15.775  -2.088  0.00  0.00    +0.152 C 
BRANCH  24  25
ATOM     25  C   UNL     1      26.288  16.444  -3.139  0.00  0.00    +0.193 C 
ATOM     26  O   UNL     1      27.124  17.344  -3.899  0.00  0.00    -0.219 OA
BRANCH  25  27
ATOM     27  C   UNL     1      25.635  15.534  -4.202  0.00  0.00    +0.212 C 
ATOM     28  O   UNL     1      26.238  15.752  -5.488  0.00  0.00    -0.218 OA
BRANCH  27  29
ATOM     29  C   UNL     1      25.732  13.999  -3.855  0.00  0.00    +0.171 C 
ATOM     30  O   UNL     1      26.692  13.316  -4.654  0.00  0.00    -0.343 OA
ATOM     31  C   UNL     1      26.809  11.926  -4.729  0.00  0.00    +0.220 C 
ATOM     32  C   UNL     1      25.456  11.253  -5.015  0.00  0.00    +0.076 C 
ATOM     33  C   UNL     1      24.454  11.763  -3.965  0.00  0.00    +0.177 C 
ATOM     34  O   UNL     1      23.193  11.140  -4.161  0.00  0.00    -0.221 OA
ATOM     35  C   UNL     1      24.337  13.317  -4.044  0.00  0.00    +0.155 C 
BRANCH  35  36
ATOM     36  N   UNL     1      23.382  13.804  -3.053  0.00  0.00    -0.202 NA
ATOM     37  C   UNL     1      22.231  14.502  -3.227  0.00  0.00    +0.242 C 
ATOM     38  C   UNL     1      21.284  14.622  -2.061  0.00  0.00    +0.096 C 
ATOM     39  O   UNL     1      21.989  15.013  -4.319  0.00  0.00    -0.273 OA
ENDBRANCH  35  36
BRANCH  31  40
ATOM     40  C   UNL     1      27.541  11.268  -3.436  0.00  0.00    +0.391 C 
ATOM     41  O   UNL     1      27.086  10.001  -3.386  0.00  0.00    -0.243 OA
ATOM     42  O   UNL     1      28.523  12.113  -3.097  0.00  0.00    -0.243 OA
ENDBRANCH  31  40
ENDBRANCH  27  29
ENDBRANCH  25  27
ENDBRANCH  24  25
ENDBRANCH   2  24
TORSDOF 17
