REMARK VINA RESULT:    -5.437      2.990      4.419
REMARK INTER + INTRA:         -11.920
REMARK INTER:                  -9.895
REMARK INTRA:                  -2.025
REMARK UNBOUND:                -2.511
REMARK  Name = lig_assembled_1.pdb
REMARK  13 active torsions:
REMARK  status: ('A' for Active; 'I' for Inactive)
REMARK    1  A    between atoms: _2  and  _8
REMARK    2  A    between atoms: _4  and  _8
REMARK    3  A    between atoms: _4  and  _9
REMARK    4  A    between atoms: _5  and  _6
REMARK    5  A    between atoms: _5  and  _10
REMARK    6  A    between atoms: _10  and  _12
REMARK    7  A    between atoms: _11  and  _16
REMARK    8  A    between atoms: _12  and  _15
REMARK    9  A    between atoms: _20  and  _30
REMARK   10  A    between atoms: _22  and  _23
REMARK   11  A    between atoms: _24  and  _26
REMARK   12  A    between atoms: _26  and  _28
REMARK   13  A    between atoms: _28  and  _30
REMARK                            x       y       z     vdW  Elec       q    Type
REMARK                         _______ _______ _______ _____ _____    ______ ____
ROOT
ATOM      1  C   UNL     1      29.768  13.926  -0.635  0.00  0.00    +0.193 C 
ATOM      2  O   UNL     1      30.789  14.910  -0.913  0.00  0.00    -0.219 OA
ENDROOT
BRANCH   1   3
ATOM      3  C   UNL     1      29.987  13.552   0.848  0.00  0.00    +0.212 C 
ATOM      4  O   UNL     1      29.963  14.729   1.671  0.00  0.00    -0.218 OA
BRANCH   3   5
ATOM      5  C   UNL     1      28.920  12.530   1.398  0.00  0.00    +0.171 C 
ATOM      6  O   UNL     1      27.846  13.173   2.077  0.00  0.00    -0.343 OA
ATOM      7  C   UNL     1      26.902  12.509   2.864  0.00  0.00    +0.220 C 
ATOM      8  C   UNL     1      27.569  11.582   3.896  0.00  0.00    +0.076 C 
ATOM      9  C   UNL     1      28.538  10.663   3.133  0.00  0.00    +0.177 C 
ATOM     10  O   UNL     1      29.154   9.756   4.037  0.00  0.00    -0.221 OA
ATOM     11  C   UNL     1      29.601  11.515   2.373  0.00  0.00    +0.155 C 
BRANCH  11  12
ATOM     12  N   UNL     1      30.528  10.645   1.653  0.00  0.00    -0.202 NA
ATOM     13  C   UNL     1      31.845  10.406   1.876  0.00  0.00    +0.242 C 
ATOM     14  C   UNL     1      32.491   9.243   1.170  0.00  0.00    +0.096 C 
ATOM     15  O   UNL     1      32.473  11.135   2.642  0.00  0.00    -0.273 OA
ENDBRANCH  11  12
BRANCH   7  16
ATOM     16  C   UNL     1      25.774  11.723   1.997  0.00  0.00    +0.391 C 
ATOM     17  O   UNL     1      25.062  11.027   2.904  0.00  0.00    -0.243 OA
ATOM     18  O   UNL     1      25.784  12.286   0.783  0.00  0.00    -0.243 OA
ENDBRANCH   7  16
ENDBRANCH   3   5
ENDBRANCH   1   3
BRANCH   1  19
ATOM     19  C   UNL     1      28.419  14.567  -1.018  0.00  0.00    +0.152 C 
BRANCH  19  21
ATOM     20  C   UNL     1      27.926  17.250  -1.101  0.00  0.00    +0.400 C 
ATOM     21  N   UNL     1      28.262  15.982  -0.689  0.00  0.00    -0.278 N 
ATOM     22  H   UNL     1      28.503  16.113   0.344  0.00  0.00    +0.152 HD
ATOM     23  O   UNL     1      27.802  18.123  -0.245  0.00  0.00    -0.226 OA
BRANCH  20  24
ATOM     24  O   UNL     1      27.802  17.409  -2.377  0.00  0.00    -0.450 OA
BRANCH  24  25
ATOM     25  C   UNL     1      26.785  17.502  -3.348  0.00  0.00    +0.240 C 
BRANCH  25  26
ATOM     26  C   UNL     1      26.548  16.275  -4.248  0.00  0.00    +0.100 C 
BRANCH  26  28
ATOM     27  N   UNL     1      24.604  14.796  -4.663  0.00  0.00    -0.134 NA
ATOM     28  C   UNL     1      25.370  15.518  -3.786  0.00  0.00    +0.086 A 
ATOM     29  C   UNL     1      24.844  15.390  -2.520  0.00  0.00    +0.133 A 
ATOM     30  N   UNL     1      23.759  14.584  -2.695  0.00  0.00    -0.249 N 
ATOM     31  N   UNL     1      23.615  14.232  -3.983  0.00  0.00    -0.065 NA
BRANCH  30  32
ATOM     32  C   UNL     1      22.833  14.108  -1.693  0.00  0.00    +0.173 C 
BRANCH  32  33
ATOM     33  C   UNL     1      21.385  14.457  -2.017  0.00  0.00    +0.179 C 
BRANCH  33  34
ATOM     34  O   UNL     1      21.300  15.699  -2.715  0.00  0.00    -0.393 OA
ATOM     35  H   UNL     1      22.099  16.209  -2.484  0.00  0.00    +0.209 HD
ENDBRANCH  33  34
ENDBRANCH  32  33
ENDBRANCH  30  32
ENDBRANCH  26  28
ENDBRANCH  25  26
ENDBRANCH  24  25
ENDBRANCH  20  24
ENDBRANCH  19  21
ENDBRANCH   1  19
TORSDOF 13
