REMARK VINA RESULT:    -6.998      1.825      2.989
REMARK INTER + INTRA:         -13.893
REMARK INTER:                 -12.321
REMARK INTRA:                  -1.572
REMARK UNBOUND:                -1.577
REMARK  Name = lig_assembled_66.pdb
REMARK  13 active torsions:
REMARK  status: ('A' for Active; 'I' for Inactive)
REMARK    1  A    between atoms: _2  and  _9
REMARK    2  A    between atoms: _6  and  _7
REMARK    3  A    between atoms: _6  and  _16
REMARK    4  A    between atoms: _9  and  _10
REMARK    5  A    between atoms: _14  and  _15
REMARK    6  A    between atoms: _16  and  _18
REMARK    7  A    between atoms: _17  and  _22
REMARK    8  A    between atoms: _18  and  _21
REMARK    9  A    between atoms: _26  and  _36
REMARK   10  A    between atoms: _28  and  _29
REMARK   11  A    between atoms: _30  and  _32
REMARK   12  A    between atoms: _32  and  _34
REMARK   13  A    between atoms: _34  and  _36
REMARK                            x       y       z     vdW  Elec       q    Type
REMARK                         _______ _______ _______ _____ _____    ______ ____
ROOT
ATOM      1  C   UNL     1      28.909  17.049  -0.342  0.00  0.00    +0.400 C 
ATOM      2  N   UNL     1      30.058  16.817   0.377  0.00  0.00    -0.278 N 
ATOM      3  H   UNL     1      30.216  17.738   0.895  0.00  0.00    +0.152 HD
ATOM      4  O   UNL     1      28.278  18.077  -0.110  0.00  0.00    -0.226 OA
ENDROOT
BRANCH   1   5
ATOM      5  O   UNL     1      28.615  16.158  -1.232  0.00  0.00    -0.450 OA
BRANCH   5   6
ATOM      6  C   UNL     1      27.483  15.507  -1.758  0.00  0.00    +0.240 C 
BRANCH   6   7
ATOM      7  C   UNL     1      26.567  16.318  -2.694  0.00  0.00    +0.100 C 
BRANCH   7   9
ATOM      8  N   UNL     1      25.794  14.293  -3.896  0.00  0.00    -0.134 NA
ATOM      9  C   UNL     1      25.498  15.457  -3.238  0.00  0.00    +0.086 A 
ATOM     10  C   UNL     1      24.129  15.600  -3.169  0.00  0.00    +0.134 A 
ATOM     11  N   UNL     1      23.650  14.462  -3.753  0.00  0.00    -0.247 N 
ATOM     12  N   UNL     1      24.653  13.689  -4.205  0.00  0.00    -0.065 NA
BRANCH  11  13
ATOM     13  C   UNL     1      22.298  13.939  -3.683  0.00  0.00    +0.180 C 
BRANCH  13  14
ATOM     14  C   UNL     1      21.896  13.505  -2.297  0.00  0.00    -0.025 A 
ATOM     15  C   UNL     1      20.742  14.029  -1.697  0.00  0.00    +0.005 A 
ATOM     16  C   UNL     1      20.317  13.571  -0.448  0.00  0.00    +0.002 A 
ATOM     17  C   UNL     1      21.051  12.596   0.226  0.00  0.00    +0.019 A 
ATOM     18  C   UNL     1      22.224  12.088  -0.340  0.00  0.00    +0.052 A 
ATOM     19  C   UNL     1      22.643  12.540  -1.599  0.00  0.00    +0.024 A 
BRANCH  18  20
ATOM     20  C   UNL     1      22.989  11.099   0.359  0.00  0.00    +0.099 C 
ATOM     21  N   UNL     1      23.616  10.304   0.928  0.00  0.00    -0.191 NA
ENDBRANCH  18  20
ENDBRANCH  13  14
ENDBRANCH  11  13
ENDBRANCH   7   9
ENDBRANCH   6   7
ENDBRANCH   5   6
ENDBRANCH   1   5
BRANCH   2  22
ATOM     22  C   UNL     1      31.125  15.893   0.752  0.00  0.00    +0.152 C 
BRANCH  22  23
ATOM     23  C   UNL     1      31.534  14.858  -0.316  0.00  0.00    +0.193 C 
ATOM     24  O   UNL     1      32.588  15.462  -1.098  0.00  0.00    -0.219 OA
BRANCH  23  25
ATOM     25  C   UNL     1      32.137  13.523   0.176  0.00  0.00    +0.212 C 
ATOM     26  O   UNL     1      33.458  13.341  -0.360  0.00  0.00    -0.218 OA
BRANCH  25  27
ATOM     27  C   UNL     1      32.211  13.413   1.747  0.00  0.00    +0.171 C 
ATOM     28  O   UNL     1      33.506  13.044   2.210  0.00  0.00    -0.343 OA
ATOM     29  C   UNL     1      33.791  12.642   3.517  0.00  0.00    +0.220 C 
ATOM     30  C   UNL     1      32.833  11.537   3.995  0.00  0.00    +0.076 C 
ATOM     31  C   UNL     1      31.398  12.040   3.771  0.00  0.00    +0.177 C 
ATOM     32  O   UNL     1      30.469  11.069   4.235  0.00  0.00    -0.221 OA
ATOM     33  C   UNL     1      31.172  12.365   2.262  0.00  0.00    +0.155 C 
BRANCH  33  34
ATOM     34  N   UNL     1      29.806  12.836   2.043  0.00  0.00    -0.202 NA
ATOM     35  C   UNL     1      28.839  12.347   1.226  0.00  0.00    +0.242 C 
ATOM     36  C   UNL     1      27.429  12.842   1.411  0.00  0.00    +0.096 C 
ATOM     37  O   UNL     1      29.133  11.520   0.365  0.00  0.00    -0.273 OA
ENDBRANCH  33  34
BRANCH  29  38
ATOM     38  C   UNL     1      33.856  13.874   4.573  0.00  0.00    +0.391 C 
ATOM     39  O   UNL     1      33.709  13.302   5.784  0.00  0.00    -0.243 OA
ATOM     40  O   UNL     1      34.323  14.925   3.887  0.00  0.00    -0.243 OA
ENDBRANCH  29  38
ENDBRANCH  25  27
ENDBRANCH  23  25
ENDBRANCH  22  23
ENDBRANCH   2  22
TORSDOF 13
