REMARK VINA RESULT:    -7.737      1.754      4.377
REMARK INTER + INTRA:         -15.097
REMARK INTER:                 -13.082
REMARK INTRA:                  -2.015
REMARK UNBOUND:                -1.480
REMARK  Name = lig_assembled_58.pdb
REMARK  13 active torsions:
REMARK  status: ('A' for Active; 'I' for Inactive)
REMARK    1  A    between atoms: _2  and  _8
REMARK    2  A    between atoms: _5  and  _6
REMARK    3  A    between atoms: _5  and  _20
REMARK    4  A    between atoms: _8  and  _9
REMARK    5  A    between atoms: _8  and  _15
REMARK    6  A    between atoms: _20  and  _22
REMARK    7  A    between atoms: _21  and  _26
REMARK    8  A    between atoms: _22  and  _25
REMARK    9  A    between atoms: _30  and  _40
REMARK   10  A    between atoms: _32  and  _33
REMARK   11  A    between atoms: _34  and  _36
REMARK   12  A    between atoms: _36  and  _38
REMARK   13  A    between atoms: _38  and  _40
REMARK                            x       y       z     vdW  Elec       q    Type
REMARK                         _______ _______ _______ _____ _____    ______ ____
ROOT
ATOM      1  C   UNL     1      27.951  17.177  -0.744  0.00  0.00    +0.400 C 
ATOM      2  N   UNL     1      28.338  16.095   0.011  0.00  0.00    -0.278 N 
ATOM      3  H   UNL     1      28.625  16.532   0.943  0.00  0.00    +0.152 HD
ATOM      4  O   UNL     1      27.847  18.266  -0.184  0.00  0.00    -0.226 OA
ENDROOT
BRANCH   2   5
ATOM      5  C   UNL     1      28.514  14.648   0.113  0.00  0.00    +0.152 C 
BRANCH   5   6
ATOM      6  C   UNL     1      29.026  14.120   1.469  0.00  0.00    +0.193 C 
ATOM      7  O   UNL     1      27.862  13.724   2.227  0.00  0.00    -0.219 OA
BRANCH   6   8
ATOM      8  C   UNL     1      29.923  12.862   1.453  0.00  0.00    +0.212 C 
ATOM      9  O   UNL     1      29.439  11.913   0.489  0.00  0.00    -0.218 OA
BRANCH   8  10
ATOM     10  C   UNL     1      31.435  13.177   1.136  0.00  0.00    +0.171 C 
ATOM     11  O   UNL     1      31.761  12.971  -0.235  0.00  0.00    -0.343 OA
ATOM     12  C   UNL     1      33.064  12.938  -0.738  0.00  0.00    +0.220 C 
ATOM     13  C   UNL     1      33.962  11.982   0.065  0.00  0.00    +0.076 C 
ATOM     14  C   UNL     1      33.851  12.378   1.547  0.00  0.00    +0.177 C 
ATOM     15  O   UNL     1      34.695  11.548   2.332  0.00  0.00    -0.221 OA
ATOM     16  C   UNL     1      32.366  12.283   2.018  0.00  0.00    +0.155 C 
BRANCH  16  17
ATOM     17  N   UNL     1      32.257  12.652   3.427  0.00  0.00    -0.202 NA
ATOM     18  C   UNL     1      31.929  11.889   4.501  0.00  0.00    +0.242 C 
ATOM     19  C   UNL     1      32.179  12.447   5.878  0.00  0.00    +0.096 C 
ATOM     20  O   UNL     1      31.444  10.773   4.328  0.00  0.00    -0.273 OA
ENDBRANCH  16  17
BRANCH  12  21
ATOM     21  C   UNL     1      33.738  14.409  -0.885  0.00  0.00    +0.391 C 
ATOM     22  O   UNL     1      35.066  14.184  -0.889  0.00  0.00    -0.243 OA
ATOM     23  O   UNL     1      32.748  15.236  -1.244  0.00  0.00    -0.243 OA
ENDBRANCH  12  21
ENDBRANCH   8  10
ENDBRANCH   6   8
ENDBRANCH   5   6
ENDBRANCH   2   5
BRANCH   1  24
ATOM     24  O   UNL     1      27.762  16.944  -2.001  0.00  0.00    -0.450 OA
BRANCH  24  25
ATOM     25  C   UNL     1      27.013  17.452  -3.081  0.00  0.00    +0.240 C 
BRANCH  25  26
ATOM     26  C   UNL     1      26.520  16.446  -4.139  0.00  0.00    +0.100 C 
BRANCH  26  28
ATOM     27  N   UNL     1      26.208  14.066  -3.498  0.00  0.00    -0.134 NA
ATOM     28  C   UNL     1      25.761  15.359  -3.494  0.00  0.00    +0.086 A 
ATOM     29  C   UNL     1      24.580  15.421  -2.792  0.00  0.00    +0.134 A 
ATOM     30  N   UNL     1      24.438  14.169  -2.259  0.00  0.00    -0.240 N 
ATOM     31  N   UNL     1      25.381  13.338  -2.756  0.00  0.00    -0.065 NA
BRANCH  30  32
ATOM     32  C   UNL     1      23.473  13.683  -1.255  0.00  0.00    +0.169 C 
BRANCH  32  33
ATOM     33  C   UNL     1      23.976  12.445  -0.498  0.00  0.00    -0.019 A 
ATOM     34  C   UNL     1      23.230  11.252  -0.475  0.00  0.00    +0.006 A 
ATOM     35  C   UNL     1      23.692  10.130   0.219  0.00  0.00    +0.000 A 
ATOM     36  C   UNL     1      24.916  10.170   0.879  0.00  0.00    +0.000 A 
ATOM     37  C   UNL     1      25.694  11.318   0.824  0.00  0.00    +0.000 A 
ATOM     38  C   UNL     1      25.239  12.436   0.127  0.00  0.00    +0.006 A 
ENDBRANCH  32  33
BRANCH  32  39
ATOM     39  C   UNL     1      22.085  13.529  -1.894  0.00  0.00    -0.019 A 
ATOM     40  C   UNL     1      21.959  12.991  -3.187  0.00  0.00    +0.006 A 
ATOM     41  C   UNL     1      20.707  12.900  -3.800  0.00  0.00    +0.000 A 
ATOM     42  C   UNL     1      19.563  13.329  -3.131  0.00  0.00    +0.000 A 
ATOM     43  C   UNL     1      19.666  13.866  -1.853  0.00  0.00    +0.000 A 
ATOM     44  C   UNL     1      20.917  13.975  -1.247  0.00  0.00    +0.006 A 
ENDBRANCH  32  39
ENDBRANCH  30  32
ENDBRANCH  26  28
ENDBRANCH  25  26
ENDBRANCH  24  25
ENDBRANCH   1  24
TORSDOF 13
