REMARK VINA RESULT:    -6.838      2.330      4.637
REMARK INTER + INTRA:         -13.739
REMARK INTER:                 -11.367
REMARK INTRA:                  -2.373
REMARK UNBOUND:                -1.904
REMARK  Name = lig_assembled_73.pdb
REMARK  13 active torsions:
REMARK  status: ('A' for Active; 'I' for Inactive)
REMARK    1  A    between atoms: _2  and  _9
REMARK    2  A    between atoms: _3  and  _13
REMARK    3  A    between atoms: _6  and  _7
REMARK    4  A    between atoms: _6  and  _17
REMARK    5  A    between atoms: _12  and  _15
REMARK    6  A    between atoms: _17  and  _19
REMARK    7  A    between atoms: _18  and  _23
REMARK    8  A    between atoms: _19  and  _22
REMARK    9  A    between atoms: _27  and  _37
REMARK   10  A    between atoms: _29  and  _30
REMARK   11  A    between atoms: _31  and  _33
REMARK   12  A    between atoms: _33  and  _35
REMARK   13  A    between atoms: _35  and  _37
REMARK                            x       y       z     vdW  Elec       q    Type
REMARK                         _______ _______ _______ _____ _____    ______ ____
ROOT
ATOM      1  C   UNL     1      26.778  12.524   2.641  0.00  0.00    +0.400 C 
ATOM      2  N   UNL     1      27.539  12.647   1.503  0.00  0.00    -0.278 N 
ATOM      3  H   UNL     1      28.218  13.436   1.743  0.00  0.00    +0.152 HD
ATOM      4  O   UNL     1      27.129  13.143   3.642  0.00  0.00    -0.226 OA
ENDROOT
BRANCH   2   5
ATOM      5  C   UNL     1      27.839  12.183   0.150  0.00  0.00    +0.152 C 
BRANCH   5   6
ATOM      6  C   UNL     1      28.537  13.199  -0.777  0.00  0.00    +0.193 C 
ATOM      7  O   UNL     1      27.519  14.119  -1.227  0.00  0.00    -0.219 OA
BRANCH   6   8
ATOM      8  C   UNL     1      29.626  14.102  -0.157  0.00  0.00    +0.212 C 
ATOM      9  O   UNL     1      29.025  15.193   0.560  0.00  0.00    -0.218 OA
BRANCH   8  10
ATOM     10  C   UNL     1      30.595  13.332   0.819  0.00  0.00    +0.171 C 
ATOM     11  O   UNL     1      30.228  13.480   2.186  0.00  0.00    -0.343 OA
ATOM     12  C   UNL     1      31.037  13.113   3.264  0.00  0.00    +0.220 C 
ATOM     13  C   UNL     1      32.456  13.695   3.136  0.00  0.00    +0.076 C 
ATOM     14  C   UNL     1      32.997  13.294   1.754  0.00  0.00    +0.177 C 
ATOM     15  O   UNL     1      34.325  13.774   1.599  0.00  0.00    -0.221 OA
ATOM     16  C   UNL     1      32.062  13.840   0.631  0.00  0.00    +0.155 C 
BRANCH  16  17
ATOM     17  N   UNL     1      32.577  13.467  -0.684  0.00  0.00    -0.202 NA
ATOM     18  C   UNL     1      33.208  14.226  -1.616  0.00  0.00    +0.242 C 
ATOM     19  C   UNL     1      33.897  13.528  -2.760  0.00  0.00    +0.096 C 
ATOM     20  O   UNL     1      33.203  15.451  -1.507  0.00  0.00    -0.273 OA
ENDBRANCH  16  17
BRANCH  12  21
ATOM     21  C   UNL     1      31.071  11.511   3.532  0.00  0.00    +0.391 C 
ATOM     22  O   UNL     1      32.071  11.328   4.416  0.00  0.00    -0.243 OA
ATOM     23  O   UNL     1      29.930  11.027   3.026  0.00  0.00    -0.243 OA
ENDBRANCH  12  21
ENDBRANCH   8  10
ENDBRANCH   6   8
ENDBRANCH   5   6
ENDBRANCH   2   5
BRANCH   1  24
ATOM     24  O   UNL     1      25.727  11.778   2.534  0.00  0.00    -0.450 OA
BRANCH  24  25
ATOM     25  C   UNL     1      25.382  10.469   2.147  0.00  0.00    +0.240 C 
BRANCH  25  26
ATOM     26  C   UNL     1      23.889  10.091   2.172  0.00  0.00    +0.100 C 
BRANCH  26  28
ATOM     27  N   UNL     1      21.795  11.278   1.595  0.00  0.00    -0.134 NA
ATOM     28  C   UNL     1      23.110  11.023   1.334  0.00  0.00    +0.086 A 
ATOM     29  C   UNL     1      23.499  11.753   0.236  0.00  0.00    +0.139 A 
ATOM     30  N   UNL     1      22.378  12.454  -0.141  0.00  0.00    -0.220 N 
ATOM     31  N   UNL     1      21.358  12.148   0.695  0.00  0.00    -0.061 NA
BRANCH  30  32
ATOM     32  C   UNL     1      22.218  13.366  -1.217  0.00  0.00    +0.074 A 
ATOM     33  C   UNL     1      20.927  13.757  -1.613  0.00  0.00    +0.032 A 
ATOM     34  C   UNL     1      20.744  14.649  -2.678  0.00  0.00    +0.054 A 
ATOM     35  C   UNL     1      21.849  15.154  -3.361  0.00  0.00    +0.195 A 
ATOM     36  C   UNL     1      23.126  14.762  -2.965  0.00  0.00    +0.316 A 
ATOM     37  C   UNL     1      23.331  13.877  -1.896  0.00  0.00    +0.116 A 
BRANCH  36  38
ATOM     38  N   UNL     1      24.295  15.261  -3.662  0.00  0.00    +0.083 N 
ATOM     39  O   UNL     1      24.466  14.890  -4.831  0.00  0.00    +0.042 OA
ATOM     40  O   UNL     1      25.084  15.951  -3.000  0.00  0.00    -0.576 OA
ENDBRANCH  36  38
BRANCH  35  41
ATOM     41  O   UNL     1      21.671  16.036  -4.384  0.00  0.00    -0.501 OA
ATOM     42  H   UNL     1      22.229  16.822  -4.248  0.00  0.00    +0.292 HD
ENDBRANCH  35  41
ENDBRANCH  30  32
ENDBRANCH  26  28
ENDBRANCH  25  26
ENDBRANCH  24  25
ENDBRANCH   1  24
TORSDOF 13
