REMARK VINA RESULT:    -6.106      2.662      8.773
REMARK INTER + INTRA:         -13.655
REMARK INTER:                 -11.561
REMARK INTRA:                  -2.094
REMARK UNBOUND:                -1.837
REMARK  Name = lig_assembled_45.pdb
REMARK  19 active torsions:
REMARK  status: ('A' for Active; 'I' for Inactive)
REMARK    1  A    between atoms: _2  and  _9
REMARK    2  A    between atoms: _3  and  _11
REMARK    3  A    between atoms: _3  and  _12
REMARK    4  A    between atoms: _3  and  _13
REMARK    5  A    between atoms: _3  and  _15
REMARK    6  A    between atoms: _5  and  _15
REMARK    7  A    between atoms: _6  and  _7
REMARK    8  A    between atoms: _6  and  _16
REMARK    9  A    between atoms: _9  and  _10
REMARK   10  A    between atoms: _10  and  _11
REMARK   11  A    between atoms: _13  and  _14
REMARK   12  A    between atoms: _16  and  _18
REMARK   13  A    between atoms: _17  and  _22
REMARK   14  A    between atoms: _18  and  _21
REMARK   15  A    between atoms: _26  and  _36
REMARK   16  A    between atoms: _28  and  _29
REMARK   17  A    between atoms: _30  and  _32
REMARK   18  A    between atoms: _32  and  _34
REMARK   19  A    between atoms: _34  and  _36
REMARK                            x       y       z     vdW  Elec       q    Type
REMARK                         _______ _______ _______ _____ _____    ______ ____
ROOT
ATOM      1  C   UNL     1      27.907  17.681  -0.746  0.00  0.00    +0.400 C 
ATOM      2  N   UNL     1      27.000  17.109  -1.606  0.00  0.00    -0.278 N 
ATOM      3  H   UNL     1      26.056  17.365  -1.176  0.00  0.00    +0.152 HD
ATOM      4  O   UNL     1      27.483  18.440   0.123  0.00  0.00    -0.226 OA
ENDROOT
BRANCH   2   5
ATOM      5  C   UNL     1      26.753  16.339  -2.823  0.00  0.00    +0.152 C 
BRANCH   5   6
ATOM      6  C   UNL     1      25.580  15.340  -2.768  0.00  0.00    +0.193 C 
ATOM      7  O   UNL     1      24.901  15.427  -4.040  0.00  0.00    -0.219 OA
BRANCH   6   8
ATOM      8  C   UNL     1      25.924  13.841  -2.617  0.00  0.00    +0.212 C 
ATOM      9  O   UNL     1      27.285  13.597  -3.007  0.00  0.00    -0.218 OA
BRANCH   8  10
ATOM     10  C   UNL     1      25.714  13.297  -1.153  0.00  0.00    +0.171 C 
ATOM     11  O   UNL     1      26.761  12.426  -0.737  0.00  0.00    -0.343 OA
ATOM     12  C   UNL     1      26.709  11.620   0.403  0.00  0.00    +0.220 C 
ATOM     13  C   UNL     1      25.415  10.790   0.456  0.00  0.00    +0.076 C 
ATOM     14  C   UNL     1      24.234  11.763   0.298  0.00  0.00    +0.177 C 
ATOM     15  O   UNL     1      23.008  11.050   0.380  0.00  0.00    -0.221 OA
ATOM     16  C   UNL     1      24.352  12.535  -1.053  0.00  0.00    +0.155 C 
BRANCH  16  17
ATOM     17  N   UNL     1      23.229  13.455  -1.211  0.00  0.00    -0.202 NA
ATOM     18  C   UNL     1      22.315  13.545  -2.211  0.00  0.00    +0.242 C 
ATOM     19  C   UNL     1      21.087  14.388  -1.983  0.00  0.00    +0.096 C 
ATOM     20  O   UNL     1      22.507  12.944  -3.266  0.00  0.00    -0.273 OA
ENDBRANCH  16  17
BRANCH  12  21
ATOM     21  C   UNL     1      26.952  12.438   1.785  0.00  0.00    +0.391 C 
ATOM     22  O   UNL     1      26.464  11.637   2.753  0.00  0.00    -0.243 OA
ATOM     23  O   UNL     1      27.795  13.433   1.484  0.00  0.00    -0.243 OA
ENDBRANCH  12  21
ENDBRANCH   8  10
ENDBRANCH   6   8
ENDBRANCH   5   6
ENDBRANCH   2   5
BRANCH   1  24
ATOM     24  O   UNL     1      29.140  17.333  -0.919  0.00  0.00    -0.450 OA
BRANCH  24  25
ATOM     25  C   UNL     1      30.268  16.978  -0.154  0.00  0.00    +0.240 C 
BRANCH  25  26
ATOM     26  C   UNL     1      30.347  15.529   0.365  0.00  0.00    +0.100 C 
BRANCH  26  28
ATOM     27  N   UNL     1      32.447  15.529  -0.954  0.00  0.00    -0.134 NA
ATOM     28  C   UNL     1      31.586  14.885  -0.108  0.00  0.00    +0.086 A 
ATOM     29  C   UNL     1      32.083  13.631   0.171  0.00  0.00    +0.133 A 
ATOM     30  N   UNL     1      33.244  13.588  -0.537  0.00  0.00    -0.251 N 
ATOM     31  N   UNL     1      33.462  14.716  -1.216  0.00  0.00    -0.065 NA
BRANCH  30  32
ATOM     32  C   UNL     1      34.176  12.483  -0.626  0.00  0.00    +0.150 C 
BRANCH  32  33
ATOM     33  C   UNL     1      35.199  12.477   0.504  0.00  0.00    +0.074 C 
BRANCH  33  34
ATOM     34  C   UNL     1      34.859  11.637   1.742  0.00  0.00    +0.134 C 
BRANCH  34  35
ATOM     35  N   UNL     1      34.481  12.392   3.059  0.00  0.00    +0.241 N 
ATOM     36  C   UNL     1      35.453  11.962   4.171  0.00  0.00    +0.192 C 
BRANCH  35  37
ATOM     37  C   UNL     1      33.044  11.902   3.440  0.00  0.00    +0.129 C 
ATOM     38  C   UNL     1      32.530  10.757   2.575  0.00  0.00    +0.060 C 
ENDBRANCH  35  37
BRANCH  35  39
ATOM     39  C   UNL     1      34.495  13.928   2.951  0.00  0.00    +0.129 C 
ATOM     40  C   UNL     1      34.223  14.648   4.262  0.00  0.00    +0.060 C 
ENDBRANCH  35  39
ENDBRANCH  34  35
ENDBRANCH  33  34
ENDBRANCH  32  33
ENDBRANCH  30  32
ENDBRANCH  26  28
ENDBRANCH  25  26
ENDBRANCH  24  25
ENDBRANCH   1  24
TORSDOF 16
