REMARK VINA RESULT:    -6.324      1.702      3.760
REMARK INTER + INTRA:         -14.205
REMARK INTER:                 -12.094
REMARK INTRA:                  -2.111
REMARK UNBOUND:                -1.965
REMARK  Name = lig_assembled_11.pdb
REMARK  17 active torsions:
REMARK  status: ('A' for Active; 'I' for Inactive)
REMARK    1  A    between atoms: _2  and  _8
REMARK    2  A    between atoms: _4  and  _8
REMARK    3  A    between atoms: _4  and  _12
REMARK    4  A    between atoms: _5  and  _6
REMARK    5  A    between atoms: _5  and  _16
REMARK    6  A    between atoms: _8  and  _9
REMARK    7  A    between atoms: _9  and  _10
REMARK    8  A    between atoms: _10  and  _11
REMARK    9  A    between atoms: _11  and  _14
REMARK   10  A    between atoms: _16  and  _18
REMARK   11  A    between atoms: _17  and  _22
REMARK   12  A    between atoms: _18  and  _21
REMARK   13  A    between atoms: _26  and  _36
REMARK   14  A    between atoms: _28  and  _29
REMARK   15  A    between atoms: _30  and  _32
REMARK   16  A    between atoms: _32  and  _34
REMARK   17  A    between atoms: _34  and  _36
REMARK                            x       y       z     vdW  Elec       q    Type
REMARK                         _______ _______ _______ _____ _____    ______ ____
ROOT
ATOM      1  C   UNL     1      27.655  13.963  -1.624  0.00  0.00    +0.400 C 
ATOM      2  N   UNL     1      28.379  14.861  -0.876  0.00  0.00    -0.278 N 
ATOM      3  H   UNL     1      29.027  14.236  -0.299  0.00  0.00    +0.152 HD
ATOM      4  O   UNL     1      28.002  12.785  -1.612  0.00  0.00    -0.226 OA
ENDROOT
BRANCH   1   5
ATOM      5  O   UNL     1      26.638  14.452  -2.255  0.00  0.00    -0.450 OA
BRANCH   5   6
ATOM      6  C   UNL     1      26.354  15.435  -3.223  0.00  0.00    +0.240 C 
BRANCH   6   7
ATOM      7  C   UNL     1      25.877  14.954  -4.607  0.00  0.00    +0.100 C 
BRANCH   7   9
ATOM      8  N   UNL     1      23.765  14.284  -5.708  0.00  0.00    -0.134 NA
ATOM      9  C   UNL     1      24.410  14.804  -4.622  0.00  0.00    +0.086 A 
ATOM     10  C   UNL     1      23.482  15.111  -3.653  0.00  0.00    +0.134 A 
ATOM     11  N   UNL     1      22.283  14.798  -4.224  0.00  0.00    -0.238 N 
ATOM     12  N   UNL     1      22.463  14.272  -5.451  0.00  0.00    -0.065 NA
BRANCH  11  13
ATOM     13  C   UNL     1      20.934  14.818  -3.664  0.00  0.00    +0.217 C 
BRANCH  13  14
ATOM     14  C   UNL     1      20.096  16.000  -4.126  0.00  0.00    +0.330 C 
ATOM     15  O   UNL     1      18.948  16.241  -3.784  0.00  0.00    -0.249 OA
BRANCH  14  16
ATOM     16  O   UNL     1      20.733  16.819  -5.002  0.00  0.00    -0.479 OA
ATOM     17  H   UNL     1      21.709  16.781  -5.018  0.00  0.00    +0.295 HD
ENDBRANCH  14  16
ENDBRANCH  13  14
BRANCH  13  18
ATOM     18  C   UNL     1      20.947  14.662  -2.133  0.00  0.00    +0.049 C 
BRANCH  18  19
ATOM     19  C   UNL     1      20.499  13.288  -1.620  0.00  0.00    +0.123 C 
BRANCH  19  20
ATOM     20  C   UNL     1      21.613  12.605  -0.858  0.00  0.00    +0.305 C 
ATOM     21  O   UNL     1      22.784  12.947  -0.882  0.00  0.00    -0.251 OA
BRANCH  20  22
ATOM     22  O   UNL     1      21.180  11.538  -0.151  0.00  0.00    -0.481 OA
ATOM     23  H   UNL     1      21.210  10.691  -0.635  0.00  0.00    +0.295 HD
ENDBRANCH  20  22
ENDBRANCH  19  20
ENDBRANCH  18  19
ENDBRANCH  13  18
ENDBRANCH  11  13
ENDBRANCH   7   9
ENDBRANCH   6   7
ENDBRANCH   5   6
ENDBRANCH   1   5
BRANCH   2  24
ATOM     24  C   UNL     1      28.665  16.252  -0.536  0.00  0.00    +0.152 C 
BRANCH  24  25
ATOM     25  C   UNL     1      30.133  16.581  -0.194  0.00  0.00    +0.193 C 
ATOM     26  O   UNL     1      30.120  17.827   0.537  0.00  0.00    -0.219 OA
BRANCH  25  27
ATOM     27  C   UNL     1      30.889  15.600   0.729  0.00  0.00    +0.212 C 
ATOM     28  O   UNL     1      29.960  14.790   1.469  0.00  0.00    -0.218 OA
BRANCH  27  29
ATOM     29  C   UNL     1      31.880  14.651  -0.046  0.00  0.00    +0.171 C 
ATOM     30  O   UNL     1      31.291  14.075  -1.207  0.00  0.00    -0.343 OA
ATOM     31  C   UNL     1      31.851  13.023  -1.936  0.00  0.00    +0.220 C 
ATOM     32  C   UNL     1      32.244  11.846  -1.026  0.00  0.00    +0.076 C 
ATOM     33  C   UNL     1      33.137  12.405   0.094  0.00  0.00    +0.177 C 
ATOM     34  O   UNL     1      33.563  11.348   0.943  0.00  0.00    -0.221 OA
ATOM     35  C   UNL     1      32.370  13.502   0.895  0.00  0.00    +0.155 C 
BRANCH  35  36
ATOM     36  N   UNL     1      33.213  14.031   1.965  0.00  0.00    -0.202 NA
ATOM     37  C   UNL     1      33.127  13.848   3.307  0.00  0.00    +0.242 C 
ATOM     38  C   UNL     1      34.296  14.266   4.162  0.00  0.00    +0.096 C 
ATOM     39  O   UNL     1      32.112  13.351   3.790  0.00  0.00    -0.273 OA
ENDBRANCH  35  36
BRANCH  31  40
ATOM     40  C   UNL     1      33.085  13.480  -2.888  0.00  0.00    +0.391 C 
ATOM     41  O   UNL     1      33.354  14.748  -2.524  0.00  0.00    -0.243 OA
ATOM     42  O   UNL     1      33.557  12.357  -3.445  0.00  0.00    -0.243 OA
ENDBRANCH  31  40
ENDBRANCH  27  29
ENDBRANCH  25  27
ENDBRANCH  24  25
ENDBRANCH   2  24
TORSDOF 17
