REMARK VINA RESULT:    -6.693      1.757      3.420
REMARK INTER + INTRA:         -14.918
REMARK INTER:                 -12.625
REMARK INTRA:                  -2.293
REMARK UNBOUND:                -1.965
REMARK  Name = lig_assembled_11.pdb
REMARK  17 active torsions:
REMARK  status: ('A' for Active; 'I' for Inactive)
REMARK    1  A    between atoms: _2  and  _8
REMARK    2  A    between atoms: _4  and  _8
REMARK    3  A    between atoms: _4  and  _12
REMARK    4  A    between atoms: _5  and  _6
REMARK    5  A    between atoms: _5  and  _16
REMARK    6  A    between atoms: _8  and  _9
REMARK    7  A    between atoms: _9  and  _10
REMARK    8  A    between atoms: _10  and  _11
REMARK    9  A    between atoms: _11  and  _14
REMARK   10  A    between atoms: _16  and  _18
REMARK   11  A    between atoms: _17  and  _22
REMARK   12  A    between atoms: _18  and  _21
REMARK   13  A    between atoms: _26  and  _36
REMARK   14  A    between atoms: _28  and  _29
REMARK   15  A    between atoms: _30  and  _32
REMARK   16  A    between atoms: _32  and  _34
REMARK   17  A    between atoms: _34  and  _36
REMARK                            x       y       z     vdW  Elec       q    Type
REMARK                         _______ _______ _______ _____ _____    ______ ____
ROOT
ATOM      1  C   UNL     1      28.829  17.131  -0.482  0.00  0.00    +0.400 C 
ATOM      2  N   UNL     1      28.746  15.941   0.203  0.00  0.00    -0.278 N 
ATOM      3  H   UNL     1      29.381  16.097   1.048  0.00  0.00    +0.152 HD
ATOM      4  O   UNL     1      29.395  18.075   0.064  0.00  0.00    -0.226 OA
ENDROOT
BRANCH   1   5
ATOM      5  O   UNL     1      28.320  17.130  -1.670  0.00  0.00    -0.450 OA
BRANCH   5   6
ATOM      6  C   UNL     1      27.193  17.631  -2.349  0.00  0.00    +0.240 C 
BRANCH   6   7
ATOM      7  C   UNL     1      27.008  17.217  -3.822  0.00  0.00    +0.100 C 
BRANCH   7   9
ATOM      8  N   UNL     1      25.716  15.529  -5.089  0.00  0.00    -0.134 NA
ATOM      9  C   UNL     1      25.886  16.269  -3.953  0.00  0.00    +0.086 A 
ATOM     10  C   UNL     1      24.888  15.954  -3.059  0.00  0.00    +0.134 A 
ATOM     11  N   UNL     1      24.113  15.049  -3.724  0.00  0.00    -0.238 N 
ATOM     12  N   UNL     1      24.635  14.776  -4.935  0.00  0.00    -0.065 NA
BRANCH  11  13
ATOM     13  C   UNL     1      22.957  14.280  -3.272  0.00  0.00    +0.217 C 
BRANCH  13  14
ATOM     14  C   UNL     1      21.629  14.802  -3.801  0.00  0.00    +0.330 C 
ATOM     15  O   UNL     1      20.529  14.579  -3.319  0.00  0.00    -0.249 OA
BRANCH  14  16
ATOM     16  O   UNL     1      21.743  15.572  -4.913  0.00  0.00    -0.479 OA
ATOM     17  H   UNL     1      22.246  15.199  -5.663  0.00  0.00    +0.295 HD
ENDBRANCH  14  16
ENDBRANCH  13  14
BRANCH  13  18
ATOM     18  C   UNL     1      22.955  14.093  -1.744  0.00  0.00    +0.049 C 
BRANCH  18  19
ATOM     19  C   UNL     1      23.401  12.706  -1.264  0.00  0.00    +0.123 C 
BRANCH  19  20
ATOM     20  C   UNL     1      24.871  12.704  -0.907  0.00  0.00    +0.305 C 
ATOM     21  O   UNL     1      25.779  12.889  -1.700  0.00  0.00    -0.251 OA
BRANCH  20  22
ATOM     22  O   UNL     1      25.088  12.447   0.401  0.00  0.00    -0.481 OA
ATOM     23  H   UNL     1      24.452  11.825   0.803  0.00  0.00    +0.295 HD
ENDBRANCH  20  22
ENDBRANCH  19  20
ENDBRANCH  18  19
ENDBRANCH  13  18
ENDBRANCH  11  13
ENDBRANCH   7   9
ENDBRANCH   6   7
ENDBRANCH   5   6
ENDBRANCH   1   5
BRANCH   2  24
ATOM     24  C   UNL     1      28.181  14.597   0.298  0.00  0.00    +0.152 C 
BRANCH  24  25
ATOM     25  C   UNL     1      28.525  13.805   1.576  0.00  0.00    +0.193 C 
ATOM     26  O   UNL     1      27.290  13.221   2.047  0.00  0.00    -0.219 OA
BRANCH  25  27
ATOM     27  C   UNL     1      29.489  12.606   1.436  0.00  0.00    +0.212 C 
ATOM     28  O   UNL     1      28.983  11.665   0.476  0.00  0.00    -0.218 OA
BRANCH  27  29
ATOM     29  C   UNL     1      30.948  13.025   1.011  0.00  0.00    +0.171 C 
ATOM     30  O   UNL     1      31.068  13.248  -0.390  0.00  0.00    -0.343 OA
ATOM     31  C   UNL     1      32.282  13.389  -1.065  0.00  0.00    +0.220 C 
ATOM     32  C   UNL     1      33.258  12.248  -0.728  0.00  0.00    +0.076 C 
ATOM     33  C   UNL     1      33.373  12.175   0.804  0.00  0.00    +0.177 C 
ATOM     34  O   UNL     1      34.296  11.159   1.169  0.00  0.00    -0.221 OA
ATOM     35  C   UNL     1      31.969  11.920   1.436  0.00  0.00    +0.155 C 
BRANCH  35  36
ATOM     36  N   UNL     1      32.075  11.843   2.891  0.00  0.00    -0.202 NA
ATOM     37  C   UNL     1      32.352  12.818   3.794  0.00  0.00    +0.242 C 
ATOM     38  C   UNL     1      32.109  12.531   5.253  0.00  0.00    +0.096 C 
ATOM     39  O   UNL     1      32.788  13.900   3.405  0.00  0.00    -0.273 OA
ENDBRANCH  35  36
BRANCH  31  40
ATOM     40  C   UNL     1      32.973  14.845  -0.858  0.00  0.00    +0.391 C 
ATOM     41  O   UNL     1      34.277  14.653  -1.134  0.00  0.00    -0.243 OA
ATOM     42  O   UNL     1      31.966  15.725  -0.792  0.00  0.00    -0.243 OA
ENDBRANCH  31  40
ENDBRANCH  27  29
ENDBRANCH  25  27
ENDBRANCH  24  25
ENDBRANCH   2  24
TORSDOF 17
