REMARK VINA RESULT:    -7.466      1.397      2.654
REMARK INTER + INTRA:         -15.910
REMARK INTER:                 -13.277
REMARK INTRA:                  -2.633
REMARK UNBOUND:                -2.551
REMARK  Name = lig_assembled_64.pdb
REMARK  14 active torsions:
REMARK  status: ('A' for Active; 'I' for Inactive)
REMARK    1  A    between atoms: _2  and  _9
REMARK    2  A    between atoms: _6  and  _7
REMARK    3  A    between atoms: _6  and  _22
REMARK    4  A    between atoms: _11  and  _12
REMARK    5  A    between atoms: _12  and  _20
REMARK    6  A    between atoms: _13  and  _14
REMARK    7  A    between atoms: _22  and  _24
REMARK    8  A    between atoms: _23  and  _28
REMARK    9  A    between atoms: _24  and  _27
REMARK   10  A    between atoms: _32  and  _42
REMARK   11  A    between atoms: _34  and  _35
REMARK   12  A    between atoms: _36  and  _38
REMARK   13  A    between atoms: _38  and  _40
REMARK   14  A    between atoms: _40  and  _42
REMARK                            x       y       z     vdW  Elec       q    Type
REMARK                         _______ _______ _______ _____ _____    ______ ____
ROOT
ATOM      1  O   UNL     1      32.565  11.880  -4.476  0.00  0.00    -0.450 OA
ENDROOT
BRANCH   1   2
ATOM      2  C   UNL     1      32.755  13.143  -4.276  0.00  0.00    +0.400 C 
ATOM      3  N   UNL     1      32.674  13.557  -2.967  0.00  0.00    -0.278 N 
ATOM      4  H   UNL     1      33.048  14.557  -3.000  0.00  0.00    +0.152 HD
ATOM      5  O   UNL     1      33.025  13.981  -5.133  0.00  0.00    -0.226 OA
BRANCH   3   6
ATOM      6  C   UNL     1      32.301  13.255  -1.587  0.00  0.00    +0.152 C 
BRANCH   6   7
ATOM      7  C   UNL     1      32.616  14.347  -0.544  0.00  0.00    +0.193 C 
ATOM      8  O   UNL     1      33.075  15.503  -1.279  0.00  0.00    -0.219 OA
BRANCH   7   9
ATOM      9  C   UNL     1      31.444  14.876   0.313  0.00  0.00    +0.212 C 
ATOM     10  O   UNL     1      30.517  15.609  -0.504  0.00  0.00    -0.218 OA
BRANCH   9  11
ATOM     11  C   UNL     1      30.659  13.737   1.068  0.00  0.00    +0.171 C 
ATOM     12  O   UNL     1      29.252  13.953   1.075  0.00  0.00    -0.343 OA
ATOM     13  C   UNL     1      28.349  13.242   1.869  0.00  0.00    +0.220 C 
ATOM     14  C   UNL     1      28.785  13.215   3.344  0.00  0.00    +0.076 C 
ATOM     15  C   UNL     1      30.233  12.699   3.389  0.00  0.00    +0.177 C 
ATOM     16  O   UNL     1      30.673  12.616   4.737  0.00  0.00    -0.221 OA
ATOM     17  C   UNL     1      31.161  13.626   2.545  0.00  0.00    +0.155 C 
BRANCH  17  18
ATOM     18  N   UNL     1      32.538  13.143   2.590  0.00  0.00    -0.202 NA
ATOM     19  C   UNL     1      33.638  13.707   3.152  0.00  0.00    +0.242 C 
ATOM     20  C   UNL     1      34.874  12.860   3.312  0.00  0.00    +0.096 C 
ATOM     21  O   UNL     1      33.601  14.881   3.513  0.00  0.00    -0.273 OA
ENDBRANCH  17  18
BRANCH  13  22
ATOM     22  C   UNL     1      28.033  11.749   1.312  0.00  0.00    +0.391 C 
ATOM     23  O   UNL     1      27.314  11.160   2.287  0.00  0.00    -0.243 OA
ATOM     24  O   UNL     1      28.333  11.770   0.008  0.00  0.00    -0.243 OA
ENDBRANCH  13  22
ENDBRANCH   9  11
ENDBRANCH   7   9
ENDBRANCH   6   7
ENDBRANCH   3   6
ENDBRANCH   1   2
BRANCH   1  25
ATOM     25  C   UNL     1      31.503  10.983  -4.706  0.00  0.00    +0.240 C 
BRANCH  25  26
ATOM     26  C   UNL     1      30.737  10.459  -3.476  0.00  0.00    +0.100 C 
BRANCH  26  28
ATOM     27  N   UNL     1      28.287  10.189  -3.759  0.00  0.00    -0.134 NA
ATOM     28  C   UNL     1      29.357  10.983  -3.465  0.00  0.00    +0.086 A 
ATOM     29  C   UNL     1      28.910  12.252  -3.184  0.00  0.00    +0.139 A 
ATOM     30  N   UNL     1      27.544  12.189  -3.327  0.00  0.00    -0.220 N 
ATOM     31  N   UNL     1      27.187  10.928  -3.671  0.00  0.00    -0.061 NA
BRANCH  30  32
ATOM     32  C   UNL     1      26.592  13.222  -3.157  0.00  0.00    +0.071 A 
ATOM     33  C   UNL     1      26.910  14.532  -3.501  0.00  0.00    +0.063 A 
ATOM     34  CA  UNL     1      25.938  15.494  -3.311  0.00  0.00    +0.150 A 
ATOM     35  N   UNL     1      24.694  15.256  -2.806  0.00  0.00    -0.240 NA
ATOM     36  C   UNL     1      24.395  13.973  -2.461  0.00  0.00    +0.074 A 
ATOM     37  C   UNL     1      25.320  12.939  -2.638  0.00  0.00    +0.056 A 
BRANCH  36  38
ATOM     38  C   UNL     1      23.051  13.766  -1.869  0.00  0.00    +0.000 A 
ATOM     39  C   UNL     1      21.942  14.551  -2.239  0.00  0.00    +0.010 A 
ATOM     40  C   UNL     1      20.670  14.323  -1.701  0.00  0.00    +0.001 A 
ATOM     41  C   UNL     1      20.475  13.301  -0.778  0.00  0.00    +0.000 A 
ATOM     42  C   UNL     1      21.552  12.514  -0.387  0.00  0.00    +0.001 A 
ATOM     43  C   UNL     1      22.823  12.746  -0.926  0.00  0.00    +0.010 A 
ENDBRANCH  36  38
BRANCH  34  44
ATOM     44  C   UNL     1      26.234  16.913  -3.664  0.00  0.00    +0.355 C 
ATOM     45  OXT UNL     1      27.338  17.333  -3.963  0.00  0.00    -0.243 OA
BRANCH  44  46
ATOM     46  O   UNL     1      25.112  17.666  -3.604  0.00  0.00    -0.476 OA
ATOM     47  H   UNL     1      25.325  18.581  -3.900  0.00  0.00    +0.295 HD
ENDBRANCH  44  46
ENDBRANCH  34  44
ENDBRANCH  30  32
ENDBRANCH  26  28
ENDBRANCH  25  26
ENDBRANCH   1  25
TORSDOF 14
