REMARK VINA RESULT:    -7.298      1.756      3.842
REMARK INTER + INTRA:         -14.076
REMARK INTER:                 -12.036
REMARK INTRA:                  -2.041
REMARK UNBOUND:                -2.085
REMARK  Name = lig_assembled_51.pdb
REMARK  11 active torsions:
REMARK  status: ('A' for Active; 'I' for Inactive)
REMARK    1  A    between atoms: _2  and  _8
REMARK    2  A    between atoms: _5  and  _6
REMARK    3  A    between atoms: _5  and  _17
REMARK    4  A    between atoms: _17  and  _19
REMARK    5  A    between atoms: _18  and  _23
REMARK    6  A    between atoms: _19  and  _22
REMARK    7  A    between atoms: _27  and  _37
REMARK    8  A    between atoms: _29  and  _30
REMARK    9  A    between atoms: _31  and  _33
REMARK   10  A    between atoms: _33  and  _35
REMARK   11  A    between atoms: _35  and  _37
REMARK                            x       y       z     vdW  Elec       q    Type
REMARK                         _______ _______ _______ _____ _____    ______ ____
ROOT
ATOM      1  C   UNL     1      28.805  16.698  -0.774  0.00  0.00    +0.400 C 
ATOM      2  N   UNL     1      28.685  15.428  -0.260  0.00  0.00    -0.278 N 
ATOM      3  H   UNL     1      29.422  15.405   0.514  0.00  0.00    +0.152 HD
ATOM      4  O   UNL     1      29.515  17.502  -0.175  0.00  0.00    -0.226 OA
ENDROOT
BRANCH   1   5
ATOM      5  O   UNL     1      28.169  16.916  -1.879  0.00  0.00    -0.450 OA
BRANCH   5   6
ATOM      6  C   UNL     1      26.892  17.322  -2.314  0.00  0.00    +0.240 C 
BRANCH   6   7
ATOM      7  C   UNL     1      26.387  16.760  -3.656  0.00  0.00    +0.100 C 
BRANCH   7   9
ATOM      8  N   UNL     1      25.846  14.363  -3.953  0.00  0.00    -0.134 NA
ATOM      9  C   UNL     1      25.526  15.585  -3.430  0.00  0.00    +0.086 A 
ATOM     10  C   UNL     1      24.349  15.477  -2.726  0.00  0.00    +0.134 A 
ATOM     11  N   UNL     1      23.993  14.163  -2.860  0.00  0.00    -0.245 N 
ATOM     12  N   UNL     1      24.903  13.500  -3.599  0.00  0.00    -0.065 NA
BRANCH  11  13
ATOM     13  C   UNL     1      22.807  13.496  -2.317  0.00  0.00    +0.066 C 
ATOM     14  C   UNL     1      21.658  14.522  -2.125  0.00  0.00    +0.034 C 
ATOM     15  C   UNL     1      20.389  13.833  -1.599  0.00  0.00    -0.008 C 
ATOM     16  C   UNL     1      19.947  12.753  -2.601  0.00  0.00    +0.007 C 
ATOM     17  C   UNL     1      21.057  11.702  -2.768  0.00  0.00    -0.008 C 
ATOM     18  C   UNL     1      21.356  11.058  -1.406  0.00  0.00    +0.007 C 
ATOM     19  C   UNL     1      21.807  12.131  -0.405  0.00  0.00    -0.008 C 
ATOM     20  C   UNL     1      20.691  13.175  -0.243  0.00  0.00    +0.007 C 
ATOM     21  C   UNL     1      22.329  12.389  -3.296  0.00  0.00    +0.034 C 
ATOM     22  C   UNL     1      23.074  12.822  -0.937  0.00  0.00    +0.034 C 
ENDBRANCH  11  13
ENDBRANCH   7   9
ENDBRANCH   6   7
ENDBRANCH   5   6
ENDBRANCH   1   5
BRANCH   2  23
ATOM     23  C   UNL     1      28.010  14.134  -0.285  0.00  0.00    +0.152 C 
BRANCH  23  24
ATOM     24  C   UNL     1      28.527  13.118  -1.325  0.00  0.00    +0.193 C 
ATOM     25  O   UNL     1      28.741  13.851  -2.551  0.00  0.00    -0.219 OA
BRANCH  24  26
ATOM     26  C   UNL     1      29.883  12.434  -1.043  0.00  0.00    +0.212 C 
ATOM     27  O   UNL     1      29.816  11.035  -1.365  0.00  0.00    -0.218 OA
BRANCH  26  28
ATOM     28  C   UNL     1      31.083  13.077  -1.836  0.00  0.00    +0.171 C 
ATOM     29  O   UNL     1      31.615  12.204  -2.827  0.00  0.00    -0.343 OA
ATOM     30  C   UNL     1      32.820  12.417  -3.501  0.00  0.00    +0.220 C 
ATOM     31  C   UNL     1      33.974  12.713  -2.527  0.00  0.00    +0.076 C 
ATOM     32  C   UNL     1      33.527  13.870  -1.618  0.00  0.00    +0.177 C 
ATOM     33  O   UNL     1      34.574  14.212  -0.722  0.00  0.00    -0.221 OA
ATOM     34  C   UNL     1      32.227  13.478  -0.848  0.00  0.00    +0.155 C 
BRANCH  34  35
ATOM     35  N   UNL     1      31.803  14.572   0.021  0.00  0.00    -0.202 NA
ATOM     36  C   UNL     1      31.651  14.600   1.370  0.00  0.00    +0.242 C 
ATOM     37  C   UNL     1      31.487  15.938   2.044  0.00  0.00    +0.096 C 
ATOM     38  O   UNL     1      31.652  13.546   2.003  0.00  0.00    -0.273 OA
ENDBRANCH  34  35
BRANCH  30  39
ATOM     39  C   UNL     1      32.719  13.543  -4.667  0.00  0.00    +0.391 C 
ATOM     40  O   UNL     1      33.817  14.308  -4.507  0.00  0.00    -0.243 OA
ATOM     41  O   UNL     1      31.773  13.117  -5.512  0.00  0.00    -0.243 OA
ENDBRANCH  30  39
ENDBRANCH  26  28
ENDBRANCH  24  26
ENDBRANCH  23  24
ENDBRANCH   2  23
TORSDOF 11
