REMARK VINA RESULT:    -5.734      2.796      3.869
REMARK INTER + INTRA:         -12.346
REMARK INTER:                 -10.872
REMARK INTRA:                  -1.474
REMARK UNBOUND:                -2.422
REMARK  Name = lig_assembled_53.pdb
REMARK  13 active torsions:
REMARK  status: ('A' for Active; 'I' for Inactive)
REMARK    1  A    between atoms: _2  and  _8
REMARK    2  A    between atoms: _4  and  _8
REMARK    3  A    between atoms: _4  and  _9
REMARK    4  A    between atoms: _5  and  _6
REMARK    5  A    between atoms: _5  and  _11
REMARK    6  A    between atoms: _11  and  _13
REMARK    7  A    between atoms: _12  and  _17
REMARK    8  A    between atoms: _13  and  _16
REMARK    9  A    between atoms: _21  and  _31
REMARK   10  A    between atoms: _23  and  _24
REMARK   11  A    between atoms: _25  and  _27
REMARK   12  A    between atoms: _27  and  _29
REMARK   13  A    between atoms: _29  and  _31
REMARK                            x       y       z     vdW  Elec       q    Type
REMARK                         _______ _______ _______ _____ _____    ______ ____
ROOT
ATOM      1  C   UNL     1      29.346  14.897   0.007  0.00  0.00    +0.152 C 
ENDROOT
BRANCH   1   3
ATOM      2  C   UNL     1      28.048  17.180  -0.736  0.00  0.00    +0.400 C 
ATOM      3  N   UNL     1      28.766  16.237  -0.039  0.00  0.00    -0.278 N 
ATOM      4  H   UNL     1      28.975  16.723   0.890  0.00  0.00    +0.152 HD
ATOM      5  O   UNL     1      27.677  18.186  -0.137  0.00  0.00    -0.226 OA
BRANCH   2   6
ATOM      6  O   UNL     1      27.856  16.924  -1.989  0.00  0.00    -0.450 OA
BRANCH   6   7
ATOM      7  C   UNL     1      27.047  17.359  -3.056  0.00  0.00    +0.240 C 
BRANCH   7   8
ATOM      8  C   UNL     1      26.391  16.279  -3.938  0.00  0.00    +0.100 C 
BRANCH   8  10
ATOM      9  N   UNL     1      24.272  15.762  -2.765  0.00  0.00    -0.134 NA
ATOM     10  C   UNL     1      25.541  15.393  -3.121  0.00  0.00    +0.086 A 
ATOM     11  C   UNL     1      25.810  14.147  -2.601  0.00  0.00    +0.134 A 
ATOM     12  N   UNL     1      24.694  13.838  -1.883  0.00  0.00    -0.241 N 
ATOM     13  N   UNL     1      23.753  14.793  -2.024  0.00  0.00    -0.065 NA
BRANCH  12  14
ATOM     14  C   UNL     1      24.344  12.626  -1.172  0.00  0.00    +0.265 C 
BRANCH  14  15
ATOM     15  C   UNL     1      25.297  12.224  -0.078  0.00  0.00    +0.326 C 
ATOM     16  O   UNL     1      26.284  12.840   0.294  0.00  0.00    -0.249 OA
BRANCH  15  17
ATOM     17  O   UNL     1      24.962  11.035   0.492  0.00  0.00    -0.479 OA
ATOM     18  H   UNL     1      24.259  10.529   0.042  0.00  0.00    +0.295 HD
ENDBRANCH  15  17
ENDBRANCH  14  15
ENDBRANCH  12  14
ENDBRANCH   8  10
ENDBRANCH   7   8
ENDBRANCH   6   7
ENDBRANCH   2   6
ENDBRANCH   1   3
BRANCH   1  19
ATOM     19  C   UNL     1      30.886  14.822  -0.011  0.00  0.00    +0.193 C 
ATOM     20  O   UNL     1      31.355  16.053  -0.604  0.00  0.00    -0.219 OA
BRANCH  19  21
ATOM     21  C   UNL     1      31.614  14.747   1.349  0.00  0.00    +0.212 C 
ATOM     22  O   UNL     1      31.239  15.857   2.181  0.00  0.00    -0.218 OA
BRANCH  21  23
ATOM     23  C   UNL     1      31.332  13.411   2.136  0.00  0.00    +0.171 C 
ATOM     24  O   UNL     1      30.120  13.460   2.882  0.00  0.00    -0.343 OA
ATOM     25  C   UNL     1      29.752  12.522   3.849  0.00  0.00    +0.220 C 
ATOM     26  C   UNL     1      30.876  12.286   4.873  0.00  0.00    +0.076 C 
ATOM     27  C   UNL     1      32.151  11.939   4.087  0.00  0.00    +0.177 C 
ATOM     28  O   UNL     1      33.215  11.672   4.989  0.00  0.00    -0.221 OA
ATOM     29  C   UNL     1      32.514  13.101   3.111  0.00  0.00    +0.155 C 
BRANCH  29  30
ATOM     30  N   UNL     1      33.729  12.778   2.367  0.00  0.00    -0.202 NA
ATOM     31  C   UNL     1      34.965  13.335   2.439  0.00  0.00    +0.242 C 
ATOM     32  C   UNL     1      36.113  12.619   1.776  0.00  0.00    +0.096 C 
ATOM     33  O   UNL     1      35.118  14.398   3.038  0.00  0.00    -0.273 OA
ENDBRANCH  29  30
BRANCH  25  34
ATOM     34  C   UNL     1      29.212  11.123   3.223  0.00  0.00    +0.391 C 
ATOM     35  O   UNL     1      29.185  10.265   4.261  0.00  0.00    -0.243 OA
ATOM     36  O   UNL     1      28.722  11.425   2.014  0.00  0.00    -0.243 OA
ENDBRANCH  25  34
ENDBRANCH  21  23
ENDBRANCH  19  21
ENDBRANCH   1  19
TORSDOF 13
