REMARK VINA RESULT:    -6.001      1.766      2.532
REMARK INTER + INTRA:         -13.071
REMARK INTER:                 -11.461
REMARK INTRA:                  -1.610
REMARK UNBOUND:                -1.808
REMARK  Name = lig_assembled_43.pdb
REMARK  15 active torsions:
REMARK  status: ('A' for Active; 'I' for Inactive)
REMARK    1  A    between atoms: _2  and  _8
REMARK    2  A    between atoms: _5  and  _6
REMARK    3  A    between atoms: _5  and  _13
REMARK    4  A    between atoms: _8  and  _9
REMARK    5  A    between atoms: _9  and  _10
REMARK    6  A    between atoms: _10  and  _11
REMARK    7  A    between atoms: _11  and  _12
REMARK    8  A    between atoms: _13  and  _15
REMARK    9  A    between atoms: _14  and  _19
REMARK   10  A    between atoms: _15  and  _18
REMARK   11  A    between atoms: _23  and  _33
REMARK   12  A    between atoms: _25  and  _26
REMARK   13  A    between atoms: _27  and  _29
REMARK   14  A    between atoms: _29  and  _31
REMARK   15  A    between atoms: _31  and  _33
REMARK                            x       y       z     vdW  Elec       q    Type
REMARK                         _______ _______ _______ _____ _____    ______ ____
ROOT
ATOM      1  C   UNL     1      26.863  13.534  -1.189  0.00  0.00    +0.152 C 
ENDROOT
BRANCH   1   3
ATOM      2  C   UNL     1      27.444  16.130  -1.799  0.00  0.00    +0.400 C 
ATOM      3  N   UNL     1      27.531  14.815  -1.405  0.00  0.00    -0.278 N 
ATOM      4  H   UNL     1      28.557  14.708  -1.127  0.00  0.00    +0.152 HD
ATOM      5  O   UNL     1      28.406  16.863  -1.586  0.00  0.00    -0.226 OA
BRANCH   2   6
ATOM      6  O   UNL     1      26.347  16.464  -2.396  0.00  0.00    -0.450 OA
BRANCH   6   7
ATOM      7  C   UNL     1      25.783  16.441  -3.687  0.00  0.00    +0.240 C 
BRANCH   7   8
ATOM      8  C   UNL     1      25.235  15.096  -4.200  0.00  0.00    +0.100 C 
BRANCH   8  10
ATOM      9  N   UNL     1      22.769  15.020  -4.399  0.00  0.00    -0.134 NA
ATOM     10  C   UNL     1      23.896  14.841  -3.640  0.00  0.00    +0.086 A 
ATOM     11  C   UNL     1      23.528  14.424  -2.381  0.00  0.00    +0.133 A 
ATOM     12  N   UNL     1      22.168  14.375  -2.437  0.00  0.00    -0.251 N 
ATOM     13  N   UNL     1      21.713  14.731  -3.649  0.00  0.00    -0.065 NA
BRANCH  12  14
ATOM     14  C   UNL     1      21.243  14.032  -1.378  0.00  0.00    +0.145 C 
BRANCH  14  15
ATOM     15  C   UNL     1      20.783  12.582  -1.487  0.00  0.00    +0.024 C 
BRANCH  15  16
ATOM     16  C   UNL     1      21.443  11.688  -0.435  0.00  0.00    +0.006 C 
BRANCH  16  17
ATOM     17  C   UNL     1      21.155  12.214   0.973  0.00  0.00    +0.026 C 
BRANCH  17  18
ATOM     18  C   UNL     1      21.814  11.379   2.031  0.00  0.00    -0.034 C 
ATOM     19  C   UNL     1      23.112  11.049   2.019  0.00  0.00    +0.004 C 
ENDBRANCH  17  18
ENDBRANCH  16  17
ENDBRANCH  15  16
ENDBRANCH  14  15
ENDBRANCH  12  14
ENDBRANCH   8  10
ENDBRANCH   7   8
ENDBRANCH   6   7
ENDBRANCH   2   6
ENDBRANCH   1   3
BRANCH   1  20
ATOM     20  C   UNL     1      27.761  12.370  -0.722  0.00  0.00    +0.193 C 
ATOM     21  O   UNL     1      27.114  11.150  -1.147  0.00  0.00    -0.219 OA
BRANCH  20  22
ATOM     22  C   UNL     1      29.183  12.280  -1.319  0.00  0.00    +0.212 C 
ATOM     23  O   UNL     1      29.212  12.856  -2.635  0.00  0.00    -0.218 OA
BRANCH  22  24
ATOM     24  C   UNL     1      30.278  12.989  -0.435  0.00  0.00    +0.171 C 
ATOM     25  O   UNL     1      29.724  13.953   0.455  0.00  0.00    -0.343 OA
ATOM     26  C   UNL     1      30.474  14.889   1.169  0.00  0.00    +0.220 C 
ATOM     27  C   UNL     1      31.447  15.657   0.257  0.00  0.00    +0.076 C 
ATOM     28  C   UNL     1      32.275  14.617  -0.516  0.00  0.00    +0.177 C 
ATOM     29  O   UNL     1      33.220  15.276  -1.347  0.00  0.00    -0.221 OA
ATOM     30  C   UNL     1      31.334  13.692  -1.349  0.00  0.00    +0.155 C 
BRANCH  30  31
ATOM     31  N   UNL     1      32.118  12.707  -2.090  0.00  0.00    -0.202 NA
ATOM     32  C   UNL     1      32.642  12.778  -3.340  0.00  0.00    +0.242 C 
ATOM     33  C   UNL     1      33.656  11.742  -3.750  0.00  0.00    +0.096 C 
ATOM     34  O   UNL     1      32.282  13.675  -4.100  0.00  0.00    -0.273 OA
ENDBRANCH  30  31
BRANCH  26  35
ATOM     35  C   UNL     1      31.237  14.260   2.459  0.00  0.00    +0.391 C 
ATOM     36  O   UNL     1      30.431  13.270   2.889  0.00  0.00    -0.243 OA
ATOM     37  O   UNL     1      32.484  14.744   2.424  0.00  0.00    -0.243 OA
ENDBRANCH  26  35
ENDBRANCH  22  24
ENDBRANCH  20  22
ENDBRANCH   1  20
TORSDOF 15
