REMARK VINA RESULT:    -6.008      3.242      8.199
REMARK INTER + INTRA:         -13.464
REMARK INTER:                 -10.615
REMARK INTRA:                  -2.849
REMARK UNBOUND:                -1.837
REMARK  Name = lig_assembled_45.pdb
REMARK  19 active torsions:
REMARK  status: ('A' for Active; 'I' for Inactive)
REMARK    1  A    between atoms: _2  and  _9
REMARK    2  A    between atoms: _3  and  _11
REMARK    3  A    between atoms: _3  and  _12
REMARK    4  A    between atoms: _3  and  _13
REMARK    5  A    between atoms: _3  and  _15
REMARK    6  A    between atoms: _5  and  _15
REMARK    7  A    between atoms: _6  and  _7
REMARK    8  A    between atoms: _6  and  _16
REMARK    9  A    between atoms: _9  and  _10
REMARK   10  A    between atoms: _10  and  _11
REMARK   11  A    between atoms: _13  and  _14
REMARK   12  A    between atoms: _16  and  _18
REMARK   13  A    between atoms: _17  and  _22
REMARK   14  A    between atoms: _18  and  _21
REMARK   15  A    between atoms: _26  and  _36
REMARK   16  A    between atoms: _28  and  _29
REMARK   17  A    between atoms: _30  and  _32
REMARK   18  A    between atoms: _32  and  _34
REMARK   19  A    between atoms: _34  and  _36
REMARK                            x       y       z     vdW  Elec       q    Type
REMARK                         _______ _______ _______ _____ _____    ______ ____
ROOT
ATOM      1  C   UNL     1      24.932  15.692  -3.285  0.00  0.00    +0.400 C 
ATOM      2  N   UNL     1      25.386  14.448  -2.915  0.00  0.00    -0.278 N 
ATOM      3  H   UNL     1      24.580  14.053  -2.335  0.00  0.00    +0.152 HD
ATOM      4  O   UNL     1      23.757  15.970  -3.059  0.00  0.00    -0.226 OA
ENDROOT
BRANCH   2   5
ATOM      5  C   UNL     1      26.444  13.443  -2.971  0.00  0.00    +0.152 C 
BRANCH   5   6
ATOM      6  C   UNL     1      26.036  12.004  -2.593  0.00  0.00    +0.193 C 
ATOM      7  O   UNL     1      27.253  11.227  -2.538  0.00  0.00    -0.219 OA
BRANCH   6   8
ATOM      8  C   UNL     1      25.378  11.787  -1.212  0.00  0.00    +0.212 C 
ATOM      9  O   UNL     1      25.725  12.856  -0.317  0.00  0.00    -0.218 OA
BRANCH   8  10
ATOM     10  C   UNL     1      23.807  11.676  -1.280  0.00  0.00    +0.171 C 
ATOM     11  O   UNL     1      23.220  12.698  -2.080  0.00  0.00    -0.343 OA
ATOM     12  C   UNL     1      21.853  12.983  -2.116  0.00  0.00    +0.220 C 
ATOM     13  C   UNL     1      21.269  13.157  -0.703  0.00  0.00    +0.076 C 
ATOM     14  C   UNL     1      21.649  11.909   0.112  0.00  0.00    +0.177 C 
ATOM     15  O   UNL     1      21.099  12.000   1.418  0.00  0.00    -0.221 OA
ATOM     16  C   UNL     1      23.201  11.751   0.160  0.00  0.00    +0.155 C 
BRANCH  16  17
ATOM     17  N   UNL     1      23.566  10.570   0.938  0.00  0.00    -0.202 NA
ATOM     18  C   UNL     1      24.119  10.483   2.175  0.00  0.00    +0.242 C 
ATOM     19  C   UNL     1      24.121   9.144   2.865  0.00  0.00    +0.096 C 
ATOM     20  O   UNL     1      24.599  11.487   2.698  0.00  0.00    -0.273 OA
ENDBRANCH  16  17
BRANCH  12  21
ATOM     21  C   UNL     1      20.992  11.918  -2.990  0.00  0.00    +0.391 C 
ATOM     22  O   UNL     1      19.710  12.306  -2.847  0.00  0.00    -0.243 OA
ATOM     23  O   UNL     1      21.878  11.260  -3.748  0.00  0.00    -0.243 OA
ENDBRANCH  12  21
ENDBRANCH   8  10
ENDBRANCH   6   8
ENDBRANCH   5   6
ENDBRANCH   2   5
BRANCH   1  24
ATOM     24  O   UNL     1      25.812  16.474  -3.818  0.00  0.00    -0.450 OA
BRANCH  24  25
ATOM     25  C   UNL     1      27.031  17.095  -3.483  0.00  0.00    +0.240 C 
BRANCH  25  26
ATOM     26  C   UNL     1      27.147  17.724  -2.081  0.00  0.00    +0.100 C 
BRANCH  26  28
ATOM     27  N   UNL     1      29.366  17.679  -0.975  0.00  0.00    -0.134 NA
ATOM     28  C   UNL     1      28.199  17.045  -1.302  0.00  0.00    +0.086 A 
ATOM     29  C   UNL     1      28.226  15.764  -0.796  0.00  0.00    +0.133 A 
ATOM     30  N   UNL     1      29.436  15.696  -0.176  0.00  0.00    -0.251 N 
ATOM     31  N   UNL     1      30.123  16.835  -0.286  0.00  0.00    -0.065 NA
BRANCH  30  32
ATOM     32  C   UNL     1      30.002  14.557   0.517  0.00  0.00    +0.150 C 
BRANCH  32  33
ATOM     33  C   UNL     1      28.997  13.852   1.420  0.00  0.00    +0.074 C 
BRANCH  33  34
ATOM     34  C   UNL     1      29.486  13.447   2.817  0.00  0.00    +0.134 C 
BRANCH  34  35
ATOM     35  N   UNL     1      29.402  11.936   3.214  0.00  0.00    +0.241 N 
ATOM     36  C   UNL     1      28.317  11.769   4.292  0.00  0.00    +0.192 C 
BRANCH  35  37
ATOM     37  C   UNL     1      30.788  11.578   3.846  0.00  0.00    +0.129 C 
ATOM     38  C   UNL     1      31.762  12.749   3.909  0.00  0.00    +0.060 C 
ENDBRANCH  35  37
BRANCH  35  39
ATOM     39  C   UNL     1      29.099  10.977   2.049  0.00  0.00    +0.129 C 
ATOM     40  C   UNL     1      30.332  10.491   1.304  0.00  0.00    +0.060 C 
ENDBRANCH  35  39
ENDBRANCH  34  35
ENDBRANCH  33  34
ENDBRANCH  32  33
ENDBRANCH  30  32
ENDBRANCH  26  28
ENDBRANCH  25  26
ENDBRANCH  24  25
ENDBRANCH   1  24
TORSDOF 16
