REMARK VINA RESULT:    -6.746      2.268      3.458
REMARK INTER + INTRA:         -12.583
REMARK INTER:                 -10.777
REMARK INTRA:                  -1.806
REMARK UNBOUND:                -1.499
REMARK  Name = lig_assembled_15.pdb
REMARK  11 active torsions:
REMARK  status: ('A' for Active; 'I' for Inactive)
REMARK    1  A    between atoms: _2  and  _8
REMARK    2  A    between atoms: _5  and  _6
REMARK    3  A    between atoms: _5  and  _13
REMARK    4  A    between atoms: _13  and  _15
REMARK    5  A    between atoms: _14  and  _19
REMARK    6  A    between atoms: _15  and  _18
REMARK    7  A    between atoms: _23  and  _33
REMARK    8  A    between atoms: _25  and  _26
REMARK    9  A    between atoms: _27  and  _29
REMARK   10  A    between atoms: _29  and  _31
REMARK   11  A    between atoms: _31  and  _33
REMARK                            x       y       z     vdW  Elec       q    Type
REMARK                         _______ _______ _______ _____ _____    ______ ____
ROOT
ATOM      1  C   UNL     1      25.870  16.016  -3.807  0.00  0.00    +0.400 C 
ATOM      2  N   UNL     1      26.264  15.360  -2.665  0.00  0.00    -0.278 N 
ATOM      3  H   UNL     1      26.713  16.133  -2.078  0.00  0.00    +0.152 HD
ATOM      4  O   UNL     1      25.935  17.243  -3.822  0.00  0.00    -0.226 OA
ENDROOT
BRANCH   1   5
ATOM      5  O   UNL     1      25.491  15.260  -4.784  0.00  0.00    -0.450 OA
BRANCH   5   6
ATOM      6  C   UNL     1      24.481  14.323  -5.080  0.00  0.00    +0.240 C 
BRANCH   6   7
ATOM      7  C   UNL     1      23.026  14.725  -4.774  0.00  0.00    +0.100 C 
BRANCH   7   9
ATOM      8  N   UNL     1      21.640  14.877  -2.730  0.00  0.00    -0.134 NA
ATOM      9  C   UNL     1      22.639  14.262  -3.428  0.00  0.00    +0.086 A 
ATOM     10  C   UNL     1      23.137  13.222  -2.677  0.00  0.00    +0.139 A 
ATOM     11  N   UNL     1      22.384  13.221  -1.525  0.00  0.00    -0.220 N 
ATOM     12  N   UNL     1      21.495  14.244  -1.574  0.00  0.00    -0.061 NA
BRANCH  11  13
ATOM     13  C   UNL     1      22.436  12.319  -0.431  0.00  0.00    +0.067 A 
ATOM     14  C   UNL     1      21.434  12.318   0.550  0.00  0.00    +0.029 A 
ATOM     15  C   UNL     1      21.523  11.450   1.642  0.00  0.00    +0.017 A 
ATOM     16  C   UNL     1      22.607  10.582   1.755  0.00  0.00    +0.018 A 
ATOM     17 BR   UNL     1      22.735   9.431   3.248  0.00  0.00    -0.050 Br
ATOM     18  C   UNL     1      23.601  10.563   0.778  0.00  0.00    +0.017 A 
ATOM     19  C   UNL     1      23.516  11.428  -0.316  0.00  0.00    +0.029 A 
ENDBRANCH  11  13
ENDBRANCH   7   9
ENDBRANCH   6   7
ENDBRANCH   5   6
ENDBRANCH   1   5
BRANCH   2  20
ATOM     20  C   UNL     1      26.330  14.114  -1.906  0.00  0.00    +0.152 C 
BRANCH  20  21
ATOM     21  C   UNL     1      27.648  13.319  -2.018  0.00  0.00    +0.193 C 
ATOM     22  O   UNL     1      27.984  13.269  -3.422  0.00  0.00    -0.219 OA
BRANCH  21  23
ATOM     23  C   UNL     1      28.902  13.915  -1.342  0.00  0.00    +0.212 C 
ATOM     24  O   UNL     1      28.712  15.314  -1.076  0.00  0.00    -0.218 OA
BRANCH  23  25
ATOM     25  C   UNL     1      29.289  13.194   0.005  0.00  0.00    +0.171 C 
ATOM     26  O   UNL     1      28.189  13.085   0.903  0.00  0.00    -0.343 OA
ATOM     27  C   UNL     1      28.301  12.715   2.245  0.00  0.00    +0.220 C 
ATOM     28  C   UNL     1      29.372  13.543   2.977  0.00  0.00    +0.076 C 
ATOM     29  C   UNL     1      30.673  13.437   2.166  0.00  0.00    +0.177 C 
ATOM     30  O   UNL     1      31.710  14.154   2.821  0.00  0.00    -0.221 OA
ATOM     31  C   UNL     1      30.447  13.967   0.715  0.00  0.00    +0.155 C 
BRANCH  31  32
ATOM     32  N   UNL     1      31.684  13.874  -0.057  0.00  0.00    -0.202 NA
ATOM     33  C   UNL     1      32.411  14.854  -0.651  0.00  0.00    +0.242 C 
ATOM     34  C   UNL     1      33.800  14.522  -1.132  0.00  0.00    +0.096 C 
ATOM     35  O   UNL     1      31.927  15.977  -0.780  0.00  0.00    -0.273 OA
ENDBRANCH  31  32
BRANCH  27  36
ATOM     36  C   UNL     1      28.528  11.121   2.461  0.00  0.00    +0.391 C 
ATOM     37  O   UNL     1      28.606  10.610   1.217  0.00  0.00    -0.243 OA
ATOM     38  O   UNL     1      28.850  10.964   3.751  0.00  0.00    -0.243 OA
ENDBRANCH  27  36
ENDBRANCH  23  25
ENDBRANCH  21  23
ENDBRANCH  20  21
ENDBRANCH   2  20
TORSDOF 11
