REMARK VINA RESULT:    -7.674      3.176      8.314
REMARK INTER + INTRA:         -15.706
REMARK INTER:                 -12.601
REMARK INTRA:                  -3.105
REMARK UNBOUND:                -1.975
REMARK  Name = lig_assembled_77.pdb
REMARK  14 active torsions:
REMARK  status: ('A' for Active; 'I' for Inactive)
REMARK    1  A    between atoms: _2  and  _9
REMARK    2  A    between atoms: _3  and  _16
REMARK    3  A    between atoms: _6  and  _7
REMARK    4  A    between atoms: _6  and  _22
REMARK    5  A    between atoms: _12  and  _50
REMARK    6  A    between atoms: _13  and  _50
REMARK    7  A    between atoms: _22  and  _24
REMARK    8  A    between atoms: _23  and  _28
REMARK    9  A    between atoms: _24  and  _27
REMARK   10  A    between atoms: _32  and  _42
REMARK   11  A    between atoms: _34  and  _35
REMARK   12  A    between atoms: _36  and  _38
REMARK   13  A    between atoms: _38  and  _40
REMARK   14  A    between atoms: _40  and  _42
REMARK                            x       y       z     vdW  Elec       q    Type
REMARK                         _______ _______ _______ _____ _____    ______ ____
ROOT
ATOM      1  C   UNL     1      30.948  15.753   0.264  0.00  0.00    +0.240 C 
ENDROOT
BRANCH   1   2
ATOM      2  C   UNL     1      31.145  14.258   0.580  0.00  0.00    +0.100 C 
BRANCH   2   4
ATOM      3  N   UNL     1      29.570  13.973   2.465  0.00  0.00    -0.134 NA
ATOM      4  C   UNL     1      29.920  13.692   1.177  0.00  0.00    +0.086 A 
ATOM      5  C   UNL     1      28.975  12.857   0.626  0.00  0.00    +0.139 A 
ATOM      6  N   UNL     1      28.048  12.662   1.625  0.00  0.00    -0.220 N 
ATOM      7  N   UNL     1      28.438  13.338   2.733  0.00  0.00    -0.061 NA
BRANCH   6   8
ATOM      8  C   UNL     1      26.822  11.945   1.576  0.00  0.00    +0.067 A 
ATOM      9  C   UNL     1      26.430  11.267   0.411  0.00  0.00    +0.030 A 
ATOM     10  C   UNL     1      25.168  10.670   0.340  0.00  0.00    +0.029 A 
ATOM     11  C   UNL     1      24.302  10.749   1.432  0.00  0.00    +0.094 A 
ATOM     12  C   UNL     1      24.717  11.342   2.628  0.00  0.00    +0.029 A 
ATOM     13  C   UNL     1      25.973  11.951   2.695  0.00  0.00    +0.030 A 
BRANCH  11  14
ATOM     14  S   UNL     1      22.668  10.049   1.314  0.00  0.00    +0.025 S 
ATOM     15  O   UNL     1      22.853   8.620   1.130  0.00  0.00    -0.164 OA
ATOM     16  O   UNL     1      21.897  10.557   2.433  0.00  0.00    -0.164 OA
BRANCH  14  17
ATOM     17  C   UNL     1      21.881  10.667  -0.159  0.00  0.00    +0.094 A 
ATOM     18  C   UNL     1      21.404  11.977  -0.224  0.00  0.00    +0.029 A 
ATOM     19  C   UNL     1      20.736  12.410  -1.375  0.00  0.00    +0.024 A 
ATOM     20  C   UNL     1      20.579  11.565  -2.481  0.00  0.00    +0.025 A 
ATOM     21  C   UNL     1      21.036  10.247  -2.387  0.00  0.00    +0.024 A 
ATOM     22  C   UNL     1      21.704   9.801  -1.242  0.00  0.00    +0.029 A 
BRANCH  20  23
ATOM     23  N   UNL     1      19.765  11.949  -3.551  0.00  0.00    -0.358 N 
ATOM     24  H   UNL     1      20.207  12.571  -4.219  0.00  0.00    +0.142 HD
ATOM     25  H   UNL     1      19.272  11.184  -3.999  0.00  0.00    +0.142 HD
ENDBRANCH  20  23
ENDBRANCH  14  17
ENDBRANCH  11  14
ENDBRANCH   6   8
ENDBRANCH   2   4
ENDBRANCH   1   2
BRANCH   1  26
ATOM     26  O   UNL     1      29.825  16.113  -0.506  0.00  0.00    -0.450 OA
BRANCH  26  27
ATOM     27  C   UNL     1      28.879  16.993  -0.507  0.00  0.00    +0.400 C 
ATOM     28  N   UNL     1      27.765  16.669  -1.245  0.00  0.00    -0.278 N 
ATOM     29  H   UNL     1      27.052  17.412  -0.957  0.00  0.00    +0.152 HD
ATOM     30  O   UNL     1      28.878  18.058   0.105  0.00  0.00    -0.226 OA
BRANCH  28  31
ATOM     31  C   UNL     1      27.138  15.794  -2.233  0.00  0.00    +0.152 C 
BRANCH  31  32
ATOM     32  C   UNL     1      26.156  16.470  -3.213  0.00  0.00    +0.193 C 
ATOM     33  O   UNL     1      26.834  17.628  -3.748  0.00  0.00    -0.219 OA
BRANCH  32  34
ATOM     34  C   UNL     1      25.724  15.666  -4.459  0.00  0.00    +0.212 C 
ATOM     35  O   UNL     1      26.743  15.724  -5.471  0.00  0.00    -0.218 OA
BRANCH  34  36
ATOM     36  C   UNL     1      25.408  14.154  -4.149  0.00  0.00    +0.171 C 
ATOM     37  O   UNL     1      26.354  13.265  -4.733  0.00  0.00    -0.343 OA
ATOM     38  C   UNL     1      26.184  11.881  -4.824  0.00  0.00    +0.220 C 
ATOM     39  C   UNL     1      24.818  11.513  -5.429  0.00  0.00    +0.076 C 
ATOM     40  C   UNL     1      23.738  12.246  -4.616  0.00  0.00    +0.177 C 
ATOM     41  O   UNL     1      22.450  11.907  -5.110  0.00  0.00    -0.221 OA
ATOM     42  C   UNL     1      23.979  13.786  -4.669  0.00  0.00    +0.155 C 
BRANCH  42  43
ATOM     43  N   UNL     1      22.951  14.487  -3.903  0.00  0.00    -0.202 NA
ATOM     44  C   UNL     1      21.742  14.957  -4.301  0.00  0.00    +0.242 C 
ATOM     45  C   UNL     1      20.754  15.377  -3.243  0.00  0.00    +0.096 C 
ATOM     46  O   UNL     1      21.482  15.026  -5.500  0.00  0.00    -0.273 OA
ENDBRANCH  42  43
BRANCH  38  47
ATOM     47  C   UNL     1      26.444  11.104  -3.421  0.00  0.00    +0.391 C 
ATOM     48  O   UNL     1      27.269  11.911  -2.725  0.00  0.00    -0.243 OA
ATOM     49  O   UNL     1      25.527  10.131  -3.361  0.00  0.00    -0.243 OA
ENDBRANCH  38  47
ENDBRANCH  34  36
ENDBRANCH  32  34
ENDBRANCH  31  32
ENDBRANCH  28  31
ENDBRANCH  26  27
ENDBRANCH   1  26
TORSDOF 14
