REMARK VINA RESULT:    -7.547      3.196      7.671
REMARK INTER + INTRA:         -13.466
REMARK INTER:                 -11.038
REMARK INTRA:                  -2.429
REMARK UNBOUND:                -0.626
REMARK  Name = lig_assembled_5.pdb
REMARK  13 active torsions:
REMARK  status: ('A' for Active; 'I' for Inactive)
REMARK    1  A    between atoms: _2  and  _8
REMARK    2  A    between atoms: _5  and  _6
REMARK    3  A    between atoms: _5  and  _15
REMARK    4  A    between atoms: _11  and  _14
REMARK    5  A    between atoms: _12  and  _14
REMARK    6  A    between atoms: _15  and  _17
REMARK    7  A    between atoms: _16  and  _21
REMARK    8  A    between atoms: _17  and  _20
REMARK    9  A    between atoms: _25  and  _35
REMARK   10  A    between atoms: _27  and  _28
REMARK   11  A    between atoms: _29  and  _31
REMARK   12  A    between atoms: _31  and  _33
REMARK   13  A    between atoms: _33  and  _35
REMARK                            x       y       z     vdW  Elec       q    Type
REMARK                         _______ _______ _______ _____ _____    ______ ____
ROOT
ATOM      1  C   UNL     1      28.569  17.110  -0.559  0.00  0.00    +0.400 C 
ATOM      2  N   UNL     1      27.511  16.578  -1.257  0.00  0.00    -0.278 N 
ATOM      3  H   UNL     1      26.662  17.067  -0.829  0.00  0.00    +0.152 HD
ATOM      4  O   UNL     1      28.353  18.064   0.184  0.00  0.00    -0.226 OA
ENDROOT
BRANCH   2   5
ATOM      5  C   UNL     1      27.039  15.677  -2.305  0.00  0.00    +0.152 C 
BRANCH   5   6
ATOM      6  C   UNL     1      25.962  16.243  -3.254  0.00  0.00    +0.193 C 
ATOM      7  O   UNL     1      26.515  17.442  -3.840  0.00  0.00    -0.219 OA
BRANCH   6   8
ATOM      8  C   UNL     1      25.549  15.377  -4.464  0.00  0.00    +0.212 C 
ATOM      9  O   UNL     1      26.393  15.656  -5.592  0.00  0.00    -0.218 OA
BRANCH   8  10
ATOM     10  C   UNL     1      25.597  13.829  -4.169  0.00  0.00    +0.171 C 
ATOM     11  O   UNL     1      26.481  13.132  -5.041  0.00  0.00    -0.343 OA
ATOM     12  C   UNL     1      26.533  11.742  -5.164  0.00  0.00    +0.220 C 
ATOM     13  C   UNL     1      25.138  11.137  -5.396  0.00  0.00    +0.076 C 
ATOM     14  C   UNL     1      24.218  11.653  -4.277  0.00  0.00    +0.177 C 
ATOM     15  O   UNL     1      22.922  11.091  -4.422  0.00  0.00    -0.221 OA
ATOM     16  C   UNL     1      24.165  13.213  -4.302  0.00  0.00    +0.155 C 
BRANCH  16  17
ATOM     17  N   UNL     1      23.287  13.707  -3.245  0.00  0.00    -0.202 NA
ATOM     18  C   UNL     1      22.159  14.457  -3.334  0.00  0.00    +0.242 C 
ATOM     19  C   UNL     1      21.283  14.579  -2.115  0.00  0.00    +0.096 C 
ATOM     20  O   UNL     1      21.881  15.013  -4.395  0.00  0.00    -0.273 OA
ENDBRANCH  16  17
BRANCH  12  21
ATOM     21  C   UNL     1      27.304  11.012  -3.934  0.00  0.00    +0.391 C 
ATOM     22  O   UNL     1      28.005  11.993  -3.333  0.00  0.00    -0.243 OA
ATOM     23  O   UNL     1      26.730   9.810  -3.800  0.00  0.00    -0.243 OA
ENDBRANCH  12  21
ENDBRANCH   8  10
ENDBRANCH   6   8
ENDBRANCH   5   6
ENDBRANCH   2   5
BRANCH   1  24
ATOM     24  O   UNL     1      29.707  16.522  -0.733  0.00  0.00    -0.450 OA
BRANCH  24  25
ATOM     25  C   UNL     1      30.679  15.832   0.018  0.00  0.00    +0.240 C 
BRANCH  25  26
ATOM     26  C   UNL     1      30.634  14.292  -0.005  0.00  0.00    +0.100 C 
BRANCH  26  28
ATOM     27  N   UNL     1      29.088  14.055   1.912  0.00  0.00    -0.134 NA
ATOM     28  C   UNL     1      29.381  13.808   0.602  0.00  0.00    +0.086 A 
ATOM     29  C   UNL     1      28.350  13.090   0.040  0.00  0.00    +0.139 A 
ATOM     30  N   UNL     1      27.425  12.944   1.050  0.00  0.00    -0.220 N 
ATOM     31  N   UNL     1      27.904  13.521   2.179  0.00  0.00    -0.061 NA
BRANCH  30  32
ATOM     32  C   UNL     1      26.144  12.335   0.998  0.00  0.00    +0.067 A 
ATOM     33  C   UNL     1      25.331  12.469  -0.133  0.00  0.00    +0.031 A 
ATOM     34  C   UNL     1      24.048  11.914  -0.139  0.00  0.00    +0.048 A 
ATOM     35  C   UNL     1      23.570  11.204   0.964  0.00  0.00    +0.120 A 
ATOM     36  C   UNL     1      24.384  11.053   2.085  0.00  0.00    +0.048 A 
ATOM     37  C   UNL     1      25.668  11.616   2.105  0.00  0.00    +0.031 A 
BRANCH  35  38
ATOM     38  O   UNL     1      22.280  10.767   0.850  0.00  0.00    -0.495 OA
ATOM     39  C   UNL     1      21.463  11.451  -0.092  0.00  0.00    +0.277 C 
ENDBRANCH  35  38
ENDBRANCH  30  32
ENDBRANCH  26  28
ENDBRANCH  25  26
ENDBRANCH  24  25
ENDBRANCH   1  24
TORSDOF 12
