REMARK VINA RESULT:    -6.966      3.700      8.012
REMARK INTER + INTRA:         -13.245
REMARK INTER:                 -10.426
REMARK INTRA:                  -2.819
REMARK UNBOUND:                -1.188
REMARK  Name = lig_assembled_35.pdb
REMARK  14 active torsions:
REMARK  status: ('A' for Active; 'I' for Inactive)
REMARK    1  A    between atoms: _2  and  _8
REMARK    2  A    between atoms: _4  and  _8
REMARK    3  A    between atoms: _4  and  _10
REMARK    4  A    between atoms: _5  and  _6
REMARK    5  A    between atoms: _5  and  _12
REMARK    6  A    between atoms: _8  and  _9
REMARK    7  A    between atoms: _12  and  _14
REMARK    8  A    between atoms: _13  and  _18
REMARK    9  A    between atoms: _14  and  _17
REMARK   10  A    between atoms: _22  and  _32
REMARK   11  A    between atoms: _24  and  _25
REMARK   12  A    between atoms: _26  and  _28
REMARK   13  A    between atoms: _28  and  _30
REMARK   14  A    between atoms: _30  and  _32
REMARK                            x       y       z     vdW  Elec       q    Type
REMARK                         _______ _______ _______ _____ _____    ______ ____
ROOT
ATOM      1  C   UNL     1      27.154  17.117  -3.524  0.00  0.00    +0.152 C 
ENDROOT
BRANCH   1   3
ATOM      2  C   UNL     1      27.939  17.834  -1.011  0.00  0.00    +0.400 C 
ATOM      3  N   UNL     1      27.204  17.616  -2.152  0.00  0.00    -0.278 N 
ATOM      4  H   UNL     1      26.240  18.005  -1.903  0.00  0.00    +0.152 HD
ATOM      5  O   UNL     1      27.443  18.525  -0.125  0.00  0.00    -0.226 OA
BRANCH   2   6
ATOM      6  O   UNL     1      29.093  17.253  -0.969  0.00  0.00    -0.450 OA
BRANCH   6   7
ATOM      7  C   UNL     1      30.160  17.059  -0.070  0.00  0.00    +0.240 C 
BRANCH   7   8
ATOM      8  C   UNL     1      30.986  15.767  -0.214  0.00  0.00    +0.100 C 
BRANCH   8  10
ATOM      9  N   UNL     1      30.279  13.408  -0.456  0.00  0.00    -0.134 NA
ATOM     10  C   UNL     1      30.190  14.601   0.212  0.00  0.00    +0.086 A 
ATOM     11  C   UNL     1      29.290  14.470   1.246  0.00  0.00    +0.134 A 
ATOM     12  N   UNL     1      28.876  13.173   1.163  0.00  0.00    -0.238 N 
ATOM     13  N   UNL     1      29.457  12.546   0.126  0.00  0.00    -0.065 NA
BRANCH  12  14
ATOM     14  C   UNL     1      27.925  12.449   1.985  0.00  0.00    +0.214 C 
ATOM     15  C   UNL     1      27.847  13.049   3.386  0.00  0.00    +0.045 C 
BRANCH  14  16
ATOM     16  C   UNL     1      26.566  12.369   1.321  0.00  0.00    +0.329 C 
ATOM     17  O   UNL     1      25.610  11.756   1.775  0.00  0.00    -0.249 OA
BRANCH  16  18
ATOM     18  O   UNL     1      26.484  13.023   0.136  0.00  0.00    -0.479 OA
ATOM     19  H   UNL     1      25.591  13.337  -0.116  0.00  0.00    +0.295 HD
ENDBRANCH  16  18
ENDBRANCH  14  16
ENDBRANCH  12  14
ENDBRANCH   8  10
ENDBRANCH   7   8
ENDBRANCH   6   7
ENDBRANCH   2   6
ENDBRANCH   1   3
BRANCH   1  20
ATOM     20  C   UNL     1      26.013  16.130  -3.847  0.00  0.00    +0.193 C 
ATOM     21  O   UNL     1      26.035  15.924  -5.277  0.00  0.00    -0.219 OA
BRANCH  20  22
ATOM     22  C   UNL     1      26.107  14.709  -3.251  0.00  0.00    +0.212 C 
ATOM     23  O   UNL     1      26.826  14.732  -2.008  0.00  0.00    -0.218 OA
BRANCH  22  24
ATOM     24  C   UNL     1      24.701  14.040  -3.007  0.00  0.00    +0.171 C 
ATOM     25  O   UNL     1      23.867  14.813  -2.150  0.00  0.00    -0.343 OA
ATOM     26  C   UNL     1      22.681  14.351  -1.577  0.00  0.00    +0.220 C 
ATOM     27  C   UNL     1      22.876  12.996  -0.875  0.00  0.00    +0.076 C 
ATOM     28  C   UNL     1      23.521  12.038  -1.891  0.00  0.00    +0.177 C 
ATOM     29  O   UNL     1      23.688  10.755  -1.304  0.00  0.00    -0.221 OA
ATOM     30  C   UNL     1      24.883  12.616  -2.386  0.00  0.00    +0.155 C 
BRANCH  30  31
ATOM     31  N   UNL     1      25.502  11.706  -3.345  0.00  0.00    -0.202 NA
ATOM     32  C   UNL     1      26.630  10.959  -3.230  0.00  0.00    +0.242 C 
ATOM     33  C   UNL     1      26.883   9.883  -4.254  0.00  0.00    +0.096 C 
ATOM     34  O   UNL     1      27.408  11.173  -2.303  0.00  0.00    -0.273 OA
ENDBRANCH  30  31
BRANCH  26  35
ATOM     35  C   UNL     1      21.433  14.310  -2.616  0.00  0.00    +0.391 C 
ATOM     36  O   UNL     1      20.440  13.697  -1.943  0.00  0.00    -0.243 OA
ATOM     37  O   UNL     1      21.752  15.148  -3.610  0.00  0.00    -0.243 OA
ENDBRANCH  26  35
ENDBRANCH  22  24
ENDBRANCH  20  22
ENDBRANCH   1  20
TORSDOF 13
