REMARK VINA RESULT:    -6.660      3.247      3.954
REMARK INTER + INTRA:         -12.441
REMARK INTER:                 -11.446
REMARK INTRA:                  -0.995
REMARK UNBOUND:                -1.499
REMARK  Name = lig_assembled_15.pdb
REMARK  11 active torsions:
REMARK  status: ('A' for Active; 'I' for Inactive)
REMARK    1  A    between atoms: _2  and  _8
REMARK    2  A    between atoms: _5  and  _6
REMARK    3  A    between atoms: _5  and  _13
REMARK    4  A    between atoms: _13  and  _15
REMARK    5  A    between atoms: _14  and  _19
REMARK    6  A    between atoms: _15  and  _18
REMARK    7  A    between atoms: _23  and  _33
REMARK    8  A    between atoms: _25  and  _26
REMARK    9  A    between atoms: _27  and  _29
REMARK   10  A    between atoms: _29  and  _31
REMARK   11  A    between atoms: _31  and  _33
REMARK                            x       y       z     vdW  Elec       q    Type
REMARK                         _______ _______ _______ _____ _____    ______ ____
ROOT
ATOM      1  C   UNL     1      26.852  16.880  -2.787  0.00  0.00    +0.400 C 
ATOM      2  N   UNL     1      27.856  17.156  -1.889  0.00  0.00    -0.278 N 
ATOM      3  H   UNL     1      28.570  17.694  -2.474  0.00  0.00    +0.152 HD
ATOM      4  O   UNL     1      26.898  17.418  -3.890  0.00  0.00    -0.226 OA
ENDROOT
BRANCH   1   5
ATOM      5  O   UNL     1      25.956  16.040  -2.383  0.00  0.00    -0.450 OA
BRANCH   5   6
ATOM      6  C   UNL     1      25.134  15.023  -2.906  0.00  0.00    +0.240 C 
BRANCH   6   7
ATOM      7  C   UNL     1      24.525  14.018  -1.908  0.00  0.00    +0.100 C 
BRANCH   7   9
ATOM      8  N   UNL     1      22.284  13.318  -1.129  0.00  0.00    -0.134 NA
ATOM      9  C   UNL     1      23.053  14.033  -2.001  0.00  0.00    +0.086 A 
ATOM     10  C   UNL     1      22.232  14.704  -2.878  0.00  0.00    +0.139 A 
ATOM     11  N   UNL     1      20.953  14.388  -2.482  0.00  0.00    -0.220 N 
ATOM     12  N   UNL     1      21.011  13.533  -1.430  0.00  0.00    -0.061 NA
BRANCH  11  13
ATOM     13  C   UNL     1      19.720  14.856  -3.005  0.00  0.00    +0.067 A 
ATOM     14  C   UNL     1      19.672  15.987  -3.832  0.00  0.00    +0.029 A 
ATOM     15  C   UNL     1      18.443  16.457  -4.306  0.00  0.00    +0.017 A 
ATOM     16  C   UNL     1      17.265  15.801  -3.957  0.00  0.00    +0.018 A 
ATOM     17 BR   UNL     1      15.606  16.459  -4.577  0.00  0.00    -0.050 Br
ATOM     18  C   UNL     1      17.302  14.668  -3.147  0.00  0.00    +0.017 A 
ATOM     19  C   UNL     1      18.527  14.192  -2.672  0.00  0.00    +0.029 A 
ENDBRANCH  11  13
ENDBRANCH   7   9
ENDBRANCH   6   7
ENDBRANCH   5   6
ENDBRANCH   1   5
BRANCH   2  20
ATOM     20  C   UNL     1      28.366  17.059  -0.523  0.00  0.00    +0.152 C 
BRANCH  20  21
ATOM     21  C   UNL     1      28.909  15.679  -0.097  0.00  0.00    +0.193 C 
ATOM     22  O   UNL     1      28.189  14.693  -0.869  0.00  0.00    -0.219 OA
BRANCH  21  23
ATOM     23  C   UNL     1      30.397  15.379  -0.380  0.00  0.00    +0.212 C 
ATOM     24  O   UNL     1      31.176  16.584  -0.304  0.00  0.00    -0.218 OA
BRANCH  23  25
ATOM     25  C   UNL     1      31.018  14.316   0.605  0.00  0.00    +0.171 C 
ATOM     26  O   UNL     1      31.221  14.836   1.915  0.00  0.00    -0.343 OA
ATOM     27  C   UNL     1      31.970  14.200   2.908  0.00  0.00    +0.220 C 
ATOM     28  C   UNL     1      33.357  13.779   2.394  0.00  0.00    +0.076 C 
ATOM     29  C   UNL     1      33.146  12.953   1.114  0.00  0.00    +0.177 C 
ATOM     30  O   UNL     1      34.399  12.504   0.618  0.00  0.00    -0.221 OA
ATOM     31  C   UNL     1      32.385  13.800   0.048  0.00  0.00    +0.155 C 
BRANCH  31  32
ATOM     32  N   UNL     1      32.188  13.022  -1.172  0.00  0.00    -0.202 NA
ATOM     33  C   UNL     1      32.656  13.242  -2.427  0.00  0.00    +0.242 C 
ATOM     34  C   UNL     1      32.550  12.128  -3.436  0.00  0.00    +0.096 C 
ATOM     35  O   UNL     1      33.151  14.331  -2.709  0.00  0.00    -0.273 OA
ENDBRANCH  31  32
BRANCH  27  36
ATOM     36  C   UNL     1      31.191  12.959   3.611  0.00  0.00    +0.391 C 
ATOM     37  O   UNL     1      32.122  12.352   4.373  0.00  0.00    -0.243 OA
ATOM     38  O   UNL     1      29.886  13.182   3.414  0.00  0.00    -0.243 OA
ENDBRANCH  27  36
ENDBRANCH  23  25
ENDBRANCH  21  23
ENDBRANCH  20  21
ENDBRANCH   2  20
TORSDOF 11
