REMARK VINA RESULT:    -6.321      3.548      9.721
REMARK INTER + INTRA:         -12.899
REMARK INTER:                 -10.733
REMARK INTRA:                  -2.166
REMARK UNBOUND:                -2.144
REMARK  Name = lig_assembled_63.pdb
REMARK  12 active torsions:
REMARK  status: ('A' for Active; 'I' for Inactive)
REMARK    1  A    between atoms: _2  and  _10
REMARK    2  A    between atoms: _6  and  _14
REMARK    3  A    between atoms: _7  and  _8
REMARK    4  A    between atoms: _7  and  _15
REMARK    5  A    between atoms: _15  and  _17
REMARK    6  A    between atoms: _16  and  _21
REMARK    7  A    between atoms: _17  and  _20
REMARK    8  A    between atoms: _25  and  _35
REMARK    9  A    between atoms: _27  and  _28
REMARK   10  A    between atoms: _29  and  _31
REMARK   11  A    between atoms: _31  and  _33
REMARK   12  A    between atoms: _33  and  _35
REMARK                            x       y       z     vdW  Elec       q    Type
REMARK                         _______ _______ _______ _____ _____    ______ ____
ROOT
ATOM      1  C   UNL     1      26.490  16.683  -3.219  0.00  0.00    +0.400 C 
ATOM      2  N   UNL     1      26.593  15.312  -3.239  0.00  0.00    -0.278 N 
ATOM      3  H   UNL     1      25.690  15.004  -3.720  0.00  0.00    +0.152 HD
ATOM      4  O   UNL     1      25.580  17.206  -3.858  0.00  0.00    -0.226 OA
ENDROOT
BRANCH   2   5
ATOM      5  C   UNL     1      27.370  14.118  -2.919  0.00  0.00    +0.152 C 
BRANCH   5   6
ATOM      6  C   UNL     1      26.610  12.777  -2.976  0.00  0.00    +0.193 C 
ATOM      7  O   UNL     1      27.605  11.732  -2.899  0.00  0.00    -0.219 OA
BRANCH   6   8
ATOM      8  C   UNL     1      25.630  12.461  -1.825  0.00  0.00    +0.212 C 
ATOM      9  O   UNL     1      25.911  13.289  -0.685  0.00  0.00    -0.218 OA
BRANCH   8  10
ATOM     10  C   UNL     1      24.116  12.650  -2.224  0.00  0.00    +0.171 C 
ATOM     11  O   UNL     1      23.849  13.942  -2.760  0.00  0.00    -0.343 OA
ATOM     12  C   UNL     1      22.568  14.460  -2.966  0.00  0.00    +0.220 C 
ATOM     13  C   UNL     1      21.690  14.327  -1.710  0.00  0.00    +0.076 C 
ATOM     14  C   UNL     1      21.730  12.854  -1.271  0.00  0.00    +0.177 C 
ATOM     15  O   UNL     1      20.900  12.669  -0.133  0.00  0.00    -0.221 OA
ATOM     16  C   UNL     1      23.200  12.420  -0.978  0.00  0.00    +0.155 C 
BRANCH  16  17
ATOM     17  N   UNL     1      23.241  11.023  -0.553  0.00  0.00    -0.202 NA
ATOM     18  C   UNL     1      23.646  10.486   0.625  0.00  0.00    +0.242 C 
ATOM     19  C   UNL     1      23.309   9.045   0.908  0.00  0.00    +0.096 C 
ATOM     20  O   UNL     1      24.271  11.179   1.426  0.00  0.00    -0.273 OA
ENDBRANCH  16  17
BRANCH  12  21
ATOM     21  C   UNL     1      21.828  13.852  -4.279  0.00  0.00    +0.391 C 
ATOM     22  O   UNL     1      20.523  14.139  -4.106  0.00  0.00    -0.243 OA
ATOM     23  O   UNL     1      22.800  13.574  -5.156  0.00  0.00    -0.243 OA
ENDBRANCH  12  21
ENDBRANCH   8  10
ENDBRANCH   6   8
ENDBRANCH   5   6
ENDBRANCH   2   5
BRANCH   1  24
ATOM     24  O   UNL     1      27.361  17.299  -2.489  0.00  0.00    -0.450 OA
BRANCH  24  25
ATOM     25  C   UNL     1      27.540  17.703  -1.151  0.00  0.00    +0.240 C 
BRANCH  25  26
ATOM     26  C   UNL     1      28.982  17.956  -0.672  0.00  0.00    +0.100 C 
BRANCH  26  28
ATOM     27  N   UNL     1      28.867  15.552  -0.108  0.00  0.00    -0.134 NA
ATOM     28  C   UNL     1      29.603  16.696  -0.222  0.00  0.00    +0.087 A 
ATOM     29  C   UNL     1      30.899  16.431   0.152  0.00  0.00    +0.141 A 
ATOM     30  N   UNL     1      30.898  15.103   0.528  0.00  0.00    -0.201 N 
ATOM     31  N   UNL     1      29.663  14.591   0.341  0.00  0.00    -0.059 NA
BRANCH  30  32
ATOM     32  C   UNL     1      31.994  14.380   1.087  0.00  0.00    +0.173 A 
ATOM     33  C   UNL     1      33.045  13.894   0.306  0.00  0.00    +0.096 A 
ATOM     34  C   UNL     1      34.022  13.112   0.945  0.00  0.00    +0.024 A 
ATOM     35  C   UNL     1      33.946  12.861   2.311  0.00  0.00    +0.021 A 
ATOM     36  C   UNL     1      32.895  13.412   3.014  0.00  0.00    +0.113 A 
ATOM     37  N   UNL     1      31.925  14.154   2.439  0.00  0.00    -0.235 NA
BRANCH  33  38
ATOM     38  C   UNL     1      33.226  14.140  -1.094  0.00  0.00    +0.103 C 
ATOM     39  N   UNL     1      33.268  14.337  -2.238  0.00  0.00    -0.191 NA
ENDBRANCH  33  38
ENDBRANCH  30  32
ENDBRANCH  26  28
ENDBRANCH  25  26
ENDBRANCH  24  25
ENDBRANCH   1  24
TORSDOF 12
