REMARK VINA RESULT:    -6.668      3.833      7.844
REMARK INTER + INTRA:         -12.455
REMARK INTER:                 -10.293
REMARK INTRA:                  -2.162
REMARK UNBOUND:                -1.499
REMARK  Name = lig_assembled_15.pdb
REMARK  11 active torsions:
REMARK  status: ('A' for Active; 'I' for Inactive)
REMARK    1  A    between atoms: _2  and  _8
REMARK    2  A    between atoms: _5  and  _6
REMARK    3  A    between atoms: _5  and  _13
REMARK    4  A    between atoms: _13  and  _15
REMARK    5  A    between atoms: _14  and  _19
REMARK    6  A    between atoms: _15  and  _18
REMARK    7  A    between atoms: _23  and  _33
REMARK    8  A    between atoms: _25  and  _26
REMARK    9  A    between atoms: _27  and  _29
REMARK   10  A    between atoms: _29  and  _31
REMARK   11  A    between atoms: _31  and  _33
REMARK                            x       y       z     vdW  Elec       q    Type
REMARK                         _______ _______ _______ _____ _____    ______ ____
ROOT
ATOM      1  C   UNL     1      25.672  15.718  -4.809  0.00  0.00    +0.400 C 
ATOM      2  N   UNL     1      24.405  15.204  -4.663  0.00  0.00    -0.278 N 
ATOM      3  H   UNL     1      24.283  14.599  -5.536  0.00  0.00    +0.152 HD
ATOM      4  O   UNL     1      26.381  15.269  -5.706  0.00  0.00    -0.226 OA
ENDROOT
BRANCH   1   5
ATOM      5  O   UNL     1      25.989  16.666  -3.988  0.00  0.00    -0.450 OA
BRANCH   5   6
ATOM      6  C   UNL     1      27.141  17.292  -3.473  0.00  0.00    +0.240 C 
BRANCH   6   7
ATOM      7  C   UNL     1      27.104  17.750  -2.003  0.00  0.00    +0.100 C 
BRANCH   7   9
ATOM      8  N   UNL     1      29.342  17.761  -0.949  0.00  0.00    -0.134 NA
ATOM      9  C   UNL     1      28.184  17.100  -1.236  0.00  0.00    +0.086 A 
ATOM     10  C   UNL     1      28.243  15.835  -0.697  0.00  0.00    +0.139 A 
ATOM     11  N   UNL     1      29.459  15.777  -0.057  0.00  0.00    -0.220 N 
ATOM     12  N   UNL     1      30.114  16.951  -0.238  0.00  0.00    -0.061 NA
BRANCH  11  13
ATOM     13  C   UNL     1      30.007  14.721   0.717  0.00  0.00    +0.067 A 
ATOM     14  C   UNL     1      31.389  14.490   0.744  0.00  0.00    +0.029 A 
ATOM     15  C   UNL     1      31.906  13.419   1.480  0.00  0.00    +0.017 A 
ATOM     16  C   UNL     1      31.047  12.582   2.189  0.00  0.00    +0.018 A 
ATOM     17 BR   UNL     1      31.751  11.120   3.158  0.00  0.00    -0.050 Br
ATOM     18  C   UNL     1      29.673  12.810   2.181  0.00  0.00    +0.017 A 
ATOM     19  C   UNL     1      29.151  13.880   1.448  0.00  0.00    +0.029 A 
ENDBRANCH  11  13
ENDBRANCH   7   9
ENDBRANCH   6   7
ENDBRANCH   5   6
ENDBRANCH   1   5
BRANCH   2  20
ATOM     20  C   UNL     1      23.187  15.105  -3.864  0.00  0.00    +0.152 C 
BRANCH  20  21
ATOM     21  C   UNL     1      23.043  13.836  -2.999  0.00  0.00    +0.193 C 
ATOM     22  O   UNL     1      22.429  12.831  -3.836  0.00  0.00    -0.219 OA
BRANCH  21  23
ATOM     23  C   UNL     1      24.339  13.170  -2.486  0.00  0.00    +0.212 C 
ATOM     24  O   UNL     1      25.200  14.148  -1.882  0.00  0.00    -0.218 OA
BRANCH  23  25
ATOM     25  C   UNL     1      24.077  12.017  -1.443  0.00  0.00    +0.171 C 
ATOM     26  O   UNL     1      23.119  12.380  -0.454  0.00  0.00    -0.343 OA
ATOM     27  C   UNL     1      22.879  11.654   0.715  0.00  0.00    +0.220 C 
ATOM     28  C   UNL     1      24.183  11.348   1.473  0.00  0.00    +0.076 C 
ATOM     29  C   UNL     1      25.148  10.678   0.482  0.00  0.00    +0.177 C 
ATOM     30  O   UNL     1      26.358  10.337   1.144  0.00  0.00    -0.221 OA
ATOM     31  C   UNL     1      25.413  11.622  -0.732  0.00  0.00    +0.155 C 
BRANCH  31  32
ATOM     32  N   UNL     1      26.335  10.992  -1.673  0.00  0.00    -0.202 NA
ATOM     33  C   UNL     1      27.630  11.290  -1.951  0.00  0.00    +0.242 C 
ATOM     34  C   UNL     1      28.438  10.298  -2.746  0.00  0.00    +0.096 C 
ATOM     35  O   UNL     1      28.108  12.350  -1.551  0.00  0.00    -0.273 OA
ENDBRANCH  31  32
BRANCH  27  36
ATOM     36  C   UNL     1      21.999  10.310   0.474  0.00  0.00    +0.391 C 
ATOM     37  O   UNL     1      21.865   9.758   1.696  0.00  0.00    -0.243 OA
ATOM     38  O   UNL     1      21.495  10.415  -0.761  0.00  0.00    -0.243 OA
ENDBRANCH  27  36
ENDBRANCH  23  25
ENDBRANCH  21  23
ENDBRANCH  20  21
ENDBRANCH   2  20
TORSDOF 11
