REMARK VINA RESULT:    -6.128      2.592     10.701
REMARK INTER + INTRA:         -13.430
REMARK INTER:                 -11.714
REMARK INTRA:                  -1.715
REMARK UNBOUND:                -2.286
REMARK  Name = lig_assembled_62.pdb
REMARK  15 active torsions:
REMARK  status: ('A' for Active; 'I' for Inactive)
REMARK    1  A    between atoms: _2  and  _9
REMARK    2  A    between atoms: _5  and  _9
REMARK    3  A    between atoms: _6  and  _7
REMARK    4  A    between atoms: _6  and  _14
REMARK    5  A    between atoms: _9  and  _10
REMARK    6  A    between atoms: _10  and  _13
REMARK    7  A    between atoms: _11  and  _13
REMARK    8  A    between atoms: _14  and  _16
REMARK    9  A    between atoms: _15  and  _20
REMARK   10  A    between atoms: _16  and  _19
REMARK   11  A    between atoms: _24  and  _34
REMARK   12  A    between atoms: _26  and  _27
REMARK   13  A    between atoms: _28  and  _30
REMARK   14  A    between atoms: _30  and  _32
REMARK   15  A    between atoms: _32  and  _34
REMARK                            x       y       z     vdW  Elec       q    Type
REMARK                         _______ _______ _______ _____ _____    ______ ____
ROOT
ATOM      1  C   UNL     1      27.986  17.864  -1.058  0.00  0.00    +0.400 C 
ATOM      2  N   UNL     1      27.210  17.636  -2.170  0.00  0.00    -0.278 N 
ATOM      3  H   UNL     1      26.228  17.904  -1.846  0.00  0.00    +0.152 HD
ATOM      4  O   UNL     1      27.474  18.444  -0.103  0.00  0.00    -0.226 OA
ENDROOT
BRANCH   2   5
ATOM      5  C   UNL     1      27.131  17.216  -3.567  0.00  0.00    +0.152 C 
BRANCH   5   6
ATOM      6  C   UNL     1      25.966  16.272  -3.927  0.00  0.00    +0.193 C 
ATOM      7  O   UNL     1      26.124  15.931  -5.322  0.00  0.00    -0.219 OA
BRANCH   6   8
ATOM      8  C   UNL     1      25.899  14.909  -3.203  0.00  0.00    +0.212 C 
ATOM      9  O   UNL     1      26.376  15.034  -1.854  0.00  0.00    -0.218 OA
BRANCH   8  10
ATOM     10  C   UNL     1      24.450  14.290  -3.170  0.00  0.00    +0.171 C 
ATOM     11  O   UNL     1      23.429  15.281  -3.244  0.00  0.00    -0.343 OA
ATOM     12  C   UNL     1      22.077  15.039  -2.993  0.00  0.00    +0.220 C 
ATOM     13  C   UNL     1      21.866  14.307  -1.656  0.00  0.00    +0.076 C 
ATOM     14  C   UNL     1      22.756  13.053  -1.671  0.00  0.00    +0.177 C 
ATOM     15  O   UNL     1      22.570  12.316  -0.470  0.00  0.00    -0.221 OA
ATOM     16  C   UNL     1      24.251  13.457  -1.861  0.00  0.00    +0.155 C 
BRANCH  16  17
ATOM     17  N   UNL     1      25.101  12.269  -1.868  0.00  0.00    -0.202 NA
ATOM     18  C   UNL     1      25.854  11.735  -0.874  0.00  0.00    +0.242 C 
ATOM     19  C   UNL     1      26.400  10.342  -1.058  0.00  0.00    +0.096 C 
ATOM     20  O   UNL     1      26.070  12.390   0.144  0.00  0.00    -0.273 OA
ENDBRANCH  16  17
BRANCH  12  21
ATOM     21  C   UNL     1      21.317  14.283  -4.214  0.00  0.00    +0.391 C 
ATOM     22  O   UNL     1      20.165  13.832  -3.680  0.00  0.00    -0.243 OA
ATOM     23  O   UNL     1      21.960  14.645  -5.331  0.00  0.00    -0.243 OA
ENDBRANCH  12  21
ENDBRANCH   8  10
ENDBRANCH   6   8
ENDBRANCH   5   6
ENDBRANCH   2   5
BRANCH   1  24
ATOM     24  O   UNL     1      29.194  17.408  -1.115  0.00  0.00    -0.450 OA
BRANCH  24  25
ATOM     25  C   UNL     1      30.144  16.791  -0.277  0.00  0.00    +0.240 C 
BRANCH  25  26
ATOM     26  C   UNL     1      29.788  15.409   0.303  0.00  0.00    +0.100 C 
BRANCH  26  28
ATOM     27  N   UNL     1      31.904  14.254  -0.264  0.00  0.00    -0.134 NA
ATOM     28  C   UNL     1      31.013  14.682   0.684  0.00  0.00    +0.086 A 
ATOM     29  C   UNL     1      31.476  14.319   1.929  0.00  0.00    +0.134 A 
ATOM     30  N   UNL     1      32.644  13.660   1.673  0.00  0.00    -0.237 N 
ATOM     31  N   UNL     1      32.899  13.631   0.351  0.00  0.00    -0.065 NA
BRANCH  30  32
ATOM     32  C   UNL     1      33.589  13.062   2.598  0.00  0.00    +0.219 C 
BRANCH  32  33
ATOM     33  C   UNL     1      33.995  14.066   3.663  0.00  0.00    +0.237 C 
ATOM     34  O   UNL     1      33.778  13.926   4.865  0.00  0.00    -0.274 OA
ATOM     35  N   UNL     1      34.701  15.154   3.226  0.00  0.00    -0.328 N 
ATOM     36  H   UNL     1      34.993  15.287   2.267  0.00  0.00    +0.145 HD
ATOM     37  H   UNL     1      34.992  15.835   3.916  0.00  0.00    +0.145 HD
ENDBRANCH  32  33
BRANCH  32  38
ATOM     38  C   UNL     1      34.813  12.530   1.853  0.00  0.00    +0.195 C 
BRANCH  38  39
ATOM     39  O   UNL     1      35.933  12.488   2.747  0.00  0.00    -0.380 OA
ATOM     40  C   UNL     1      37.167  12.415   2.044  0.00  0.00    +0.194 C 
ENDBRANCH  38  39
ENDBRANCH  32  38
ENDBRANCH  30  32
ENDBRANCH  26  28
ENDBRANCH  25  26
ENDBRANCH  24  25
ENDBRANCH   1  24
TORSDOF 14
