REMARK VINA RESULT:    -6.082      2.170      3.705
REMARK INTER + INTRA:         -13.295
REMARK INTER:                 -12.220
REMARK INTRA:                  -1.076
REMARK UNBOUND:                -2.235
REMARK  Name = lig_assembled_50.pdb
REMARK  15 active torsions:
REMARK  status: ('A' for Active; 'I' for Inactive)
REMARK    1  A    between atoms: _2  and  _8
REMARK    2  A    between atoms: _4  and  _9
REMARK    3  A    between atoms: _4  and  _10
REMARK    4  A    between atoms: _5  and  _6
REMARK    5  A    between atoms: _5  and  _12
REMARK    6  A    between atoms: _8  and  _9
REMARK    7  A    between atoms: _9  and  _11
REMARK    8  A    between atoms: _12  and  _14
REMARK    9  A    between atoms: _13  and  _18
REMARK   10  A    between atoms: _14  and  _17
REMARK   11  A    between atoms: _22  and  _32
REMARK   12  A    between atoms: _24  and  _25
REMARK   13  A    between atoms: _26  and  _28
REMARK   14  A    between atoms: _28  and  _30
REMARK   15  A    between atoms: _30  and  _32
REMARK                            x       y       z     vdW  Elec       q    Type
REMARK                         _______ _______ _______ _____ _____    ______ ____
ROOT
ATOM      1  C   UNL     1      28.313  17.576  -0.502  0.00  0.00    +0.400 C 
ATOM      2  N   UNL     1      29.565  17.286  -0.012  0.00  0.00    -0.278 N 
ATOM      3  H   UNL     1      29.583  17.787   0.932  0.00  0.00    +0.152 HD
ATOM      4  O   UNL     1      27.509  18.121   0.250  0.00  0.00    -0.226 OA
ENDROOT
BRANCH   2   5
ATOM      5  C   UNL     1      30.844  16.605  -0.192  0.00  0.00    +0.152 C 
BRANCH   5   6
ATOM      6  C   UNL     1      30.810  15.065  -0.118  0.00  0.00    +0.193 C 
ATOM      7  O   UNL     1      31.835  14.584  -1.016  0.00  0.00    -0.219 OA
BRANCH   6   8
ATOM      8  C   UNL     1      31.146  14.405   1.238  0.00  0.00    +0.212 C 
ATOM      9  O   UNL     1      31.292  15.405   2.259  0.00  0.00    -0.218 OA
BRANCH   8  10
ATOM     10  C   UNL     1      30.064  13.359   1.708  0.00  0.00    +0.171 C 
ATOM     11  O   UNL     1      28.743  13.889   1.684  0.00  0.00    -0.343 OA
ATOM     12  C   UNL     1      27.636  13.273   2.271  0.00  0.00    +0.220 C 
ATOM     13  C   UNL     1      27.912  12.877   3.732  0.00  0.00    +0.076 C 
ATOM     14  C   UNL     1      29.203  12.041   3.748  0.00  0.00    +0.177 C 
ATOM     15  O   UNL     1      29.483  11.614   5.074  0.00  0.00    -0.221 OA
ATOM     16  C   UNL     1      30.386  12.868   3.157  0.00  0.00    +0.155 C 
BRANCH  16  17
ATOM     17  N   UNL     1      31.616  12.080   3.177  0.00  0.00    -0.202 NA
ATOM     18  C   UNL     1      32.777  12.300   3.845  0.00  0.00    +0.242 C 
ATOM     19  C   UNL     1      33.780  11.179   3.924  0.00  0.00    +0.096 C 
ATOM     20  O   UNL     1      32.980  13.395   4.365  0.00  0.00    -0.273 OA
ENDBRANCH  16  17
BRANCH  12  21
ATOM     21  C   UNL     1      27.060  12.020   1.412  0.00  0.00    +0.391 C 
ATOM     22  O   UNL     1      28.018  11.753   0.503  0.00  0.00    -0.243 OA
ATOM     23  O   UNL     1      26.019  11.543   2.105  0.00  0.00    -0.243 OA
ENDBRANCH  12  21
ENDBRANCH   8  10
ENDBRANCH   6   8
ENDBRANCH   5   6
ENDBRANCH   2   5
BRANCH   1  24
ATOM     24  O   UNL     1      28.112  17.267  -1.741  0.00  0.00    -0.450 OA
BRANCH  24  25
ATOM     25  C   UNL     1      27.161  17.489  -2.756  0.00  0.00    +0.240 C 
BRANCH  25  26
ATOM     26  C   UNL     1      27.014  16.407  -3.842  0.00  0.00    +0.100 C 
BRANCH  26  28
ATOM     27  N   UNL     1      25.168  15.173  -4.942  0.00  0.00    -0.134 NA
ATOM     28  C   UNL     1      25.634  15.885  -3.866  0.00  0.00    +0.086 A 
ATOM     29  C   UNL     1      24.633  15.977  -2.921  0.00  0.00    +0.133 A 
ATOM     30  N   UNL     1      23.590  15.312  -3.483  0.00  0.00    -0.249 N 
ATOM     31  N   UNL     1      23.919  14.815  -4.691  0.00  0.00    -0.065 NA
BRANCH  30  32
ATOM     32  C   UNL     1      22.261  15.113  -2.952  0.00  0.00    +0.178 C 
BRANCH  32  33
ATOM     33  C   UNL     1      21.270  16.222  -3.320  0.00  0.00    +0.161 C 
BRANCH  33  34
ATOM     34  O   UNL     1      21.833  17.531  -3.196  0.00  0.00    -0.388 OA
ATOM     35  H   UNL     1      22.388  17.708  -3.983  0.00  0.00    +0.210 HD
ENDBRANCH  33  34
BRANCH  33  36
ATOM     36  C   UNL     1      20.651  16.055  -4.714  0.00  0.00    +0.189 C 
BRANCH  36  37
ATOM     37  O   UNL     1      20.407  17.320  -5.330  0.00  0.00    -0.392 OA
ATOM     38  H   UNL     1      20.496  18.012  -4.647  0.00  0.00    +0.210 HD
ENDBRANCH  36  37
ENDBRANCH  33  36
ENDBRANCH  32  33
ENDBRANCH  30  32
ENDBRANCH  26  28
ENDBRANCH  25  26
ENDBRANCH  24  25
ENDBRANCH   1  24
TORSDOF 15
