REMARK VINA RESULT:    -7.314      2.746      4.901
REMARK INTER + INTRA:         -14.303
REMARK INTER:                 -11.912
REMARK INTRA:                  -2.391
REMARK UNBOUND:                -1.431
REMARK  Name = lig_assembled_36.pdb
REMARK  13 active torsions:
REMARK  status: ('A' for Active; 'I' for Inactive)
REMARK    1  A    between atoms: _2  and  _9
REMARK    2  A    between atoms: _6  and  _7
REMARK    3  A    between atoms: _6  and  _16
REMARK    4  A    between atoms: _9  and  _10
REMARK    5  A    between atoms: _13  and  _14
REMARK    6  A    between atoms: _16  and  _18
REMARK    7  A    between atoms: _17  and  _22
REMARK    8  A    between atoms: _18  and  _21
REMARK    9  A    between atoms: _26  and  _36
REMARK   10  A    between atoms: _28  and  _29
REMARK   11  A    between atoms: _30  and  _32
REMARK   12  A    between atoms: _32  and  _34
REMARK   13  A    between atoms: _34  and  _36
REMARK                            x       y       z     vdW  Elec       q    Type
REMARK                         _______ _______ _______ _____ _____    ______ ____
ROOT
ATOM      1  C   UNL     1      28.261  17.581  -0.641  0.00  0.00    +0.400 C 
ATOM      2  N   UNL     1      29.438  17.396   0.046  0.00  0.00    -0.278 N 
ATOM      3  H   UNL     1      29.466  18.228   0.717  0.00  0.00    +0.152 HD
ATOM      4  O   UNL     1      27.490  18.452  -0.245  0.00  0.00    -0.226 OA
ENDROOT
BRANCH   1   5
ATOM      5  O   UNL     1      28.093  16.825  -1.675  0.00  0.00    -0.450 OA
BRANCH   5   6
ATOM      6  C   UNL     1      27.074  16.075  -2.295  0.00  0.00    +0.240 C 
BRANCH   6   7
ATOM      7  C   UNL     1      26.128  16.819  -3.256  0.00  0.00    +0.100 C 
BRANCH   7   9
ATOM      8  N   UNL     1      25.138  15.035  -4.661  0.00  0.00    -0.134 NA
ATOM      9  C   UNL     1      25.005  15.946  -3.646  0.00  0.00    +0.086 A 
ATOM     10  C   UNL     1      23.736  15.852  -3.119  0.00  0.00    +0.134 A 
ATOM     11  N   UNL     1      23.183  14.803  -3.791  0.00  0.00    -0.247 N 
ATOM     12  N   UNL     1      24.006  14.350  -4.754  0.00  0.00    -0.065 NA
BRANCH  11  13
ATOM     13  C   UNL     1      21.898  14.174  -3.560  0.00  0.00    +0.180 C 
BRANCH  13  14
ATOM     14  C   UNL     1      21.881  13.424  -2.248  0.00  0.00    -0.026 A 
ATOM     15  C   UNL     1      22.903  12.519  -1.922  0.00  0.00    +0.007 A 
ATOM     16  C   UNL     1      22.882  11.834  -0.703  0.00  0.00    +0.019 A 
ATOM     17  C   UNL     1      21.837  12.039   0.203  0.00  0.00    +0.052 A 
ATOM     18  C   UNL     1      20.803  12.920  -0.124  0.00  0.00    +0.019 A 
ATOM     19  C   UNL     1      20.823  13.604  -1.343  0.00  0.00    +0.007 A 
BRANCH  17  20
ATOM     20  C   UNL     1      21.828  11.351   1.463  0.00  0.00    +0.099 C 
ATOM     21  N   UNL     1      21.816  10.786   2.476  0.00  0.00    -0.191 NA
ENDBRANCH  17  20
ENDBRANCH  13  14
ENDBRANCH  11  13
ENDBRANCH   7   9
ENDBRANCH   6   7
ENDBRANCH   5   6
ENDBRANCH   1   5
BRANCH   2  22
ATOM     22  C   UNL     1      30.632  16.586   0.274  0.00  0.00    +0.152 C 
BRANCH  22  23
ATOM     23  C   UNL     1      30.503  15.082  -0.044  0.00  0.00    +0.193 C 
ATOM     24  O   UNL     1      31.824  14.513   0.098  0.00  0.00    -0.219 OA
BRANCH  23  25
ATOM     25  C   UNL     1      29.614  14.228   0.886  0.00  0.00    +0.212 C 
ATOM     26  O   UNL     1      28.511  15.006   1.380  0.00  0.00    -0.218 OA
BRANCH  25  27
ATOM     27  C   UNL     1      29.045  12.933   0.190  0.00  0.00    +0.171 C 
ATOM     28  O   UNL     1      28.633  13.169  -1.153  0.00  0.00    -0.343 OA
ATOM     29  C   UNL     1      27.878  12.274  -1.914  0.00  0.00    +0.220 C 
ATOM     30  C   UNL     1      26.624  11.799  -1.158  0.00  0.00    +0.076 C 
ATOM     31  C   UNL     1      27.084  11.260   0.207  0.00  0.00    +0.177 C 
ATOM     32  O   UNL     1      25.965  10.770   0.932  0.00  0.00    -0.221 OA
ATOM     33  C   UNL     1      27.830  12.376   1.002  0.00  0.00    +0.155 C 
BRANCH  33  34
ATOM     34  N   UNL     1      28.262  11.871   2.302  0.00  0.00    -0.202 NA
ATOM     35  C   UNL     1      27.847  12.214   3.548  0.00  0.00    +0.242 C 
ATOM     36  C   UNL     1      28.243  11.331   4.703  0.00  0.00    +0.096 C 
ATOM     37  O   UNL     1      27.166  13.225   3.704  0.00  0.00    -0.273 OA
ENDBRANCH  33  34
BRANCH  29  38
ATOM     38  C   UNL     1      28.740  11.022  -2.486  0.00  0.00    +0.391 C 
ATOM     39  O   UNL     1      28.006  10.530  -3.503  0.00  0.00    -0.243 OA
ATOM     40  O   UNL     1      29.961  11.137  -1.947  0.00  0.00    -0.243 OA
ENDBRANCH  29  38
ENDBRANCH  25  27
ENDBRANCH  23  25
ENDBRANCH  22  23
ENDBRANCH   2  22
TORSDOF 13
