REMARK VINA RESULT:    -6.950      1.913      2.643
REMARK INTER + INTRA:         -13.194
REMARK INTER:                 -11.453
REMARK INTRA:                  -1.740
REMARK UNBOUND:                -1.775
REMARK  Name = lig_assembled_42.pdb
REMARK  11 active torsions:
REMARK  status: ('A' for Active; 'I' for Inactive)
REMARK    1  A    between atoms: _2  and  _8
REMARK    2  A    between atoms: _5  and  _6
REMARK    3  A    between atoms: _5  and  _16
REMARK    4  A    between atoms: _16  and  _18
REMARK    5  A    between atoms: _17  and  _22
REMARK    6  A    between atoms: _18  and  _21
REMARK    7  A    between atoms: _26  and  _36
REMARK    8  A    between atoms: _28  and  _29
REMARK    9  A    between atoms: _30  and  _32
REMARK   10  A    between atoms: _32  and  _34
REMARK   11  A    between atoms: _34  and  _36
REMARK                            x       y       z     vdW  Elec       q    Type
REMARK                         _______ _______ _______ _____ _____    ______ ____
ROOT
ATOM      1  C   UNL     1      28.044  17.158  -0.880  0.00  0.00    +0.400 C 
ATOM      2  N   UNL     1      28.697  16.076  -0.338  0.00  0.00    -0.278 N 
ATOM      3  H   UNL     1      28.927  16.398   0.655  0.00  0.00    +0.152 HD
ATOM      4  O   UNL     1      27.730  18.080  -0.131  0.00  0.00    -0.226 OA
ENDROOT
BRANCH   1   5
ATOM      5  O   UNL     1      27.848  17.112  -2.156  0.00  0.00    -0.450 OA
BRANCH   5   6
ATOM      6  C   UNL     1      26.885  17.511  -3.104  0.00  0.00    +0.240 C 
BRANCH   6   7
ATOM      7  C   UNL     1      26.325  16.429  -4.048  0.00  0.00    +0.100 C 
BRANCH   7   9
ATOM      8  N   UNL     1      26.637  14.104  -3.238  0.00  0.00    -0.134 NA
ATOM      9  C   UNL     1      25.892  15.248  -3.280  0.00  0.00    +0.086 A 
ATOM     10  C   UNL     1      24.758  15.069  -2.525  0.00  0.00    +0.139 A 
ATOM     11  N   UNL     1      24.851  13.790  -2.032  0.00  0.00    -0.220 N 
ATOM     12  N   UNL     1      26.000  13.222  -2.478  0.00  0.00    -0.061 NA
BRANCH  11  13
ATOM     13  C   UNL     1      23.936  13.102  -1.194  0.00  0.00    +0.071 A 
ATOM     14  C   UNL     1      24.413  12.251  -0.185  0.00  0.00    +0.077 A 
ATOM     15  C   UNL     1      23.484  11.605   0.603  0.00  0.00    +0.168 A 
ATOM     16  O   UNL     1      23.778  10.755   1.621  0.00  0.00    -0.453 OA
ATOM     17  C   UNL     1      22.453  10.407   2.071  0.00  0.00    +0.466 C 
ATOM     18  O   UNL     1      21.403  11.046   1.313  0.00  0.00    -0.453 OA
ATOM     19  C   UNL     1      22.133  11.774   0.426  0.00  0.00    +0.166 A 
ATOM     20  C   UNL     1      21.629  12.600  -0.556  0.00  0.00    +0.051 A 
ATOM     21  C   UNL     1      22.544  13.273  -1.377  0.00  0.00    +0.031 A 
ENDBRANCH  11  13
ENDBRANCH   7   9
ENDBRANCH   6   7
ENDBRANCH   5   6
ENDBRANCH   1   5
BRANCH   2  22
ATOM     22  C   UNL     1      29.192  14.712  -0.502  0.00  0.00    +0.152 C 
BRANCH  22  23
ATOM     23  C   UNL     1      30.554  14.400   0.153  0.00  0.00    +0.193 C 
ATOM     24  O   UNL     1      31.507  15.331  -0.407  0.00  0.00    -0.219 OA
BRANCH  23  25
ATOM     25  C   UNL     1      30.675  14.597   1.680  0.00  0.00    +0.212 C 
ATOM     26  O   UNL     1      29.431  14.281   2.327  0.00  0.00    -0.218 OA
BRANCH  25  27
ATOM     27  C   UNL     1      31.817  13.729   2.333  0.00  0.00    +0.171 C 
ATOM     28  O   UNL     1      33.110  14.298   2.151  0.00  0.00    -0.343 OA
ATOM     29  C   UNL     1      34.309  13.630   2.408  0.00  0.00    +0.220 C 
ATOM     30  C   UNL     1      34.349  12.249   1.731  0.00  0.00    +0.076 C 
ATOM     31  C   UNL     1      33.081  11.489   2.153  0.00  0.00    +0.177 C 
ATOM     32  O   UNL     1      33.088  10.187   1.584  0.00  0.00    -0.221 OA
ATOM     33  C   UNL     1      31.809  12.287   1.727  0.00  0.00    +0.155 C 
BRANCH  33  34
ATOM     34  N   UNL     1      30.602  11.565   2.120  0.00  0.00    -0.202 NA
ATOM     35  C   UNL     1      29.700  10.900   1.353  0.00  0.00    +0.242 C 
ATOM     36  C   UNL     1      28.709   9.995   2.038  0.00  0.00    +0.096 C 
ATOM     37  O   UNL     1      29.713  11.049   0.133  0.00  0.00    -0.273 OA
ENDBRANCH  33  34
BRANCH  29  38
ATOM     38  C   UNL     1      34.667  13.529   3.990  0.00  0.00    +0.391 C 
ATOM     39  O   UNL     1      35.606  12.567   4.073  0.00  0.00    -0.243 OA
ATOM     40  O   UNL     1      34.135  14.617   4.559  0.00  0.00    -0.243 OA
ENDBRANCH  29  38
ENDBRANCH  25  27
ENDBRANCH  23  25
ENDBRANCH  22  23
ENDBRANCH   2  22
TORSDOF 11
