REMARK VINA RESULT:    -6.757      1.513      3.262
REMARK INTER + INTRA:         -13.790
REMARK INTER:                 -12.248
REMARK INTRA:                  -1.542
REMARK UNBOUND:                -2.096
REMARK  Name = lig_assembled_88.pdb
REMARK  13 active torsions:
REMARK  status: ('A' for Active; 'I' for Inactive)
REMARK    1  A    between atoms: _2  and  _8
REMARK    2  A    between atoms: _4  and  _14
REMARK    3  A    between atoms: _5  and  _6
REMARK    4  A    between atoms: _5  and  _15
REMARK    5  A    between atoms: _8  and  _9
REMARK    6  A    between atoms: _15  and  _17
REMARK    7  A    between atoms: _16  and  _21
REMARK    8  A    between atoms: _17  and  _20
REMARK    9  A    between atoms: _25  and  _35
REMARK   10  A    between atoms: _27  and  _28
REMARK   11  A    between atoms: _29  and  _31
REMARK   12  A    between atoms: _31  and  _33
REMARK   13  A    between atoms: _33  and  _35
REMARK                            x       y       z     vdW  Elec       q    Type
REMARK                         _______ _______ _______ _____ _____    ______ ____
ROOT
ATOM      1  C   UNL     1      28.878  17.247  -0.193  0.00  0.00    +0.400 C 
ATOM      2  N   UNL     1      29.109  15.967   0.254  0.00  0.00    -0.278 N 
ATOM      3  H   UNL     1      30.160  15.961   0.451  0.00  0.00    +0.152 HD
ATOM      4  O   UNL     1      29.786  18.068  -0.094  0.00  0.00    -0.226 OA
ENDROOT
BRANCH   1   5
ATOM      5  O   UNL     1      27.712  17.457  -0.711  0.00  0.00    -0.450 OA
BRANCH   5   6
ATOM      6  C   UNL     1      27.142  18.056  -1.851  0.00  0.00    +0.240 C 
BRANCH   6   7
ATOM      7  C   UNL     1      27.348  17.349  -3.204  0.00  0.00    +0.100 C 
BRANCH   7   9
ATOM      8  N   UNL     1      26.961  14.951  -2.722  0.00  0.00    -0.134 NA
ATOM      9  C   UNL     1      26.527  16.127  -3.278  0.00  0.00    +0.086 A 
ATOM     10  C   UNL     1      25.301  15.919  -3.870  0.00  0.00    +0.134 A 
ATOM     11  N   UNL     1      25.081  14.582  -3.706  0.00  0.00    -0.247 N 
ATOM     12  N   UNL     1      26.057  14.015  -2.970  0.00  0.00    -0.065 NA
BRANCH  11  13
ATOM     13  C   UNL     1      24.015  13.771  -4.272  0.00  0.00    +0.184 C 
BRANCH  13  14
ATOM     14  C   UNL     1      22.721  13.853  -3.486  0.00  0.00    +0.017 A 
ATOM     15  C   UNL     1      22.543  13.195  -2.253  0.00  0.00    +0.024 A 
ATOM     16  C   UNL     1      21.337  13.294  -1.557  0.00  0.00    +0.019 A 
ATOM     17 BR   UNL     1      21.117  12.355   0.071  0.00  0.00    -0.050 Br
ATOM     18  C   UNL     1      20.291  14.070  -2.047  0.00  0.00    +0.034 A 
ATOM     19  C   UNL     1      20.470  14.765  -3.240  0.00  0.00    +0.061 A 
ATOM     20 BR   UNL     1      19.056  15.851  -3.886  0.00  0.00    -0.046 Br
ATOM     21  C   UNL     1      21.674  14.661  -3.950  0.00  0.00    +0.136 A 
BRANCH  21  22
ATOM     22  O   UNL     1      21.865  15.353  -5.117  0.00  0.00    -0.505 OA
ATOM     23  H   UNL     1      22.086  14.704  -5.811  0.00  0.00    +0.292 HD
ENDBRANCH  21  22
ENDBRANCH  13  14
ENDBRANCH  11  13
ENDBRANCH   7   9
ENDBRANCH   6   7
ENDBRANCH   5   6
ENDBRANCH   1   5
BRANCH   2  24
ATOM     24  C   UNL     1      28.574  14.649   0.585  0.00  0.00    +0.152 C 
BRANCH  24  25
ATOM     25  C   UNL     1      29.034  14.047   1.929  0.00  0.00    +0.193 C 
ATOM     26  O   UNL     1      27.849  13.549   2.588  0.00  0.00    -0.219 OA
BRANCH  25  27
ATOM     27  C   UNL     1      29.987  12.833   1.879  0.00  0.00    +0.212 C 
ATOM     28  O   UNL     1      29.340  11.712   1.254  0.00  0.00    -0.218 OA
BRANCH  27  29
ATOM     29  C   UNL     1      31.334  13.127   1.116  0.00  0.00    +0.171 C 
ATOM     30  O   UNL     1      31.167  13.158  -0.298  0.00  0.00    -0.343 OA
ATOM     31  C   UNL     1      32.220  13.155  -1.216  0.00  0.00    +0.220 C 
ATOM     32  C   UNL     1      33.225  12.026  -0.928  0.00  0.00    +0.076 C 
ATOM     33  C   UNL     1      33.650  12.150   0.544  0.00  0.00    +0.177 C 
ATOM     34  O   UNL     1      34.612  11.151   0.853  0.00  0.00    -0.221 OA
ATOM     35  C   UNL     1      32.403  12.043   1.475  0.00  0.00    +0.155 C 
BRANCH  35  36
ATOM     36  N   UNL     1      32.804  12.153   2.875  0.00  0.00    -0.202 NA
ATOM     37  C   UNL     1      33.396  13.185   3.530  0.00  0.00    +0.242 C 
ATOM     38  C   UNL     1      33.432  13.150   5.036  0.00  0.00    +0.096 C 
ATOM     39  O   UNL     1      33.881  14.114   2.887  0.00  0.00    -0.273 OA
ENDBRANCH  35  36
BRANCH  31  40
ATOM     40  C   UNL     1      32.962  14.594  -1.355  0.00  0.00    +0.391 C 
ATOM     41  O   UNL     1      34.005  14.369  -2.178  0.00  0.00    -0.243 OA
ATOM     42  O   UNL     1      32.108  15.499  -0.861  0.00  0.00    -0.243 OA
ENDBRANCH  31  40
ENDBRANCH  27  29
ENDBRANCH  25  27
ENDBRANCH  24  25
ENDBRANCH   2  24
TORSDOF 13
