REMARK VINA RESULT:    -6.503      1.791      3.692
REMARK INTER + INTRA:         -12.374
REMARK INTER:                 -10.805
REMARK INTRA:                  -1.570
REMARK UNBOUND:                -1.689
REMARK  Name = lig_assembled_49.pdb
REMARK  11 active torsions:
REMARK  status: ('A' for Active; 'I' for Inactive)
REMARK    1  A    between atoms: _2  and  _8
REMARK    2  A    between atoms: _5  and  _6
REMARK    3  A    between atoms: _5  and  _12
REMARK    4  A    between atoms: _12  and  _14
REMARK    5  A    between atoms: _13  and  _18
REMARK    6  A    between atoms: _14  and  _17
REMARK    7  A    between atoms: _22  and  _32
REMARK    8  A    between atoms: _24  and  _25
REMARK    9  A    between atoms: _26  and  _28
REMARK   10  A    between atoms: _28  and  _30
REMARK   11  A    between atoms: _30  and  _32
REMARK                            x       y       z     vdW  Elec       q    Type
REMARK                         _______ _______ _______ _____ _____    ______ ____
ROOT
ATOM      1  C   UNL     1      28.156  14.432   0.406  0.00  0.00    +0.152 C 
ENDROOT
BRANCH   1   3
ATOM      2  C   UNL     1      28.417  16.814  -0.898  0.00  0.00    +0.400 C 
ATOM      3  N   UNL     1      28.648  15.700  -0.127  0.00  0.00    -0.278 N 
ATOM      4  H   UNL     1      29.634  15.860   0.251  0.00  0.00    +0.152 HD
ATOM      5  O   UNL     1      29.224  17.739  -0.837  0.00  0.00    -0.226 OA
BRANCH   2   6
ATOM      6  O   UNL     1      27.367  16.767  -1.651  0.00  0.00    -0.450 OA
BRANCH   6   7
ATOM      7  C   UNL     1      26.967  16.236  -2.893  0.00  0.00    +0.240 C 
BRANCH   7   8
ATOM      8  C   UNL     1      25.456  16.053  -3.134  0.00  0.00    +0.100 C 
BRANCH   8  10
ATOM      9  N   UNL     1      25.806  13.655  -2.641  0.00  0.00    -0.134 NA
ATOM     10  C   UNL     1      25.001  14.762  -2.587  0.00  0.00    +0.086 A 
ATOM     11  C   UNL     1      23.811  14.424  -1.983  0.00  0.00    +0.134 A 
ATOM     12  N   UNL     1      23.951  13.097  -1.699  0.00  0.00    -0.248 N 
ATOM     13  N   UNL     1      25.152  12.640  -2.094  0.00  0.00    -0.065 NA
BRANCH  12  14
ATOM     14  C   UNL     1      22.984  12.220  -1.084  0.00  0.00    +0.109 C 
ATOM     15  C   UNL     1      23.372  11.758   0.322  0.00  0.00    +0.027 C 
ATOM     16  C   UNL     1      22.055  11.255   0.888  0.00  0.00    +0.002 C 
ATOM     17  C   UNL     1      21.024  12.256   0.384  0.00  0.00    +0.002 C 
ATOM     18  C   UNL     1      21.586  12.832  -0.918  0.00  0.00    +0.027 C 
ENDBRANCH  12  14
ENDBRANCH   8  10
ENDBRANCH   7   8
ENDBRANCH   6   7
ENDBRANCH   2   6
ENDBRANCH   1   3
BRANCH   1  19
ATOM     19  C   UNL     1      28.608  14.075   1.837  0.00  0.00    +0.193 C 
ATOM     20  O   UNL     1      27.476  13.458   2.488  0.00  0.00    -0.219 OA
BRANCH  19  21
ATOM     21  C   UNL     1      29.750  13.046   1.990  0.00  0.00    +0.212 C 
ATOM     22  O   UNL     1      29.365  11.782   1.425  0.00  0.00    -0.218 OA
BRANCH  21  23
ATOM     23  C   UNL     1      31.100  13.508   1.321  0.00  0.00    +0.171 C 
ATOM     24  O   UNL     1      31.088  13.362  -0.095  0.00  0.00    -0.343 OA
ATOM     25  C   UNL     1      32.220  13.463  -0.907  0.00  0.00    +0.220 C 
ATOM     26  C   UNL     1      33.370  12.577  -0.395  0.00  0.00    +0.076 C 
ATOM     27  C   UNL     1      33.601  12.929   1.083  0.00  0.00    +0.177 C 
ATOM     28  O   UNL     1      34.684  12.166   1.596  0.00  0.00    -0.221 OA
ATOM     29  C   UNL     1      32.297  12.686   1.904  0.00  0.00    +0.155 C 
BRANCH  29  30
ATOM     30  N   UNL     1      32.514  13.013   3.311  0.00  0.00    -0.202 NA
ATOM     31  C   UNL     1      32.596  12.193   4.390  0.00  0.00    +0.242 C 
ATOM     32  C   UNL     1      33.120  12.761   5.683  0.00  0.00    +0.096 C 
ATOM     33  O   UNL     1      32.246  11.018   4.288  0.00  0.00    -0.273 OA
ENDBRANCH  29  30
BRANCH  25  34
ATOM     34  C   UNL     1      32.708  14.993  -1.152  0.00  0.00    +0.391 C 
ATOM     35  O   UNL     1      33.652  14.908  -2.108  0.00  0.00    -0.243 OA
ATOM     36  O   UNL     1      31.800  15.771  -0.549  0.00  0.00    -0.243 OA
ENDBRANCH  25  34
ENDBRANCH  21  23
ENDBRANCH  19  21
ENDBRANCH   1  19
TORSDOF 11
