REMARK VINA RESULT:    -6.684      2.411      4.739
REMARK INTER + INTRA:         -12.757
REMARK INTER:                 -10.611
REMARK INTRA:                  -2.145
REMARK UNBOUND:                -1.188
REMARK  Name = lig_assembled_35.pdb
REMARK  14 active torsions:
REMARK  status: ('A' for Active; 'I' for Inactive)
REMARK    1  A    between atoms: _2  and  _8
REMARK    2  A    between atoms: _4  and  _8
REMARK    3  A    between atoms: _4  and  _10
REMARK    4  A    between atoms: _5  and  _6
REMARK    5  A    between atoms: _5  and  _12
REMARK    6  A    between atoms: _8  and  _9
REMARK    7  A    between atoms: _12  and  _14
REMARK    8  A    between atoms: _13  and  _18
REMARK    9  A    between atoms: _14  and  _17
REMARK   10  A    between atoms: _22  and  _32
REMARK   11  A    between atoms: _24  and  _25
REMARK   12  A    between atoms: _26  and  _28
REMARK   13  A    between atoms: _28  and  _30
REMARK   14  A    between atoms: _30  and  _32
REMARK                            x       y       z     vdW  Elec       q    Type
REMARK                         _______ _______ _______ _____ _____    ______ ____
ROOT
ATOM      1  C   UNL     1      27.935  12.529   0.458  0.00  0.00    +0.152 C 
ENDROOT
BRANCH   1   3
ATOM      2  C   UNL     1      25.614  11.651   1.591  0.00  0.00    +0.400 C 
ATOM      3  N   UNL     1      26.811  12.286   1.357  0.00  0.00    -0.278 N 
ATOM      4  H   UNL     1      26.980  12.835   2.259  0.00  0.00    +0.152 HD
ATOM      5  O   UNL     1      25.148  11.692   2.727  0.00  0.00    -0.226 OA
BRANCH   2   6
ATOM      6  O   UNL     1      25.069  11.088   0.563  0.00  0.00    -0.450 OA
BRANCH   6   7
ATOM      7  C   UNL     1      24.485  11.447  -0.668  0.00  0.00    +0.240 C 
BRANCH   7   8
ATOM      8  C   UNL     1      23.613  12.716  -0.697  0.00  0.00    +0.100 C 
BRANCH   8  10
ATOM      9  N   UNL     1      23.490  14.807  -2.016  0.00  0.00    -0.134 NA
ATOM     10  C   UNL     1      24.219  13.733  -1.577  0.00  0.00    +0.086 A 
ATOM     11  C   UNL     1      25.493  13.816  -2.093  0.00  0.00    +0.134 A 
ATOM     12  N   UNL     1      25.481  14.967  -2.823  0.00  0.00    -0.238 N 
ATOM     13  N   UNL     1      24.268  15.547  -2.791  0.00  0.00    -0.065 NA
BRANCH  12  14
ATOM     14  C   UNL     1      26.538  15.581  -3.604  0.00  0.00    +0.214 C 
ATOM     15  C   UNL     1      26.140  15.688  -5.073  0.00  0.00    +0.045 C 
BRANCH  14  16
ATOM     16  C   UNL     1      26.950  16.919  -3.024  0.00  0.00    +0.329 C 
ATOM     17  O   UNL     1      26.974  17.176  -1.828  0.00  0.00    -0.249 OA
BRANCH  16  18
ATOM     18  O   UNL     1      27.275  17.854  -3.951  0.00  0.00    -0.479 OA
ATOM     19  H   UNL     1      27.377  18.768  -3.616  0.00  0.00    +0.295 HD
ENDBRANCH  16  18
ENDBRANCH  14  16
ENDBRANCH  12  14
ENDBRANCH   8  10
ENDBRANCH   7   8
ENDBRANCH   6   7
ENDBRANCH   2   6
ENDBRANCH   1   3
BRANCH   1  20
ATOM     20  C   UNL     1      28.635  13.897   0.599  0.00  0.00    +0.193 C 
ATOM     21  O   UNL     1      29.647  13.742   1.618  0.00  0.00    -0.219 OA
BRANCH  20  22
ATOM     22  C   UNL     1      29.403  14.437  -0.628  0.00  0.00    +0.212 C 
ATOM     23  O   UNL     1      29.504  15.869  -0.566  0.00  0.00    -0.218 OA
BRANCH  22  24
ATOM     24  C   UNL     1      30.853  13.836  -0.771  0.00  0.00    +0.171 C 
ATOM     25  O   UNL     1      31.869  14.830  -0.688  0.00  0.00    -0.343 OA
ATOM     26  C   UNL     1      33.209  14.617  -1.021  0.00  0.00    +0.220 C 
ATOM     27  C   UNL     1      33.356  13.969  -2.409  0.00  0.00    +0.076 C 
ATOM     28  C   UNL     1      32.476  12.708  -2.426  0.00  0.00    +0.177 C 
ATOM     29  O   UNL     1      32.607  12.047  -3.677  0.00  0.00    -0.221 OA
ATOM     30  C   UNL     1      30.990  13.085  -2.136  0.00  0.00    +0.155 C 
BRANCH  30  31
ATOM     31  N   UNL     1      30.150  11.890  -2.159  0.00  0.00    -0.202 NA
ATOM     32  C   UNL     1      29.068  11.605  -2.927  0.00  0.00    +0.242 C 
ATOM     33  C   UNL     1      28.566  10.184  -2.956  0.00  0.00    +0.096 C 
ATOM     34  O   UNL     1      28.529  12.500  -3.574  0.00  0.00    -0.273 OA
ENDBRANCH  30  31
BRANCH  26  35
ATOM     35  C   UNL     1      34.034  13.796   0.112  0.00  0.00    +0.391 C 
ATOM     36  O   UNL     1      35.248  13.578  -0.432  0.00  0.00    -0.243 OA
ATOM     37  O   UNL     1      33.325  13.908   1.241  0.00  0.00    -0.243 OA
ENDBRANCH  26  35
ENDBRANCH  22  24
ENDBRANCH  20  22
ENDBRANCH   1  20
TORSDOF 13
