REMARK VINA RESULT:    -6.680      1.791      2.533
REMARK INTER + INTRA:         -12.360
REMARK INTER:                 -10.630
REMARK INTRA:                  -1.730
REMARK UNBOUND:                -1.385
REMARK  Name = lig_assembled_56.pdb
REMARK  11 active torsions:
REMARK  status: ('A' for Active; 'I' for Inactive)
REMARK    1  A    between atoms: _2  and  _9
REMARK    2  A    between atoms: _6  and  _7
REMARK    3  A    between atoms: _6  and  _13
REMARK    4  A    between atoms: _13  and  _15
REMARK    5  A    between atoms: _14  and  _19
REMARK    6  A    between atoms: _15  and  _18
REMARK    7  A    between atoms: _23  and  _33
REMARK    8  A    between atoms: _25  and  _26
REMARK    9  A    between atoms: _27  and  _29
REMARK   10  A    between atoms: _29  and  _31
REMARK   11  A    between atoms: _31  and  _33
REMARK                            x       y       z     vdW  Elec       q    Type
REMARK                         _______ _______ _______ _____ _____    ______ ____
ROOT
ATOM      1  C   UNL     1      27.575  14.115  -1.327  0.00  0.00    +0.152 C 
ENDROOT
BRANCH   1   3
ATOM      2  C   UNL     1      26.907  16.523  -2.425  0.00  0.00    +0.400 C 
ATOM      3  N   UNL     1      27.479  15.535  -1.658  0.00  0.00    -0.278 N 
ATOM      4  H   UNL     1      28.141  16.073  -1.015  0.00  0.00    +0.152 HD
ATOM      5  O   UNL     1      27.111  17.692  -2.109  0.00  0.00    -0.226 OA
BRANCH   2   6
ATOM      6  O   UNL     1      26.221  16.115  -3.442  0.00  0.00    -0.450 OA
BRANCH   6   7
ATOM      7  C   UNL     1      25.066  15.357  -3.717  0.00  0.00    +0.240 C 
BRANCH   7   8
ATOM      8  C   UNL     1      23.744  15.817  -3.073  0.00  0.00    +0.100 C 
BRANCH   8  10
ATOM      9  N   UNL     1      21.847  14.519  -2.159  0.00  0.00    -0.134 NA
ATOM     10  C   UNL     1      23.191  14.748  -2.220  0.00  0.00    +0.086 A 
ATOM     11  C   UNL     1      23.838  13.850  -1.402  0.00  0.00    +0.139 A 
ATOM     12  N   UNL     1      22.837  13.073  -0.867  0.00  0.00    -0.220 N 
ATOM     13  N   UNL     1      21.639  13.503  -1.332  0.00  0.00    -0.061 NA
BRANCH  12  14
ATOM     14  C   UNL     1      22.945  11.974   0.021  0.00  0.00    +0.070 A 
ATOM     15  C   UNL     1      21.856  11.563   0.794  0.00  0.00    +0.047 A 
ATOM     16  C   UNL     1      22.037  10.490   1.653  0.00  0.00    +0.113 A 
ATOM     17  N   UNL     1      23.200   9.821   1.787  0.00  0.00    -0.263 NA
ATOM     18  C   UNL     1      24.235  10.237   1.027  0.00  0.00    +0.113 A 
ATOM     19  C   UNL     1      24.162  11.295   0.139  0.00  0.00    +0.047 A 
ENDBRANCH  12  14
ENDBRANCH   8  10
ENDBRANCH   7   8
ENDBRANCH   6   7
ENDBRANCH   2   6
ENDBRANCH   1   3
BRANCH   1  20
ATOM     20  C   UNL     1      28.584  13.742  -0.222  0.00  0.00    +0.193 C 
ATOM     21  O   UNL     1      28.507  12.309  -0.056  0.00  0.00    -0.219 OA
BRANCH  20  22
ATOM     22  C   UNL     1      30.079  14.019  -0.495  0.00  0.00    +0.212 C 
ATOM     23  O   UNL     1      30.317  15.432  -0.602  0.00  0.00    -0.218 OA
BRANCH  22  24
ATOM     24  C   UNL     1      31.036  13.429   0.610  0.00  0.00    +0.171 C 
ATOM     25  O   UNL     1      30.739  13.922   1.912  0.00  0.00    -0.343 OA
ATOM     26  C   UNL     1      31.567  13.759   3.024  0.00  0.00    +0.220 C 
ATOM     27  C   UNL     1      33.015  14.186   2.724  0.00  0.00    +0.076 C 
ATOM     28  C   UNL     1      33.468  13.430   1.464  0.00  0.00    +0.177 C 
ATOM     29  O   UNL     1      34.817  13.759   1.164  0.00  0.00    -0.221 OA
ATOM     30  C   UNL     1      32.524  13.766   0.268  0.00  0.00    +0.155 C 
BRANCH  30  31
ATOM     31  N   UNL     1      32.955  13.056  -0.934  0.00  0.00    -0.202 NA
ATOM     32  C   UNL     1      33.460  13.543  -2.096  0.00  0.00    +0.242 C 
ATOM     33  C   UNL     1      34.099  12.577  -3.059  0.00  0.00    +0.096 C 
ATOM     34  O   UNL     1      33.387  14.748  -2.332  0.00  0.00    -0.273 OA
ENDBRANCH  30  31
BRANCH  26  35
ATOM     35  C   UNL     1      31.505  12.268   3.665  0.00  0.00    +0.391 C 
ATOM     36  O   UNL     1      32.612  12.170   4.426  0.00  0.00    -0.243 OA
ATOM     37  O   UNL     1      30.261  11.824   3.448  0.00  0.00    -0.243 OA
ENDBRANCH  26  35
ENDBRANCH  22  24
ENDBRANCH  20  22
ENDBRANCH   1  20
TORSDOF 11
