REMARK VINA RESULT:    -7.064      5.435     11.119
REMARK INTER + INTRA:         -15.191
REMARK INTER:                 -12.883
REMARK INTRA:                  -2.308
REMARK UNBOUND:                -2.551
REMARK  Name = lig_assembled_64.pdb
REMARK  14 active torsions:
REMARK  status: ('A' for Active; 'I' for Inactive)
REMARK    1  A    between atoms: _2  and  _9
REMARK    2  A    between atoms: _6  and  _7
REMARK    3  A    between atoms: _6  and  _22
REMARK    4  A    between atoms: _11  and  _12
REMARK    5  A    between atoms: _12  and  _20
REMARK    6  A    between atoms: _13  and  _14
REMARK    7  A    between atoms: _22  and  _24
REMARK    8  A    between atoms: _23  and  _28
REMARK    9  A    between atoms: _24  and  _27
REMARK   10  A    between atoms: _32  and  _42
REMARK   11  A    between atoms: _34  and  _35
REMARK   12  A    between atoms: _36  and  _38
REMARK   13  A    between atoms: _38  and  _40
REMARK   14  A    between atoms: _40  and  _42
REMARK                            x       y       z     vdW  Elec       q    Type
REMARK                         _______ _______ _______ _____ _____    ______ ____
ROOT
ATOM      1  O   UNL     1      32.301  12.545   2.487  0.00  0.00    -0.450 OA
ENDROOT
BRANCH   1   2
ATOM      2  C   UNL     1      31.314  13.169   3.041  0.00  0.00    +0.400 C 
ATOM      3  N   UNL     1      30.958  14.360   2.453  0.00  0.00    -0.278 N 
ATOM      4  H   UNL     1      30.029  14.600   2.924  0.00  0.00    +0.152 HD
ATOM      5  O   UNL     1      30.662  12.783   4.008  0.00  0.00    -0.226 OA
BRANCH   3   6
ATOM      6  C   UNL     1      31.278  15.425   1.506  0.00  0.00    +0.152 C 
BRANCH   6   7
ATOM      7  C   UNL     1      30.226  15.703   0.414  0.00  0.00    +0.193 C 
ATOM      8  O   UNL     1      30.870  16.526  -0.584  0.00  0.00    -0.219 OA
BRANCH   7   9
ATOM      9  C   UNL     1      29.680  14.494  -0.378  0.00  0.00    +0.212 C 
ATOM     10  O   UNL     1      30.685  13.473  -0.490  0.00  0.00    -0.218 OA
BRANCH   9  11
ATOM     11  C   UNL     1      28.387  13.860   0.264  0.00  0.00    +0.171 C 
ATOM     12  O   UNL     1      28.678  12.731   1.080  0.00  0.00    -0.343 OA
ATOM     13  C   UNL     1      27.717  11.842   1.567  0.00  0.00    +0.220 C 
ATOM     14  C   UNL     1      26.790  11.335   0.448  0.00  0.00    +0.076 C 
ATOM     15  C   UNL     1      26.224  12.567  -0.278  0.00  0.00    +0.177 C 
ATOM     16  O   UNL     1      25.327  12.154  -1.299  0.00  0.00    -0.221 OA
ATOM     17  C   UNL     1      27.387  13.430  -0.859  0.00  0.00    +0.155 C 
BRANCH  17  18
ATOM     18  N   UNL     1      26.853  14.597  -1.555  0.00  0.00    -0.202 NA
ATOM     19  C   UNL     1      26.634  14.793  -2.880  0.00  0.00    +0.242 C 
ATOM     20  C   UNL     1      25.801  15.975  -3.301  0.00  0.00    +0.096 C 
ATOM     21  O   UNL     1      27.114  14.009  -3.697  0.00  0.00    -0.273 OA
ENDBRANCH  17  18
BRANCH  13  22
ATOM     22  C   UNL     1      26.870  12.428   2.823  0.00  0.00    +0.391 C 
ATOM     23  O   UNL     1      27.457  13.605   3.119  0.00  0.00    -0.243 OA
ATOM     24  O   UNL     1      25.754  11.692   2.893  0.00  0.00    -0.243 OA
ENDBRANCH  13  22
ENDBRANCH   9  11
ENDBRANCH   7   9
ENDBRANCH   6   7
ENDBRANCH   3   6
ENDBRANCH   1   2
BRANCH   1  25
ATOM     25  C   UNL     1      33.658  12.258   2.736  0.00  0.00    +0.240 C 
BRANCH  25  26
ATOM     26  C   UNL     1      34.371  13.083   3.824  0.00  0.00    +0.100 C 
BRANCH  26  28
ATOM     27  N   UNL     1      35.024  11.392   5.517  0.00  0.00    -0.134 NA
ATOM     28  C   UNL     1      34.228  12.435   5.142  0.00  0.00    +0.086 A 
ATOM     29  C   UNL     1      33.351  12.720   6.161  0.00  0.00    +0.139 A 
ATOM     30  N   UNL     1      33.646  11.810   7.149  0.00  0.00    -0.220 N 
ATOM     31  N   UNL     1      34.666  11.018   6.740  0.00  0.00    -0.061 NA
BRANCH  30  32
ATOM     32  C   UNL     1      33.036  11.659   8.418  0.00  0.00    +0.071 A 
ATOM     33  C   UNL     1      31.696  11.987   8.595  0.00  0.00    +0.063 A 
ATOM     34  CA  UNL     1      31.160  11.818   9.856  0.00  0.00    +0.150 A 
ATOM     35  N   UNL     1      31.850  11.360  10.941  0.00  0.00    -0.240 NA
ATOM     36  C   UNL     1      33.164  11.054  10.761  0.00  0.00    +0.074 A 
ATOM     37  C   UNL     1      33.776  11.183   9.510  0.00  0.00    +0.056 A 
BRANCH  36  38
ATOM     38  C   UNL     1      33.888  10.609  11.976  0.00  0.00    +0.000 A 
ATOM     39  C   UNL     1      33.379  10.824  13.272  0.00  0.00    +0.010 A 
ATOM     40  C   UNL     1      34.054  10.368  14.410  0.00  0.00    +0.001 A 
ATOM     41  C   UNL     1      35.258   9.682  14.280  0.00  0.00    +0.000 A 
ATOM     42  C   UNL     1      35.789   9.461  13.016  0.00  0.00    +0.001 A 
ATOM     43  C   UNL     1      35.113   9.921  11.879  0.00  0.00    +0.010 A 
ENDBRANCH  36  38
BRANCH  34  44
ATOM     44  C   UNL     1      29.727  12.157  10.094  0.00  0.00    +0.355 C 
ATOM     45  OXT UNL     1      29.174  12.097  11.178  0.00  0.00    -0.243 OA
BRANCH  44  46
ATOM     46  O   UNL     1      29.128  12.535   8.941  0.00  0.00    -0.476 OA
ATOM     47  H   UNL     1      28.156  12.588   9.089  0.00  0.00    +0.295 HD
ENDBRANCH  44  46
ENDBRANCH  34  44
ENDBRANCH  30  32
ENDBRANCH  26  28
ENDBRANCH  25  26
ENDBRANCH   1  25
TORSDOF 14
