REMARK VINA RESULT:    -6.670      3.596      8.701
REMARK INTER + INTRA:         -12.809
REMARK INTER:                 -11.207
REMARK INTRA:                  -1.602
REMARK UNBOUND:                -1.850
REMARK  Name = lig_assembled_2.pdb
REMARK  11 active torsions:
REMARK  status: ('A' for Active; 'I' for Inactive)
REMARK    1  A    between atoms: _2  and  _8
REMARK    2  A    between atoms: _5  and  _6
REMARK    3  A    between atoms: _5  and  _13
REMARK    4  A    between atoms: _13  and  _15
REMARK    5  A    between atoms: _14  and  _19
REMARK    6  A    between atoms: _15  and  _18
REMARK    7  A    between atoms: _23  and  _33
REMARK    8  A    between atoms: _25  and  _26
REMARK    9  A    between atoms: _27  and  _29
REMARK   10  A    between atoms: _29  and  _31
REMARK   11  A    between atoms: _31  and  _33
REMARK                            x       y       z     vdW  Elec       q    Type
REMARK                         _______ _______ _______ _____ _____    ______ ____
ROOT
ATOM      1  C   UNL     1      28.041  17.533  -0.823  0.00  0.00    +0.400 C 
ATOM      2  N   UNL     1      27.232  16.665  -1.519  0.00  0.00    -0.278 N 
ATOM      3  H   UNL     1      26.248  16.936  -1.201  0.00  0.00    +0.152 HD
ATOM      4  O   UNL     1      27.509  18.454  -0.208  0.00  0.00    -0.226 OA
ENDROOT
BRANCH   1   5
ATOM      5  O   UNL     1      29.306  17.270  -0.860  0.00  0.00    -0.450 OA
BRANCH   5   6
ATOM      6  C   UNL     1      30.393  17.123   0.024  0.00  0.00    +0.240 C 
BRANCH   6   7
ATOM      7  C   UNL     1      31.182  15.801  -0.034  0.00  0.00    +0.100 C 
BRANCH   7   9
ATOM      8  N   UNL     1      29.497  14.046   0.419  0.00  0.00    -0.134 NA
ATOM      9  C   UNL     1      30.557  14.794   0.844  0.00  0.00    +0.086 A 
ATOM     10  C   UNL     1      30.878  14.427   2.131  0.00  0.00    +0.139 A 
ATOM     11  N   UNL     1      29.995  13.419   2.444  0.00  0.00    -0.220 N 
ATOM     12  N   UNL     1      29.157  13.219   1.397  0.00  0.00    -0.061 NA
BRANCH  11  13
ATOM     13  C   UNL     1      29.921  12.639   3.628  0.00  0.00    +0.067 A 
ATOM     14  C   UNL     1      28.723  12.012   4.003  0.00  0.00    +0.029 A 
ATOM     15  C   UNL     1      28.661  11.279   5.194  0.00  0.00    +0.022 A 
ATOM     16  C   UNL     1      29.787  11.169   6.006  0.00  0.00    +0.041 A 
ATOM     17 CL   UNL     1      29.695  10.285   7.478  0.00  0.00    -0.084 Cl
ATOM     18  C   UNL     1      30.985  11.776   5.635  0.00  0.00    +0.022 A 
ATOM     19  C   UNL     1      31.055  12.510   4.447  0.00  0.00    +0.029 A 
ENDBRANCH  11  13
ENDBRANCH   7   9
ENDBRANCH   6   7
ENDBRANCH   5   6
ENDBRANCH   1   5
BRANCH   2  20
ATOM     20  C   UNL     1      27.117  15.576  -2.484  0.00  0.00    +0.152 C 
BRANCH  20  21
ATOM     21  C   UNL     1      25.943  15.673  -3.481  0.00  0.00    +0.193 C 
ATOM     22  O   UNL     1      26.510  16.057  -4.753  0.00  0.00    -0.219 OA
BRANCH  21  23
ATOM     23  C   UNL     1      25.154  14.380  -3.785  0.00  0.00    +0.212 C 
ATOM     24  O   UNL     1      26.004  13.410  -4.417  0.00  0.00    -0.218 OA
BRANCH  23  25
ATOM     25  C   UNL     1      24.510  13.726  -2.503  0.00  0.00    +0.171 C 
ATOM     26  O   UNL     1      25.115  12.484  -2.160  0.00  0.00    -0.343 OA
ATOM     27  C   UNL     1      24.591  11.583  -1.230  0.00  0.00    +0.220 C 
ATOM     28  C   UNL     1      23.109  11.276  -1.505  0.00  0.00    +0.076 C 
ATOM     29  C   UNL     1      22.367  12.620  -1.593  0.00  0.00    +0.177 C 
ATOM     30  O   UNL     1      20.981  12.392  -1.807  0.00  0.00    -0.221 OA
ATOM     31  C   UNL     1      22.979  13.499  -2.727  0.00  0.00    +0.155 C 
BRANCH  31  32
ATOM     32  N   UNL     1      22.273  14.774  -2.819  0.00  0.00    -0.202 NA
ATOM     33  C   UNL     1      21.644  15.343  -3.878  0.00  0.00    +0.242 C 
ATOM     34  C   UNL     1      20.743  16.524  -3.625  0.00  0.00    +0.096 C 
ATOM     35  O   UNL     1      21.820  14.888  -5.006  0.00  0.00    -0.273 OA
ENDBRANCH  31  32
BRANCH  27  36
ATOM     36  C   UNL     1      24.832  12.032   0.313  0.00  0.00    +0.391 C 
ATOM     37  O   UNL     1      23.896  11.367   1.018  0.00  0.00    -0.243 OA
ATOM     38  O   UNL     1      26.026  12.635   0.341  0.00  0.00    -0.243 OA
ENDBRANCH  27  36
ENDBRANCH  23  25
ENDBRANCH  21  23
ENDBRANCH  20  21
ENDBRANCH   2  20
TORSDOF 11
