REMARK VINA RESULT:    -6.042      1.477      1.741
REMARK INTER + INTRA:         -12.939
REMARK INTER:                 -11.552
REMARK INTRA:                  -1.388
REMARK UNBOUND:                -1.953
REMARK  Name = lig_assembled_13.pdb
REMARK  15 active torsions:
REMARK  status: ('A' for Active; 'I' for Inactive)
REMARK    1  A    between atoms: _2  and  _8
REMARK    2  A    between atoms: _4  and  _10
REMARK    3  A    between atoms: _5  and  _6
REMARK    4  A    between atoms: _5  and  _13
REMARK    5  A    between atoms: _8  and  _9
REMARK    6  A    between atoms: _9  and  _11
REMARK    7  A    between atoms: _10  and  _11
REMARK    8  A    between atoms: _13  and  _15
REMARK    9  A    between atoms: _14  and  _19
REMARK   10  A    between atoms: _15  and  _18
REMARK   11  A    between atoms: _23  and  _33
REMARK   12  A    between atoms: _25  and  _26
REMARK   13  A    between atoms: _27  and  _29
REMARK   14  A    between atoms: _29  and  _31
REMARK   15  A    between atoms: _31  and  _33
REMARK                            x       y       z     vdW  Elec       q    Type
REMARK                         _______ _______ _______ _____ _____    ______ ____
ROOT
ATOM      1  C   UNL     1      28.846  14.827   0.007  0.00  0.00    +0.152 C 
ENDROOT
BRANCH   1   3
ATOM      2  C   UNL     1      27.945  17.315  -0.659  0.00  0.00    +0.400 C 
ATOM      3  N   UNL     1      28.483  16.242   0.011  0.00  0.00    -0.278 N 
ATOM      4  H   UNL     1      28.732  16.647   0.968  0.00  0.00    +0.152 HD
ATOM      5  O   UNL     1      27.714  18.339  -0.021  0.00  0.00    -0.226 OA
BRANCH   2   6
ATOM      6  O   UNL     1      27.760  17.148  -1.927  0.00  0.00    -0.450 OA
BRANCH   6   7
ATOM      7  C   UNL     1      26.754  16.712  -2.812  0.00  0.00    +0.240 C 
BRANCH   7   8
ATOM      8  C   UNL     1      26.594  15.193  -3.014  0.00  0.00    +0.100 C 
BRANCH   8  10
ATOM      9  N   UNL     1      25.280  14.122  -4.817  0.00  0.00    -0.134 NA
ATOM     10  C   UNL     1      25.319  14.897  -3.690  0.00  0.00    +0.086 A 
ATOM     11  C   UNL     1      24.043  15.299  -3.376  0.00  0.00    +0.134 A 
ATOM     12  N   UNL     1      23.280  14.791  -4.387  0.00  0.00    -0.241 N 
ATOM     13  N   UNL     1      24.019  14.045  -5.224  0.00  0.00    -0.065 NA
BRANCH  12  14
ATOM     14  C   UNL     1      21.849  14.885  -4.566  0.00  0.00    +0.265 C 
BRANCH  14  15
ATOM     15  C   UNL     1      21.194  15.665  -3.461  0.00  0.00    +0.329 C 
ATOM     16  O   UNL     1      21.034  16.876  -3.421  0.00  0.00    -0.249 OA
BRANCH  15  17
ATOM     17  O   UNL     1      20.890  14.812  -2.436  0.00  0.00    -0.464 OA
BRANCH  17  18
ATOM     18  C   UNL     1      19.933  13.793  -2.764  0.00  0.00    +0.229 C 
ATOM     19  C   UNL     1      18.600  14.474  -3.022  0.00  0.00    +0.048 C 
ENDBRANCH  17  18
ENDBRANCH  15  17
ENDBRANCH  14  15
ENDBRANCH  12  14
ENDBRANCH   8  10
ENDBRANCH   7   8
ENDBRANCH   6   7
ENDBRANCH   2   6
ENDBRANCH   1   3
BRANCH   1  20
ATOM     20  C   UNL     1      29.821  14.372   1.112  0.00  0.00    +0.193 C 
ATOM     21  O   UNL     1      30.045  12.959   0.912  0.00  0.00    -0.219 OA
BRANCH  20  22
ATOM     22  C   UNL     1      31.237  14.990   1.115  0.00  0.00    +0.212 C 
ATOM     23  O   UNL     1      31.245  16.222   1.854  0.00  0.00    -0.218 OA
BRANCH  22  24
ATOM     24  C   UNL     1      32.334  14.033   1.718  0.00  0.00    +0.171 C 
ATOM     25  O   UNL     1      32.837  14.494   2.968  0.00  0.00    -0.343 OA
ATOM     26  C   UNL     1      33.972  13.981   3.599  0.00  0.00    +0.220 C 
ATOM     27  C   UNL     1      35.179  13.926   2.646  0.00  0.00    +0.076 C 
ATOM     28  C   UNL     1      34.738  13.163   1.386  0.00  0.00    +0.177 C 
ATOM     29  O   UNL     1      35.832  13.049   0.486  0.00  0.00    -0.221 OA
ATOM     30  C   UNL     1      33.527  13.884   0.717  0.00  0.00    +0.155 C 
BRANCH  30  31
ATOM     31  N   UNL     1      33.110  13.167  -0.485  0.00  0.00    -0.202 NA
ATOM     32  C   UNL     1      33.103  13.574  -1.780  0.00  0.00    +0.242 C 
ATOM     33  C   UNL     1      32.903  12.537  -2.854  0.00  0.00    +0.096 C 
ATOM     34  O   UNL     1      33.259  14.764  -2.043  0.00  0.00    -0.273 OA
ENDBRANCH  30  31
BRANCH  26  35
ATOM     35  C   UNL     1      33.718  12.549   4.324  0.00  0.00    +0.391 C 
ATOM     36  O   UNL     1      34.949  12.074   4.595  0.00  0.00    -0.243 OA
ATOM     37  O   UNL     1      32.418  12.522   4.644  0.00  0.00    -0.243 OA
ENDBRANCH  26  35
ENDBRANCH  22  24
ENDBRANCH  20  22
ENDBRANCH   1  20
TORSDOF 14
