REMARK VINA RESULT:    -7.832      1.614      2.178
REMARK INTER + INTRA:         -16.049
REMARK INTER:                 -13.573
REMARK INTRA:                  -2.476
REMARK UNBOUND:                -1.120
REMARK  Name = lig_assembled_76.pdb
REMARK  16 active torsions:
REMARK  status: ('A' for Active; 'I' for Inactive)
REMARK    1  A    between atoms: _2  and  _8
REMARK    2  A    between atoms: _5  and  _6
REMARK    3  A    between atoms: _5  and  _18
REMARK    4  A    between atoms: _8  and  _9
REMARK    5  A    between atoms: _9  and  _10
REMARK    6  A    between atoms: _9  and  _17
REMARK    7  A    between atoms: _10  and  _11
REMARK    8  A    between atoms: _11  and  _12
REMARK    9  A    between atoms: _18  and  _20
REMARK   10  A    between atoms: _19  and  _24
REMARK   11  A    between atoms: _20  and  _23
REMARK   12  A    between atoms: _28  and  _38
REMARK   13  A    between atoms: _30  and  _31
REMARK   14  A    between atoms: _32  and  _34
REMARK   15  A    between atoms: _34  and  _36
REMARK   16  A    between atoms: _36  and  _38
REMARK                            x       y       z     vdW  Elec       q    Type
REMARK                         _______ _______ _______ _____ _____    ______ ____
ROOT
ATOM      1  C   UNL     1      29.080  16.424  -0.539  0.00  0.00    +0.400 C 
ATOM      2  N   UNL     1      29.015  15.346   0.312  0.00  0.00    -0.278 N 
ATOM      3  H   UNL     1      29.917  15.425   0.880  0.00  0.00    +0.152 HD
ATOM      4  O   UNL     1      29.962  17.258  -0.352  0.00  0.00    -0.226 OA
ENDROOT
BRANCH   1   5
ATOM      5  O   UNL     1      28.206  16.439  -1.491  0.00  0.00    -0.450 OA
BRANCH   5   6
ATOM      6  C   UNL     1      27.208  17.285  -2.012  0.00  0.00    +0.240 C 
BRANCH   6   7
ATOM      7  C   UNL     1      27.032  17.319  -3.542  0.00  0.00    +0.100 C 
BRANCH   7   9
ATOM      8  N   UNL     1      26.086  15.698  -5.162  0.00  0.00    -0.134 NA
ATOM      9  C   UNL     1      26.000  16.356  -3.962  0.00  0.00    +0.086 A 
ATOM     10  C   UNL     1      24.849  15.968  -3.315  0.00  0.00    +0.133 A 
ATOM     11  N   UNL     1      24.283  15.070  -4.168  0.00  0.00    -0.249 N 
ATOM     12  N   UNL     1      25.019  14.916  -5.281  0.00  0.00    -0.065 NA
BRANCH  11  13
ATOM     13  C   UNL     1      22.992  14.432  -4.050  0.00  0.00    +0.176 C 
BRANCH  13  14
ATOM     14  C   UNL     1      21.868  15.417  -3.716  0.00  0.00    +0.136 C 
BRANCH  14  15
ATOM     15  O   UNL     1      21.266  15.908  -4.923  0.00  0.00    -0.390 OA
ATOM     16  H   UNL     1      20.866  16.777  -4.748  0.00  0.00    +0.210 HD
ENDBRANCH  14  15
BRANCH  14  17
ATOM     17  C   UNL     1      20.753  14.773  -2.877  0.00  0.00    +0.038 C 
BRANCH  17  18
ATOM     18  C   UNL     1      20.693  13.251  -3.009  0.00  0.00    +0.038 C 
BRANCH  18  19
ATOM     19  C   UNL     1      21.021  12.555  -1.714  0.00  0.00    -0.047 A 
ATOM     20  C   UNL     1      21.638  11.296  -1.723  0.00  0.00    +0.003 A 
ATOM     21  C   UNL     1      21.959  10.657  -0.525  0.00  0.00    +0.000 A 
ATOM     22  C   UNL     1      21.662  11.268   0.691  0.00  0.00    +0.000 A 
ATOM     23  C   UNL     1      21.039  12.515   0.711  0.00  0.00    +0.000 A 
ATOM     24  C   UNL     1      20.715  13.155  -0.486  0.00  0.00    +0.003 A 
ENDBRANCH  18  19
ENDBRANCH  17  18
ENDBRANCH  14  17
ENDBRANCH  13  14
ENDBRANCH  11  13
ENDBRANCH   7   9
ENDBRANCH   6   7
ENDBRANCH   5   6
ENDBRANCH   1   5
BRANCH   2  25
ATOM     25  C   UNL     1      28.278  14.178   0.787  0.00  0.00    +0.152 C 
BRANCH  25  26
ATOM     26  C   UNL     1      29.005  12.823   0.673  0.00  0.00    +0.193 C 
ATOM     27  O   UNL     1      28.023  11.800   0.948  0.00  0.00    -0.219 OA
BRANCH  26  28
ATOM     28  C   UNL     1      29.588  12.437  -0.705  0.00  0.00    +0.212 C 
ATOM     29  O   UNL     1      28.931  13.172  -1.750  0.00  0.00    -0.218 OA
BRANCH  28  30
ATOM     30  C   UNL     1      31.141  12.681  -0.816  0.00  0.00    +0.171 C 
ATOM     31  O   UNL     1      31.571  13.822  -0.082  0.00  0.00    -0.343 OA
ATOM     32  C   UNL     1      32.834  14.406  -0.199  0.00  0.00    +0.220 C 
ATOM     33  C   UNL     1      33.202  14.678  -1.668  0.00  0.00    +0.076 C 
ATOM     34  C   UNL     1      33.022  13.362  -2.442  0.00  0.00    +0.177 C 
ATOM     35  O   UNL     1      33.389  13.548  -3.802  0.00  0.00    -0.221 OA
ATOM     36  C   UNL     1      31.550  12.861  -2.315  0.00  0.00    +0.155 C 
BRANCH  36  37
ATOM     37  N   UNL     1      31.373  11.614  -3.055  0.00  0.00    -0.202 NA
ATOM     38  C   UNL     1      30.841  11.403  -4.285  0.00  0.00    +0.242 C 
ATOM     39  C   UNL     1      31.048  10.058  -4.934  0.00  0.00    +0.096 C 
ATOM     40  O   UNL     1      30.211  12.302  -4.837  0.00  0.00    -0.273 OA
ENDBRANCH  36  37
BRANCH  32  41
ATOM     41  C   UNL     1      34.004  13.576   0.565  0.00  0.00    +0.391 C 
ATOM     42  O   UNL     1      35.154  14.004   0.009  0.00  0.00    -0.243 OA
ATOM     43  O   UNL     1      33.424  13.023   1.638  0.00  0.00    -0.243 OA
ENDBRANCH  32  41
ENDBRANCH  28  30
ENDBRANCH  26  28
ENDBRANCH  25  26
ENDBRANCH   2  25
TORSDOF 16
