REMARK VINA RESULT:    -6.949      2.995      9.090
REMARK INTER + INTRA:         -13.808
REMARK INTER:                 -12.018
REMARK INTRA:                  -1.790
REMARK UNBOUND:                -1.577
REMARK  Name = lig_assembled_66.pdb
REMARK  13 active torsions:
REMARK  status: ('A' for Active; 'I' for Inactive)
REMARK    1  A    between atoms: _2  and  _9
REMARK    2  A    between atoms: _6  and  _7
REMARK    3  A    between atoms: _6  and  _16
REMARK    4  A    between atoms: _9  and  _10
REMARK    5  A    between atoms: _14  and  _15
REMARK    6  A    between atoms: _16  and  _18
REMARK    7  A    between atoms: _17  and  _22
REMARK    8  A    between atoms: _18  and  _21
REMARK    9  A    between atoms: _26  and  _36
REMARK   10  A    between atoms: _28  and  _29
REMARK   11  A    between atoms: _30  and  _32
REMARK   12  A    between atoms: _32  and  _34
REMARK   13  A    between atoms: _34  and  _36
REMARK                            x       y       z     vdW  Elec       q    Type
REMARK                         _______ _______ _______ _____ _____    ______ ____
ROOT
ATOM      1  C   UNL     1      27.490  17.636  -1.793  0.00  0.00    +0.400 C 
ATOM      2  N   UNL     1      26.512  17.136  -2.620  0.00  0.00    -0.278 N 
ATOM      3  H   UNL     1      25.825  17.950  -2.712  0.00  0.00    +0.152 HD
ATOM      4  O   UNL     1      27.466  18.835  -1.527  0.00  0.00    -0.226 OA
ENDROOT
BRANCH   1   5
ATOM      5  O   UNL     1      28.338  16.771  -1.343  0.00  0.00    -0.450 OA
BRANCH   5   6
ATOM      6  C   UNL     1      28.945  16.404  -0.126  0.00  0.00    +0.240 C 
BRANCH   6   7
ATOM      7  C   UNL     1      30.435  16.748   0.058  0.00  0.00    +0.100 C 
BRANCH   7   9
ATOM      8  N   UNL     1      32.217  15.324  -0.911  0.00  0.00    -0.134 NA
ATOM      9  C   UNL     1      31.252  15.520   0.041  0.00  0.00    +0.086 A 
ATOM     10  C   UNL     1      31.252  14.448   0.908  0.00  0.00    +0.134 A 
ATOM     11  N   UNL     1      32.277  13.663   0.462  0.00  0.00    -0.247 N 
ATOM     12  N   UNL     1      32.841  14.184  -0.643  0.00  0.00    -0.065 NA
BRANCH  11  13
ATOM     13  C   UNL     1      32.922  12.572   1.168  0.00  0.00    +0.180 C 
BRANCH  13  14
ATOM     14  C   UNL     1      33.307  12.922   2.583  0.00  0.00    -0.025 A 
ATOM     15  C   UNL     1      34.400  13.764   2.832  0.00  0.00    +0.005 A 
ATOM     16  C   UNL     1      34.713  14.160   4.135  0.00  0.00    +0.002 A 
ATOM     17  C   UNL     1      33.948  13.702   5.207  0.00  0.00    +0.019 A 
ATOM     18  C   UNL     1      32.877  12.832   4.980  0.00  0.00    +0.052 A 
ATOM     19  C   UNL     1      32.557  12.446   3.672  0.00  0.00    +0.024 A 
BRANCH  18  20
ATOM     20  C   UNL     1      32.100  12.347   6.082  0.00  0.00    +0.099 C 
ATOM     21  N   UNL     1      31.465  11.948   6.969  0.00  0.00    -0.191 NA
ENDBRANCH  18  20
ENDBRANCH  13  14
ENDBRANCH  11  13
ENDBRANCH   7   9
ENDBRANCH   6   7
ENDBRANCH   5   6
ENDBRANCH   1   5
BRANCH   2  22
ATOM     22  C   UNL     1      26.010  16.023  -3.422  0.00  0.00    +0.152 C 
BRANCH  22  23
ATOM     23  C   UNL     1      24.948  15.127  -2.752  0.00  0.00    +0.193 C 
ATOM     24  O   UNL     1      23.779  15.162  -3.600  0.00  0.00    -0.219 OA
BRANCH  23  25
ATOM     25  C   UNL     1      25.272  13.624  -2.603  0.00  0.00    +0.212 C 
ATOM     26  O   UNL     1      26.555  13.328  -3.177  0.00  0.00    -0.218 OA
BRANCH  25  27
ATOM     27  C   UNL     1      25.262  13.128  -1.107  0.00  0.00    +0.171 C 
ATOM     28  O   UNL     1      26.411  12.353  -0.779  0.00  0.00    -0.343 OA
ATOM     29  C   UNL     1      26.543  11.594   0.386  0.00  0.00    +0.220 C 
ATOM     30  C   UNL     1      25.329  10.677   0.610  0.00  0.00    +0.076 C 
ATOM     31  C   UNL     1      24.068  11.555   0.550  0.00  0.00    +0.177 C 
ATOM     32  O   UNL     1      22.915  10.761   0.792  0.00  0.00    -0.221 OA
ATOM     33  C   UNL     1      23.981  12.276  -0.832  0.00  0.00    +0.155 C 
BRANCH  33  34
ATOM     34  N   UNL     1      22.781  13.106  -0.896  0.00  0.00    -0.202 NA
ATOM     35  C   UNL     1      21.704  13.012  -1.716  0.00  0.00    +0.242 C 
ATOM     36  C   UNL     1      20.473  13.813  -1.376  0.00  0.00    +0.096 C 
ATOM     37  O   UNL     1      21.755  12.285  -2.706  0.00  0.00    -0.273 OA
ENDBRANCH  33  34
BRANCH  29  38
ATOM     38  C   UNL     1      26.871  12.485   1.704  0.00  0.00    +0.391 C 
ATOM     39  O   UNL     1      26.395  11.764   2.738  0.00  0.00    -0.243 OA
ATOM     40  O   UNL     1      27.736  13.427   1.309  0.00  0.00    -0.243 OA
ENDBRANCH  29  38
ENDBRANCH  25  27
ENDBRANCH  23  25
ENDBRANCH  22  23
ENDBRANCH   2  22
TORSDOF 13
