REMARK VINA RESULT:    -7.064      2.480      8.930
REMARK INTER + INTRA:         -13.381
REMARK INTER:                 -10.897
REMARK INTRA:                  -2.485
REMARK UNBOUND:                -1.775
REMARK  Name = lig_assembled_42.pdb
REMARK  11 active torsions:
REMARK  status: ('A' for Active; 'I' for Inactive)
REMARK    1  A    between atoms: _2  and  _8
REMARK    2  A    between atoms: _5  and  _6
REMARK    3  A    between atoms: _5  and  _16
REMARK    4  A    between atoms: _16  and  _18
REMARK    5  A    between atoms: _17  and  _22
REMARK    6  A    between atoms: _18  and  _21
REMARK    7  A    between atoms: _26  and  _36
REMARK    8  A    between atoms: _28  and  _29
REMARK    9  A    between atoms: _30  and  _32
REMARK   10  A    between atoms: _32  and  _34
REMARK   11  A    between atoms: _34  and  _36
REMARK                            x       y       z     vdW  Elec       q    Type
REMARK                         _______ _______ _______ _____ _____    ______ ____
ROOT
ATOM      1  C   UNL     1      24.703  14.601  -4.818  0.00  0.00    +0.400 C 
ATOM      2  N   UNL     1      25.150  13.522  -4.092  0.00  0.00    -0.278 N 
ATOM      3  H   UNL     1      24.247  13.067  -3.744  0.00  0.00    +0.152 HD
ATOM      4  O   UNL     1      23.499  14.686  -5.047  0.00  0.00    -0.226 OA
ENDROOT
BRANCH   1   5
ATOM      5  O   UNL     1      25.609  15.453  -5.170  0.00  0.00    -0.450 OA
BRANCH   5   6
ATOM      6  C   UNL     1      26.679  16.171  -4.601  0.00  0.00    +0.240 C 
BRANCH   6   7
ATOM      7  C   UNL     1      26.346  17.169  -3.476  0.00  0.00    +0.100 C 
BRANCH   7   9
ATOM      8  N   UNL     1      27.591  17.924  -1.466  0.00  0.00    -0.134 NA
ATOM      9  C   UNL     1      27.187  16.914  -2.292  0.00  0.00    +0.086 A 
ATOM     10  C   UNL     1      27.690  15.725  -1.824  0.00  0.00    +0.139 A 
ATOM     11  N   UNL     1      28.403  16.056  -0.696  0.00  0.00    -0.220 N 
ATOM     12  N   UNL     1      28.329  17.395  -0.498  0.00  0.00    -0.061 NA
BRANCH  11  13
ATOM     13  C   UNL     1      29.128  15.196   0.169  0.00  0.00    +0.071 A 
ATOM     14  C   UNL     1      30.531  15.234   0.182  0.00  0.00    +0.077 A 
ATOM     15  C   UNL     1      31.189  14.379   1.040  0.00  0.00    +0.168 A 
ATOM     16  O   UNL     1      32.538  14.293   1.178  0.00  0.00    -0.453 OA
ATOM     17  C   UNL     1      32.641  13.271   2.189  0.00  0.00    +0.466 C 
ATOM     18  O   UNL     1      31.361  12.765   2.625  0.00  0.00    -0.453 OA
ATOM     19  C   UNL     1      30.516  13.510   1.864  0.00  0.00    +0.166 A 
ATOM     20  C   UNL     1      29.139  13.444   1.876  0.00  0.00    +0.051 A 
ATOM     21  C   UNL     1      28.436  14.299   1.017  0.00  0.00    +0.031 A 
ENDBRANCH  11  13
ENDBRANCH   7   9
ENDBRANCH   6   7
ENDBRANCH   5   6
ENDBRANCH   1   5
BRANCH   2  22
ATOM     22  C   UNL     1      26.277  12.731  -3.605  0.00  0.00    +0.152 C 
BRANCH  22  23
ATOM     23  C   UNL     1      25.924  11.520  -2.717  0.00  0.00    +0.193 C 
ATOM     24  O   UNL     1      27.171  10.874  -2.380  0.00  0.00    -0.219 OA
BRANCH  23  25
ATOM     25  C   UNL     1      25.256  11.804  -1.353  0.00  0.00    +0.212 C 
ATOM     26  O   UNL     1      25.659  13.091  -0.855  0.00  0.00    -0.218 OA
BRANCH  25  27
ATOM     27  C   UNL     1      23.682  11.756  -1.406  0.00  0.00    +0.171 C 
ATOM     28  O   UNL     1      23.127  12.810  -2.186  0.00  0.00    -0.343 OA
ATOM     29  C   UNL     1      21.772  13.148  -2.204  0.00  0.00    +0.220 C 
ATOM     30  C   UNL     1      21.209  13.324  -0.783  0.00  0.00    +0.076 C 
ATOM     31  C   UNL     1      21.548  12.051   0.010  0.00  0.00    +0.177 C 
ATOM     32  O   UNL     1      21.014  12.145   1.323  0.00  0.00    -0.221 OA
ATOM     33  C   UNL     1      23.092  11.832   0.040  0.00  0.00    +0.155 C 
BRANCH  33  34
ATOM     34  N   UNL     1      23.419  10.627   0.798  0.00  0.00    -0.202 NA
ATOM     35  C   UNL     1      24.107  10.493   1.961  0.00  0.00    +0.242 C 
ATOM     36  C   UNL     1      24.046   9.170   2.679  0.00  0.00    +0.096 C 
ATOM     37  O   UNL     1      24.754  11.443   2.397  0.00  0.00    -0.273 OA
ENDBRANCH  33  34
BRANCH  29  38
ATOM     38  C   UNL     1      20.863  12.130  -3.085  0.00  0.00    +0.391 C 
ATOM     39  O   UNL     1      19.591  12.514  -2.858  0.00  0.00    -0.243 OA
ATOM     40  O   UNL     1      21.705  11.509  -3.919  0.00  0.00    -0.243 OA
ENDBRANCH  29  38
ENDBRANCH  25  27
ENDBRANCH  23  25
ENDBRANCH  22  23
ENDBRANCH   2  22
TORSDOF 11
