REMARK VINA RESULT:    -6.772      1.944      4.013
REMARK INTER + INTRA:         -14.736
REMARK INTER:                 -12.782
REMARK INTRA:                  -1.953
REMARK UNBOUND:                -2.025
REMARK  Name = lig_assembled_10.pdb
REMARK  16 active torsions:
REMARK  status: ('A' for Active; 'I' for Inactive)
REMARK    1  A    between atoms: _2  and  _8
REMARK    2  A    between atoms: _4  and  _8
REMARK    3  A    between atoms: _4  and  _11
REMARK    4  A    between atoms: _5  and  _6
REMARK    5  A    between atoms: _5  and  _15
REMARK    6  A    between atoms: _8  and  _9
REMARK    7  A    between atoms: _9  and  _10
REMARK    8  A    between atoms: _10  and  _13
REMARK    9  A    between atoms: _15  and  _17
REMARK   10  A    between atoms: _16  and  _21
REMARK   11  A    between atoms: _17  and  _20
REMARK   12  A    between atoms: _25  and  _35
REMARK   13  A    between atoms: _27  and  _28
REMARK   14  A    between atoms: _29  and  _31
REMARK   15  A    between atoms: _31  and  _33
REMARK   16  A    between atoms: _33  and  _35
REMARK                            x       y       z     vdW  Elec       q    Type
REMARK                         _______ _______ _______ _____ _____    ______ ____
ROOT
ATOM      1  C   UNL     1      28.842  17.052  -0.485  0.00  0.00    +0.400 C 
ATOM      2  N   UNL     1      28.903  15.900   0.263  0.00  0.00    -0.278 N 
ATOM      3  H   UNL     1      29.596  16.145   1.038  0.00  0.00    +0.152 HD
ATOM      4  O   UNL     1      29.384  18.061  -0.040  0.00  0.00    -0.226 OA
ENDROOT
BRANCH   2   5
ATOM      5  C   UNL     1      28.445  14.529   0.476  0.00  0.00    +0.152 C 
BRANCH   5   6
ATOM      6  C   UNL     1      28.683  13.945   1.884  0.00  0.00    +0.193 C 
ATOM      7  O   UNL     1      27.459  13.281   2.270  0.00  0.00    -0.219 OA
BRANCH   6   8
ATOM      8  C   UNL     1      29.773  12.860   2.032  0.00  0.00    +0.212 C 
ATOM      9  O   UNL     1      29.377  11.655   1.357  0.00  0.00    -0.218 OA
BRANCH   8  10
ATOM     10  C   UNL     1      31.179  13.308   1.480  0.00  0.00    +0.171 C 
ATOM     11  O   UNL     1      31.296  13.133   0.072  0.00  0.00    -0.343 OA
ATOM     12  C   UNL     1      32.498  13.216  -0.636  0.00  0.00    +0.220 C 
ATOM     13  C   UNL     1      33.595  12.343  -0.002  0.00  0.00    +0.076 C 
ATOM     14  C   UNL     1      33.691  12.726   1.484  0.00  0.00    +0.177 C 
ATOM     15  O   UNL     1      34.721  11.974   2.109  0.00  0.00    -0.221 OA
ATOM     16  C   UNL     1      32.316  12.499   2.187  0.00  0.00    +0.155 C 
BRANCH  16  17
ATOM     17  N   UNL     1      32.405  12.856   3.601  0.00  0.00    -0.202 NA
ATOM     18  C   UNL     1      32.486  12.055   4.694  0.00  0.00    +0.242 C 
ATOM     19  C   UNL     1      32.865  12.680   6.011  0.00  0.00    +0.096 C 
ATOM     20  O   UNL     1      32.253  10.853   4.585  0.00  0.00    -0.273 OA
ENDBRANCH  16  17
BRANCH  12  21
ATOM     21  C   UNL     1      33.008  14.741  -0.866  0.00  0.00    +0.391 C 
ATOM     22  O   UNL     1      34.282  14.622  -1.287  0.00  0.00    -0.243 OA
ATOM     23  O   UNL     1      31.909  15.506  -0.847  0.00  0.00    -0.243 OA
ENDBRANCH  12  21
ENDBRANCH   8  10
ENDBRANCH   6   8
ENDBRANCH   5   6
ENDBRANCH   2   5
BRANCH   1  24
ATOM     24  O   UNL     1      28.232  16.951  -1.620  0.00  0.00    -0.450 OA
BRANCH  24  25
ATOM     25  C   UNL     1      27.171  17.556  -2.321  0.00  0.00    +0.240 C 
BRANCH  25  26
ATOM     26  C   UNL     1      26.998  17.188  -3.807  0.00  0.00    +0.100 C 
BRANCH  26  28
ATOM     27  N   UNL     1      25.727  15.509  -5.110  0.00  0.00    -0.134 NA
ATOM     28  C   UNL     1      25.868  16.255  -3.973  0.00  0.00    +0.086 A 
ATOM     29  C   UNL     1      24.834  15.964  -3.112  0.00  0.00    +0.134 A 
ATOM     30  N   UNL     1      24.121  15.002  -3.759  0.00  0.00    -0.237 N 
ATOM     31  N   UNL     1      24.650  14.751  -4.974  0.00  0.00    -0.065 NA
BRANCH  30  32
ATOM     32  C   UNL     1      22.943  14.253  -3.354  0.00  0.00    +0.227 C 
BRANCH  32  33
ATOM     33  C   UNL     1      21.707  14.528  -4.181  0.00  0.00    +0.330 C 
ATOM     34  O   UNL     1      20.594  14.163  -3.819  0.00  0.00    -0.249 OA
BRANCH  33  35
ATOM     35  O   UNL     1      21.865  15.237  -5.319  0.00  0.00    -0.479 OA
ATOM     36  H   UNL     1      22.369  14.796  -6.052  0.00  0.00    +0.295 HD
ENDBRANCH  33  35
ENDBRANCH  32  33
BRANCH  32  37
ATOM     37  C   UNL     1      22.657  14.295  -1.846  0.00  0.00    +0.158 C 
BRANCH  37  38
ATOM     38  C   UNL     1      23.276  13.135  -1.120  0.00  0.00    +0.307 C 
ATOM     39  O   UNL     1      22.700  12.073  -0.920  0.00  0.00    -0.251 OA
BRANCH  38  40
ATOM     40  O   UNL     1      24.561  13.336  -0.775  0.00  0.00    -0.481 OA
ATOM     41  H   UNL     1      24.793  14.259  -0.549  0.00  0.00    +0.295 HD
ENDBRANCH  38  40
ENDBRANCH  37  38
ENDBRANCH  32  37
ENDBRANCH  30  32
ENDBRANCH  26  28
ENDBRANCH  25  26
ENDBRANCH  24  25
ENDBRANCH   1  24
TORSDOF 16
