REMARK VINA RESULT:    -6.931      3.547      7.899
REMARK INTER + INTRA:         -12.774
REMARK INTER:                 -10.437
REMARK INTRA:                  -2.337
REMARK UNBOUND:                -1.385
REMARK  Name = lig_assembled_56.pdb
REMARK  11 active torsions:
REMARK  status: ('A' for Active; 'I' for Inactive)
REMARK    1  A    between atoms: _2  and  _9
REMARK    2  A    between atoms: _6  and  _7
REMARK    3  A    between atoms: _6  and  _13
REMARK    4  A    between atoms: _13  and  _15
REMARK    5  A    between atoms: _14  and  _19
REMARK    6  A    between atoms: _15  and  _18
REMARK    7  A    between atoms: _23  and  _33
REMARK    8  A    between atoms: _25  and  _26
REMARK    9  A    between atoms: _27  and  _29
REMARK   10  A    between atoms: _29  and  _31
REMARK   11  A    between atoms: _31  and  _33
REMARK                            x       y       z     vdW  Elec       q    Type
REMARK                         _______ _______ _______ _____ _____    ______ ____
ROOT
ATOM      1  C   UNL     1      27.114  15.761  -1.982  0.00  0.00    +0.152 C 
ENDROOT
BRANCH   1   3
ATOM      2  C   UNL     1      29.049  17.003  -0.512  0.00  0.00    +0.400 C 
ATOM      3  N   UNL     1      27.867  16.688  -1.140  0.00  0.00    -0.278 N 
ATOM      4  H   UNL     1      27.230  17.511  -0.897  0.00  0.00    +0.152 HD
ATOM      5  O   UNL     1      29.165  18.126  -0.027  0.00  0.00    -0.226 OA
BRANCH   2   6
ATOM      6  O   UNL     1      29.928  16.057  -0.466  0.00  0.00    -0.450 OA
BRANCH   6   7
ATOM      7  C   UNL     1      30.008  14.687  -0.151  0.00  0.00    +0.240 C 
BRANCH   7   8
ATOM      8  C   UNL     1      29.985  14.298   1.339  0.00  0.00    +0.100 C 
BRANCH   8  10
ATOM      9  N   UNL     1      28.209  13.697   2.953  0.00  0.00    -0.134 NA
ATOM     10  C   UNL     1      28.702  13.654   1.682  0.00  0.00    +0.086 A 
ATOM     11  C   UNL     1      27.825  12.957   0.882  0.00  0.00    +0.139 A 
ATOM     12  N   UNL     1      26.790  12.603   1.715  0.00  0.00    -0.220 N 
ATOM     13  N   UNL     1      27.049  13.053   2.967  0.00  0.00    -0.061 NA
BRANCH  12  14
ATOM     14  C   UNL     1      25.602  11.896   1.404  0.00  0.00    +0.070 A 
ATOM     15  C   UNL     1      25.029  11.974   0.132  0.00  0.00    +0.047 A 
ATOM     16  C   UNL     1      23.858  11.270  -0.098  0.00  0.00    +0.113 A 
ATOM     17  N   UNL     1      23.241  10.513   0.832  0.00  0.00    -0.263 NA
ATOM     18  C   UNL     1      23.816  10.452   2.052  0.00  0.00    +0.113 A 
ATOM     19  C   UNL     1      24.984  11.116   2.386  0.00  0.00    +0.047 A 
ENDBRANCH  12  14
ENDBRANCH   8  10
ENDBRANCH   7   8
ENDBRANCH   6   7
ENDBRANCH   2   6
ENDBRANCH   1   3
BRANCH   1  20
ATOM     20  C   UNL     1      26.233  16.400  -3.076  0.00  0.00    +0.193 C 
ATOM     21  O   UNL     1      27.078  17.315  -3.808  0.00  0.00    -0.219 OA
BRANCH  20  22
ATOM     22  C   UNL     1      25.648  15.466  -4.158  0.00  0.00    +0.212 C 
ATOM     23  O   UNL     1      26.223  15.762  -5.441  0.00  0.00    -0.218 OA
BRANCH  22  24
ATOM     24  C   UNL     1      25.869  13.936  -3.848  0.00  0.00    +0.171 C 
ATOM     25  O   UNL     1      26.799  13.326  -4.737  0.00  0.00    -0.343 OA
ATOM     26  C   UNL     1      26.997  11.947  -4.846  0.00  0.00    +0.220 C 
ATOM     27  C   UNL     1      25.668  11.194  -5.033  0.00  0.00    +0.076 C 
ATOM     28  C   UNL     1      24.728  11.624  -3.895  0.00  0.00    +0.177 C 
ATOM     29  O   UNL     1      23.496  10.925  -3.997  0.00  0.00    -0.221 OA
ATOM     30  C   UNL     1      24.509  13.169  -3.934  0.00  0.00    +0.155 C 
BRANCH  30  31
ATOM     31  N   UNL     1      23.611  13.581  -2.859  0.00  0.00    -0.202 NA
ATOM     32  C   UNL     1      22.379  14.147  -2.926  0.00  0.00    +0.242 C 
ATOM     33  C   UNL     1      21.547  14.200  -1.671  0.00  0.00    +0.096 C 
ATOM     34  O   UNL     1      21.974  14.596  -3.997  0.00  0.00    -0.273 OA
ENDBRANCH  30  31
BRANCH  26  35
ATOM     35  C   UNL     1      27.873  11.321  -3.630  0.00  0.00    +0.391 C 
ATOM     36  O   UNL     1      27.779   9.986  -3.786  0.00  0.00    -0.243 OA
ATOM     37  O   UNL     1      28.588  12.335  -3.128  0.00  0.00    -0.243 OA
ENDBRANCH  26  35
ENDBRANCH  22  24
ENDBRANCH  20  22
ENDBRANCH   1  20
TORSDOF 11
