REMARK VINA RESULT:    -6.630      3.939      9.699
REMARK INTER + INTRA:         -13.062
REMARK INTER:                 -11.763
REMARK INTRA:                  -1.299
REMARK UNBOUND:                -2.168
REMARK  Name = lig_assembled_86.pdb
REMARK  12 active torsions:
REMARK  status: ('A' for Active; 'I' for Inactive)
REMARK    1  A    between atoms: _2  and  _9
REMARK    2  A    between atoms: _3  and  _12
REMARK    3  A    between atoms: _6  and  _7
REMARK    4  A    between atoms: _6  and  _16
REMARK    5  A    between atoms: _16  and  _18
REMARK    6  A    between atoms: _17  and  _22
REMARK    7  A    between atoms: _18  and  _21
REMARK    8  A    between atoms: _26  and  _36
REMARK    9  A    between atoms: _28  and  _29
REMARK   10  A    between atoms: _30  and  _32
REMARK   11  A    between atoms: _32  and  _34
REMARK   12  A    between atoms: _34  and  _36
REMARK                            x       y       z     vdW  Elec       q    Type
REMARK                         _______ _______ _______ _____ _____    ______ ____
ROOT
ATOM      1  C   UNL     1      25.799  15.820  -4.717  0.00  0.00    +0.400 C 
ATOM      2  N   UNL     1      24.558  15.234  -4.625  0.00  0.00    -0.278 N 
ATOM      3  H   UNL     1      24.499  14.639  -5.511  0.00  0.00    +0.152 HD
ATOM      4  O   UNL     1      26.561  15.427  -5.597  0.00  0.00    -0.226 OA
ENDROOT
BRANCH   1   5
ATOM      5  O   UNL     1      26.034  16.769  -3.871  0.00  0.00    -0.450 OA
BRANCH   5   6
ATOM      6  C   UNL     1      27.109  17.566  -3.432  0.00  0.00    +0.240 C 
BRANCH   6   7
ATOM      7  C   UNL     1      27.216  17.846  -1.921  0.00  0.00    +0.100 C 
BRANCH   7   9
ATOM      8  N   UNL     1      29.408  17.377  -0.862  0.00  0.00    -0.134 NA
ATOM      9  C   UNL     1      28.189  16.929  -1.301  0.00  0.00    +0.086 A 
ATOM     10  C   UNL     1      28.090  15.582  -1.044  0.00  0.00    +0.134 A 
ATOM     11  N   UNL     1      29.261  15.278  -0.418  0.00  0.00    -0.248 N 
ATOM     12  N   UNL     1      30.065  16.351  -0.336  0.00  0.00    -0.065 NA
BRANCH  11  13
ATOM     13  C   UNL     1      29.660  13.989   0.130  0.00  0.00    +0.112 C 
ATOM     14  C   UNL     1      30.981  13.487  -0.487  0.00  0.00    +0.045 C 
ATOM     15  C   UNL     1      31.996  12.951   0.526  0.00  0.00    +0.059 C 
ATOM     16  C   UNL     1      32.692  14.097   1.270  0.00  0.00    +0.020 C 
ATOM     17  C   UNL     1      31.870  14.284   2.543  0.00  0.00    +0.020 C 
ATOM     18  C   UNL     1      30.714  13.291   2.402  0.00  0.00    +0.059 C 
ATOM     19  N   UNL     1      31.366  12.232   1.633  0.00  0.00    -0.299 NA
ATOM     20  C   UNL     1      30.544  11.088   1.284  0.00  0.00    +0.105 C 
ATOM     21  C   UNL     1      29.524  13.922   1.669  0.00  0.00    +0.045 C 
ENDBRANCH  11  13
ENDBRANCH   7   9
ENDBRANCH   6   7
ENDBRANCH   5   6
ENDBRANCH   1   5
BRANCH   2  22
ATOM     22  C   UNL     1      23.321  15.054  -3.871  0.00  0.00    +0.152 C 
BRANCH  22  23
ATOM     23  C   UNL     1      23.364  14.012  -2.733  0.00  0.00    +0.193 C 
ATOM     24  O   UNL     1      24.642  14.166  -2.078  0.00  0.00    -0.219 OA
BRANCH  23  25
ATOM     25  C   UNL     1      22.329  14.152  -1.596  0.00  0.00    +0.212 C 
ATOM     26  O   UNL     1      21.134  14.786  -2.080  0.00  0.00    -0.218 OA
BRANCH  25  27
ATOM     27  C   UNL     1      21.937  12.776  -0.935  0.00  0.00    +0.171 C 
ATOM     28  O   UNL     1      22.925  12.304  -0.025  0.00  0.00    -0.343 OA
ATOM     29  C   UNL     1      22.953  11.014   0.510  0.00  0.00    +0.220 C 
ATOM     30  C   UNL     1      22.831   9.940  -0.585  0.00  0.00    +0.076 C 
ATOM     31  C   UNL     1      21.582  10.269  -1.419  0.00  0.00    +0.177 C 
ATOM     32  O   UNL     1      21.400   9.281  -2.424  0.00  0.00    -0.221 OA
ATOM     33  C   UNL     1      21.711  11.694  -2.041  0.00  0.00    +0.155 C 
BRANCH  33  34
ATOM     34  N   UNL     1      20.528  12.007  -2.840  0.00  0.00    -0.202 NA
ATOM     35  C   UNL     1      20.394  12.113  -4.186  0.00  0.00    +0.242 C 
ATOM     36  C   UNL     1      19.004  12.155  -4.765  0.00  0.00    +0.096 C 
ATOM     37  O   UNL     1      21.397  12.171  -4.894  0.00  0.00    -0.273 OA
ENDBRANCH  33  34
BRANCH  29  38
ATOM     38  C   UNL     1      21.868  10.782   1.697  0.00  0.00    +0.391 C 
ATOM     39  O   UNL     1      21.895   9.457   1.938  0.00  0.00    -0.243 OA
ATOM     40  O   UNL     1      21.587  11.997   2.184  0.00  0.00    -0.243 OA
ENDBRANCH  29  38
ENDBRANCH  25  27
ENDBRANCH  23  25
ENDBRANCH  22  23
ENDBRANCH   2  22
TORSDOF 11
