REMARK VINA RESULT:    -7.113      3.045      7.481
REMARK INTER + INTRA:         -13.985
REMARK INTER:                 -11.422
REMARK INTRA:                  -2.562
REMARK UNBOUND:                -1.466
REMARK  Name = lig_assembled_78.pdb
REMARK  13 active torsions:
REMARK  status: ('A' for Active; 'I' for Inactive)
REMARK    1  A    between atoms: _2  and  _8
REMARK    2  A    between atoms: _5  and  _6
REMARK    3  A    between atoms: _5  and  _16
REMARK    4  A    between atoms: _8  and  _44
REMARK    5  A    between atoms: _9  and  _44
REMARK    6  A    between atoms: _16  and  _18
REMARK    7  A    between atoms: _17  and  _22
REMARK    8  A    between atoms: _18  and  _21
REMARK    9  A    between atoms: _26  and  _36
REMARK   10  A    between atoms: _28  and  _29
REMARK   11  A    between atoms: _30  and  _32
REMARK   12  A    between atoms: _32  and  _34
REMARK   13  A    between atoms: _34  and  _36
REMARK                            x       y       z     vdW  Elec       q    Type
REMARK                         _______ _______ _______ _____ _____    ______ ____
ROOT
ATOM      1  C   UNL     1      28.932  17.113  -0.508  0.00  0.00    +0.400 C 
ATOM      2  N   UNL     1      27.790  16.667  -1.130  0.00  0.00    -0.278 N 
ATOM      3  H   UNL     1      27.020  17.263  -0.689  0.00  0.00    +0.152 HD
ATOM      4  O   UNL     1      28.855  18.116   0.197  0.00  0.00    -0.226 OA
ENDROOT
BRANCH   2   5
ATOM      5  C   UNL     1      27.173  15.778  -2.111  0.00  0.00    +0.152 C 
BRANCH   5   6
ATOM      6  C   UNL     1      26.281  16.452  -3.174  0.00  0.00    +0.193 C 
ATOM      7  O   UNL     1      27.137  17.329  -3.939  0.00  0.00    -0.219 OA
BRANCH   6   8
ATOM      8  C   UNL     1      25.618  15.542  -4.231  0.00  0.00    +0.212 C 
ATOM      9  O   UNL     1      26.247  15.719  -5.511  0.00  0.00    -0.218 OA
BRANCH   8  10
ATOM     10  C   UNL     1      25.662  14.012  -3.855  0.00  0.00    +0.171 C 
ATOM     11  O   UNL     1      26.673  13.303  -4.564  0.00  0.00    -0.343 OA
ATOM     12  C   UNL     1      26.776  11.911  -4.608  0.00  0.00    +0.220 C 
ATOM     13  C   UNL     1      25.440  11.253  -4.995  0.00  0.00    +0.076 C 
ATOM     14  C   UNL     1      24.364  11.792  -4.038  0.00  0.00    +0.177 C 
ATOM     15  O   UNL     1      23.113  11.184  -4.326  0.00  0.00    -0.221 OA
ATOM     16  C   UNL     1      24.278  13.347  -4.148  0.00  0.00    +0.155 C 
BRANCH  16  17
ATOM     17  N   UNL     1      23.252  13.863  -3.245  0.00  0.00    -0.202 NA
ATOM     18  C   UNL     1      22.113  14.545  -3.525  0.00  0.00    +0.242 C 
ATOM     19  C   UNL     1      21.085  14.700  -2.435  0.00  0.00    +0.096 C 
ATOM     20  O   UNL     1      21.946  15.013  -4.650  0.00  0.00    -0.273 OA
ENDBRANCH  16  17
BRANCH  12  21
ATOM     21  C   UNL     1      27.389  11.263  -3.250  0.00  0.00    +0.391 C 
ATOM     22  O   UNL     1      28.234  12.197  -2.771  0.00  0.00    -0.243 OA
ATOM     23  O   UNL     1      26.619  10.206  -2.964  0.00  0.00    -0.243 OA
ENDBRANCH  12  21
ENDBRANCH   8  10
ENDBRANCH   6   8
ENDBRANCH   5   6
ENDBRANCH   2   5
BRANCH   1  24
ATOM     24  O   UNL     1      29.992  16.399  -0.705  0.00  0.00    -0.450 OA
BRANCH  24  25
ATOM     25  C   UNL     1      30.760  15.422  -0.041  0.00  0.00    +0.240 C 
BRANCH  25  26
ATOM     26  C   UNL     1      30.479  13.946  -0.380  0.00  0.00    +0.100 C 
BRANCH  26  28
ATOM     27  N   UNL     1      29.968  12.735   1.721  0.00  0.00    -0.134 NA
ATOM     28  C   UNL     1      29.529  13.369   0.589  0.00  0.00    +0.086 A 
ATOM     29  C   UNL     1      28.152  13.350   0.570  0.00  0.00    +0.135 A 
ATOM     30  N   UNL     1      27.816  12.744   1.742  0.00  0.00    -0.230 N 
ATOM     31  N   UNL     1      28.908  12.335   2.410  0.00  0.00    -0.064 NA
BRANCH  30  32
ATOM     32  C   UNL     1      26.502  12.447   2.259  0.00  0.00    +0.316 C 
BRANCH  32  33
ATOM     33  S   UNL     1      25.829  10.922   1.655  0.00  0.00    +0.017 S 
ATOM     34  O   UNL     1      26.437  10.583   0.383  0.00  0.00    -0.168 OA
ATOM     35  O   UNL     1      25.821   9.970   2.753  0.00  0.00    -0.168 OA
BRANCH  33  36
ATOM     36  C   UNL     1      24.129  11.310   1.292  0.00  0.00    +0.090 A 
ATOM     37  C   UNL     1      23.791  11.767   0.014  0.00  0.00    +0.027 A 
ATOM     38  C   UNL     1      22.457  12.048  -0.282  0.00  0.00    +0.002 A 
ATOM     39  C   UNL     1      21.471  11.855   0.687  0.00  0.00    +0.000 A 
ATOM     40  C   UNL     1      21.812  11.379   1.954  0.00  0.00    +0.002 A 
ATOM     41  C   UNL     1      23.145  11.105   2.261  0.00  0.00    +0.027 A 
ENDBRANCH  33  36
ENDBRANCH  32  33
ENDBRANCH  30  32
ENDBRANCH  26  28
ENDBRANCH  25  26
ENDBRANCH  24  25
ENDBRANCH   1  24
TORSDOF 13
