REMARK VINA RESULT:    -7.229      1.573      3.544
REMARK INTER + INTRA:         -15.427
REMARK INTER:                 -13.482
REMARK INTRA:                  -1.945
REMARK UNBOUND:                -1.860
REMARK  Name = lig_assembled_37.pdb
REMARK  16 active torsions:
REMARK  status: ('A' for Active; 'I' for Inactive)
REMARK    1  A    between atoms: _2  and  _8
REMARK    2  A    between atoms: _5  and  _6
REMARK    3  A    between atoms: _5  and  _19
REMARK    4  A    between atoms: _8  and  _9
REMARK    5  A    between atoms: _8  and  _10
REMARK    6  A    between atoms: _10  and  _17
REMARK    7  A    between atoms: _11  and  _12
REMARK    8  A    between atoms: _11  and  _17
REMARK    9  A    between atoms: _19  and  _21
REMARK   10  A    between atoms: _20  and  _25
REMARK   11  A    between atoms: _21  and  _24
REMARK   12  A    between atoms: _29  and  _39
REMARK   13  A    between atoms: _31  and  _32
REMARK   14  A    between atoms: _33  and  _35
REMARK   15  A    between atoms: _35  and  _37
REMARK   16  A    between atoms: _37  and  _39
REMARK                            x       y       z     vdW  Elec       q    Type
REMARK                         _______ _______ _______ _____ _____    ______ ____
ROOT
ATOM      1  C   UNL     1      27.879  13.805  -1.278  0.00  0.00    +0.400 C 
ATOM      2  N   UNL     1      28.264  14.880  -0.512  0.00  0.00    -0.278 N 
ATOM      3  H   UNL     1      28.367  14.463   0.466  0.00  0.00    +0.152 HD
ATOM      4  O   UNL     1      27.922  12.687  -0.770  0.00  0.00    -0.226 OA
ENDROOT
BRANCH   2   5
ATOM      5  C   UNL     1      28.601  16.300  -0.441  0.00  0.00    +0.152 C 
BRANCH   5   6
ATOM      6  C   UNL     1      30.083  16.634  -0.175  0.00  0.00    +0.193 C 
ATOM      7  O   UNL     1      30.107  17.918   0.486  0.00  0.00    -0.219 OA
BRANCH   6   8
ATOM      8  C   UNL     1      30.869  15.699   0.770  0.00  0.00    +0.212 C 
ATOM      9  O   UNL     1      29.965  14.935   1.585  0.00  0.00    -0.218 OA
BRANCH   8  10
ATOM     10  C   UNL     1      31.826  14.703   0.010  0.00  0.00    +0.171 C 
ATOM     11  O   UNL     1      31.215  14.128  -1.141  0.00  0.00    -0.343 OA
ATOM     12  C   UNL     1      31.737  13.045  -1.852  0.00  0.00    +0.220 C 
ATOM     13  C   UNL     1      32.092  11.870  -0.923  0.00  0.00    +0.076 C 
ATOM     14  C   UNL     1      33.005  12.417   0.186  0.00  0.00    +0.177 C 
ATOM     15  O   UNL     1      33.396  11.362   1.053  0.00  0.00    -0.221 OA
ATOM     16  C   UNL     1      32.278  13.554   0.970  0.00  0.00    +0.155 C 
BRANCH  16  17
ATOM     17  N   UNL     1      33.140  14.072   2.029  0.00  0.00    -0.202 NA
ATOM     18  C   UNL     1      33.102  13.845   3.367  0.00  0.00    +0.242 C 
ATOM     19  C   UNL     1      34.286  14.267   4.198  0.00  0.00    +0.096 C 
ATOM     20  O   UNL     1      32.115  13.307   3.864  0.00  0.00    -0.273 OA
ENDBRANCH  16  17
BRANCH  12  21
ATOM     21  C   UNL     1      32.985  13.443  -2.814  0.00  0.00    +0.391 C 
ATOM     22  O   UNL     1      32.978  12.517  -3.793  0.00  0.00    -0.243 OA
ATOM     23  O   UNL     1      33.350  14.679  -2.453  0.00  0.00    -0.243 OA
ENDBRANCH  12  21
ENDBRANCH   8  10
ENDBRANCH   6   8
ENDBRANCH   5   6
ENDBRANCH   2   5
BRANCH   1  24
ATOM     24  O   UNL     1      27.473  14.085  -2.473  0.00  0.00    -0.450 OA
BRANCH  24  25
ATOM     25  C   UNL     1      26.587  13.581  -3.445  0.00  0.00    +0.240 C 
BRANCH  25  26
ATOM     26  C   UNL     1      26.085  14.559  -4.525  0.00  0.00    +0.100 C 
BRANCH  26  28
ATOM     27  N   UNL     1      23.773  14.278  -5.368  0.00  0.00    -0.134 NA
ATOM     28  C   UNL     1      24.628  14.750  -4.409  0.00  0.00    +0.086 A 
ATOM     29  C   UNL     1      23.897  15.372  -3.421  0.00  0.00    +0.134 A 
ATOM     30  N   UNL     1      22.606  15.270  -3.849  0.00  0.00    -0.238 N 
ATOM     31  N   UNL     1      22.535  14.594  -5.012  0.00  0.00    -0.065 NA
BRANCH  30  32
ATOM     32  C   UNL     1      21.386  15.713  -3.203  0.00  0.00    +0.214 C 
ATOM     33  C   UNL     1      20.453  16.411  -4.192  0.00  0.00    +0.045 C 
BRANCH  32  34
ATOM     34  C   UNL     1      20.671  14.561  -2.534  0.00  0.00    +0.332 C 
ATOM     35  O   UNL     1      19.731  13.953  -3.035  0.00  0.00    -0.248 OA
BRANCH  34  36
ATOM     36  O   UNL     1      21.205  14.295  -1.312  0.00  0.00    -0.458 OA
BRANCH  36  37
ATOM     37  C   UNL     1      20.364  13.572  -0.399  0.00  0.00    +0.267 C 
BRANCH  37  38
ATOM     38  C   UNL     1      21.049  12.303   0.035  0.00  0.00    -0.010 A 
ATOM     39  C   UNL     1      21.344  12.081   1.388  0.00  0.00    +0.007 A 
ATOM     40  C   UNL     1      21.954  10.892   1.795  0.00  0.00    +0.000 A 
ATOM     41  C   UNL     1      22.278   9.915   0.855  0.00  0.00    +0.000 A 
ATOM     42  C   UNL     1      21.995  10.128  -0.494  0.00  0.00    +0.000 A 
ATOM     43  C   UNL     1      21.386  11.316  -0.903  0.00  0.00    +0.007 A 
ENDBRANCH  37  38
ENDBRANCH  36  37
ENDBRANCH  34  36
ENDBRANCH  32  34
ENDBRANCH  30  32
ENDBRANCH  26  28
ENDBRANCH  25  26
ENDBRANCH  24  25
ENDBRANCH   1  24
TORSDOF 15
