REMARK VINA RESULT:    -6.872     24.133     27.550
REMARK INTER + INTRA:         -14.846
REMARK INTER:                 -11.329
REMARK INTRA:                  -3.517
REMARK UNBOUND:                -2.551
REMARK  Name = lig_assembled_64.pdb
REMARK  14 active torsions:
REMARK  status: ('A' for Active; 'I' for Inactive)
REMARK    1  A    between atoms: _2  and  _9
REMARK    2  A    between atoms: _6  and  _7
REMARK    3  A    between atoms: _6  and  _22
REMARK    4  A    between atoms: _11  and  _12
REMARK    5  A    between atoms: _12  and  _20
REMARK    6  A    between atoms: _13  and  _14
REMARK    7  A    between atoms: _22  and  _24
REMARK    8  A    between atoms: _23  and  _28
REMARK    9  A    between atoms: _24  and  _27
REMARK   10  A    between atoms: _32  and  _42
REMARK   11  A    between atoms: _34  and  _35
REMARK   12  A    between atoms: _36  and  _38
REMARK   13  A    between atoms: _38  and  _40
REMARK   14  A    between atoms: _40  and  _42
REMARK                            x       y       z     vdW  Elec       q    Type
REMARK                         _______ _______ _______ _____ _____    ______ ____
ROOT
ATOM      1  O   UNL     1      25.230  42.129   3.499  0.00  0.00    -0.450 OA
ENDROOT
BRANCH   1   2
ATOM      2  C   UNL     1      26.063  41.616   2.655  0.00  0.00    +0.400 C 
ATOM      3  N   UNL     1      27.115  40.922   3.204  0.00  0.00    -0.278 N 
ATOM      4  H   UNL     1      27.552  40.428   2.362  0.00  0.00    +0.152 HD
ATOM      5  O   UNL     1      25.980  41.669   1.430  0.00  0.00    -0.226 OA
BRANCH   3   6
ATOM      6  C   UNL     1      27.894  40.576   4.390  0.00  0.00    +0.152 C 
BRANCH   6   7
ATOM      7  C   UNL     1      27.798  39.110   4.863  0.00  0.00    +0.193 C 
ATOM      8  O   UNL     1      27.926  38.285   3.684  0.00  0.00    -0.219 OA
BRANCH   7   9
ATOM      9  C   UNL     1      28.898  38.593   5.816  0.00  0.00    +0.212 C 
ATOM     10  O   UNL     1      29.467  37.374   5.312  0.00  0.00    -0.218 OA
BRANCH   9  11
ATOM     11  C   UNL     1      30.059  39.633   6.052  0.00  0.00    +0.171 C 
ATOM     12  O   UNL     1      31.119  39.492   5.111  0.00  0.00    -0.343 OA
ATOM     13  C   UNL     1      32.366  40.108   5.231  0.00  0.00    +0.220 C 
ATOM     14  C   UNL     1      32.990  39.870   6.617  0.00  0.00    +0.076 C 
ATOM     15  C   UNL     1      31.953  40.296   7.670  0.00  0.00    +0.177 C 
ATOM     16  O   UNL     1      32.495  40.133   8.973  0.00  0.00    -0.221 OA
ATOM     17  C   UNL     1      30.640  39.472   7.495  0.00  0.00    +0.155 C 
BRANCH  17  18
ATOM     18  N   UNL     1      29.655  39.869   8.498  0.00  0.00    -0.202 NA
ATOM     19  C   UNL     1      29.138  39.161   9.535  0.00  0.00    +0.242 C 
ATOM     20  C   UNL     1      28.361  39.904  10.591  0.00  0.00    +0.096 C 
ATOM     21  O   UNL     1      29.316  37.946   9.589  0.00  0.00    -0.273 OA
ENDBRANCH  17  18
BRANCH  13  22
ATOM     22  C   UNL     1      32.347  41.687   4.849  0.00  0.00    +0.391 C 
ATOM     23  O   UNL     1      33.534  42.162   5.274  0.00  0.00    -0.243 OA
ATOM     24  O   UNL     1      31.320  41.852   4.006  0.00  0.00    -0.243 OA
ENDBRANCH  13  22
ENDBRANCH   9  11
ENDBRANCH   7   9
ENDBRANCH   6   7
ENDBRANCH   3   6
ENDBRANCH   1   2
BRANCH   1  25
ATOM     25  C   UNL     1      25.089  43.284   4.293  0.00  0.00    +0.240 C 
BRANCH  25  26
ATOM     26  C   UNL     1      24.304  43.149   5.612  0.00  0.00    +0.100 C 
BRANCH  26  28
ATOM     27  N   UNL     1      25.928  41.928   7.035  0.00  0.00    -0.134 NA
ATOM     28  C   UNL     1      24.745  41.953   6.356  0.00  0.00    +0.086 A 
ATOM     29  C   UNL     1      24.117  40.739   6.504  0.00  0.00    +0.139 A 
ATOM     30  N   UNL     1      24.967  39.991   7.284  0.00  0.00    -0.220 N 
ATOM     31  N   UNL     1      26.056  40.733   7.600  0.00  0.00    -0.061 NA
BRANCH  30  32
ATOM     32  C   UNL     1      24.805  38.659   7.735  0.00  0.00    +0.071 A 
ATOM     33  C   UNL     1      23.537  38.164   8.019  0.00  0.00    +0.063 A 
ATOM     34  CA  UNL     1      23.447  36.857   8.455  0.00  0.00    +0.150 A 
ATOM     35  N   UNL     1      24.509  36.020   8.634  0.00  0.00    -0.240 NA
ATOM     36  C   UNL     1      25.747  36.517   8.366  0.00  0.00    +0.074 A 
ATOM     37  C   UNL     1      25.921  37.826   7.904  0.00  0.00    +0.056 A 
BRANCH  36  38
ATOM     38  C   UNL     1      26.877  35.591   8.622  0.00  0.00    +0.000 A 
ATOM     39  C   UNL     1      27.954  35.458   7.723  0.00  0.00    +0.010 A 
ATOM     40  C   UNL     1      29.033  34.609   7.992  0.00  0.00    +0.001 A 
ATOM     41  C   UNL     1      29.063  33.869   9.170  0.00  0.00    +0.000 A 
ATOM     42  C   UNL     1      28.012  33.973  10.073  0.00  0.00    +0.001 A 
ATOM     43  C   UNL     1      26.933  34.822   9.800  0.00  0.00    +0.010 A 
ENDBRANCH  36  38
BRANCH  34  44
ATOM     44  C   UNL     1      22.107  36.283   8.773  0.00  0.00    +0.355 C 
ATOM     45  OXT UNL     1      21.047  36.844   8.557  0.00  0.00    -0.243 OA
BRANCH  44  46
ATOM     46  O   UNL     1      22.232  35.059   9.335  0.00  0.00    -0.476 OA
ATOM     47  H   UNL     1      23.158  34.943   9.648  0.00  0.00    +0.295 HD
ENDBRANCH  44  46
ENDBRANCH  34  44
ENDBRANCH  30  32
ENDBRANCH  26  28
ENDBRANCH  25  26
ENDBRANCH   1  25
TORSDOF 14
