REMARK VINA RESULT:    -5.768      2.340      3.155
REMARK INTER + INTRA:         -12.441
REMARK INTER:                 -10.969
REMARK INTRA:                  -1.472
REMARK UNBOUND:                -1.953
REMARK  Name = lig_assembled_13.pdb
REMARK  15 active torsions:
REMARK  status: ('A' for Active; 'I' for Inactive)
REMARK    1  A    between atoms: _2  and  _8
REMARK    2  A    between atoms: _4  and  _10
REMARK    3  A    between atoms: _5  and  _6
REMARK    4  A    between atoms: _5  and  _13
REMARK    5  A    between atoms: _8  and  _9
REMARK    6  A    between atoms: _9  and  _11
REMARK    7  A    between atoms: _10  and  _11
REMARK    8  A    between atoms: _13  and  _15
REMARK    9  A    between atoms: _14  and  _19
REMARK   10  A    between atoms: _15  and  _18
REMARK   11  A    between atoms: _23  and  _33
REMARK   12  A    between atoms: _25  and  _26
REMARK   13  A    between atoms: _27  and  _29
REMARK   14  A    between atoms: _29  and  _31
REMARK   15  A    between atoms: _31  and  _33
REMARK                            x       y       z     vdW  Elec       q    Type
REMARK                         _______ _______ _______ _____ _____    ______ ____
ROOT
ATOM      1  C   UNL     1      27.833  14.732  -1.426  0.00  0.00    +0.152 C 
ENDROOT
BRANCH   1   3
ATOM      2  C   UNL     1      26.390  16.233  -3.190  0.00  0.00    +0.400 C 
ATOM      3  N   UNL     1      27.314  15.810  -2.264  0.00  0.00    -0.278 N 
ATOM      4  H   UNL     1      27.900  16.686  -2.082  0.00  0.00    +0.152 HD
ATOM      5  O   UNL     1      26.323  17.435  -3.435  0.00  0.00    -0.226 OA
BRANCH   2   6
ATOM      6  O   UNL     1      25.690  15.300  -3.748  0.00  0.00    -0.450 OA
BRANCH   6   7
ATOM      7  C   UNL     1      24.476  14.613  -3.552  0.00  0.00    +0.240 C 
BRANCH   7   8
ATOM      8  C   UNL     1      23.666  14.950  -2.285  0.00  0.00    +0.100 C 
BRANCH   8  10
ATOM      9  N   UNL     1      24.582  13.159  -0.844  0.00  0.00    -0.134 NA
ATOM     10  C   UNL     1      23.505  13.750  -1.445  0.00  0.00    +0.086 A 
ATOM     11  C   UNL     1      22.369  13.043  -1.131  0.00  0.00    +0.134 A 
ATOM     12  N   UNL     1      22.830  11.994  -0.389  0.00  0.00    -0.241 N 
ATOM     13  N   UNL     1      24.153  12.093  -0.180  0.00  0.00    -0.065 NA
BRANCH  12  14
ATOM     14  C   UNL     1      22.071  10.931   0.230  0.00  0.00    +0.265 C 
BRANCH  14  15
ATOM     15  C   UNL     1      21.605  11.302   1.609  0.00  0.00    +0.329 C 
ATOM     16  O   UNL     1      21.138  12.378   1.955  0.00  0.00    -0.249 OA
BRANCH  15  17
ATOM     17  O   UNL     1      21.882  10.270   2.463  0.00  0.00    -0.464 OA
BRANCH  17  18
ATOM     18  C   UNL     1      23.073   9.530   2.148  0.00  0.00    +0.229 C 
ATOM     19  C   UNL     1      24.143   9.925   3.152  0.00  0.00    +0.048 C 
ENDBRANCH  17  18
ENDBRANCH  15  17
ENDBRANCH  14  15
ENDBRANCH  12  14
ENDBRANCH   8  10
ENDBRANCH   7   8
ENDBRANCH   6   7
ENDBRANCH   2   6
ENDBRANCH   1   3
BRANCH   1  20
ATOM     20  C   UNL     1      28.552  15.163  -0.131  0.00  0.00    +0.193 C 
ATOM     21  O   UNL     1      28.354  14.101   0.827  0.00  0.00    -0.219 OA
BRANCH  20  22
ATOM     22  C   UNL     1      30.084  15.348  -0.192  0.00  0.00    +0.212 C 
ATOM     23  O   UNL     1      30.445  16.682   0.201  0.00  0.00    -0.218 OA
BRANCH  22  24
ATOM     24  C   UNL     1      30.872  14.326   0.713  0.00  0.00    +0.171 C 
ATOM     25  O   UNL     1      31.165  14.850   2.005  0.00  0.00    -0.343 OA
ATOM     26  C   UNL     1      32.051  14.263   2.911  0.00  0.00    +0.220 C 
ATOM     27  C   UNL     1      33.408  13.948   2.259  0.00  0.00    +0.076 C 
ATOM     28  C   UNL     1      33.132  13.118   0.994  0.00  0.00    +0.177 C 
ATOM     29  O   UNL     1      34.360  12.764   0.373  0.00  0.00    -0.221 OA
ATOM     30  C   UNL     1      32.212  13.915   0.019  0.00  0.00    +0.155 C 
BRANCH  30  31
ATOM     31  N   UNL     1      31.953  13.133  -1.187  0.00  0.00    -0.202 NA
ATOM     32  C   UNL     1      32.456  13.277  -2.440  0.00  0.00    +0.242 C 
ATOM     33  C   UNL     1      32.251  12.157  -3.427  0.00  0.00    +0.096 C 
ATOM     34  O   UNL     1      33.061  14.306  -2.737  0.00  0.00    -0.273 OA
ENDBRANCH  30  31
BRANCH  26  35
ATOM     35  C   UNL     1      31.436  12.964   3.668  0.00  0.00    +0.391 C 
ATOM     36  O   UNL     1      32.471  12.438   4.353  0.00  0.00    -0.243 OA
ATOM     37  O   UNL     1      30.105  13.077   3.576  0.00  0.00    -0.243 OA
ENDBRANCH  26  35
ENDBRANCH  22  24
ENDBRANCH  20  22
ENDBRANCH   1  20
TORSDOF 14
