REMARK VINA RESULT:    -6.392      2.271      3.241
REMARK INTER + INTRA:         -13.533
REMARK INTER:                 -11.567
REMARK INTRA:                  -1.966
REMARK UNBOUND:                -2.657
REMARK  Name = lig_assembled_46.pdb
REMARK  12 active torsions:
REMARK  status: ('A' for Active; 'I' for Inactive)
REMARK    1  A    between atoms: _2  and  _8
REMARK    2  A    between atoms: _5  and  _6
REMARK    3  A    between atoms: _5  and  _14
REMARK    4  A    between atoms: _8  and  _9
REMARK    5  A    between atoms: _14  and  _16
REMARK    6  A    between atoms: _15  and  _20
REMARK    7  A    between atoms: _16  and  _19
REMARK    8  A    between atoms: _24  and  _34
REMARK    9  A    between atoms: _26  and  _27
REMARK   10  A    between atoms: _28  and  _30
REMARK   11  A    between atoms: _30  and  _32
REMARK   12  A    between atoms: _32  and  _34
REMARK                            x       y       z     vdW  Elec       q    Type
REMARK                         _______ _______ _______ _____ _____    ______ ____
ROOT
ATOM      1  C   UNL     1      28.309  17.641  -0.474  0.00  0.00    +0.400 C 
ATOM      2  N   UNL     1      29.427  17.532   0.319  0.00  0.00    -0.278 N 
ATOM      3  H   UNL     1      29.323  18.344   1.006  0.00  0.00    +0.152 HD
ATOM      4  O   UNL     1      27.436  18.438  -0.139  0.00  0.00    -0.226 OA
ENDROOT
BRANCH   2   5
ATOM      5  C   UNL     1      30.655  16.812   0.647  0.00  0.00    +0.152 C 
BRANCH   5   6
ATOM      6  C   UNL     1      30.765  15.373   0.101  0.00  0.00    +0.193 C 
ATOM      7  O   UNL     1      31.864  15.368  -0.836  0.00  0.00    -0.219 OA
BRANCH   6   8
ATOM      8  C   UNL     1      31.110  14.252   1.106  0.00  0.00    +0.212 C 
ATOM      9  O   UNL     1      31.578  14.813   2.343  0.00  0.00    -0.218 OA
BRANCH   8  10
ATOM     10  C   UNL     1      29.896  13.295   1.414  0.00  0.00    +0.171 C 
ATOM     11  O   UNL     1      29.791  12.971   2.797  0.00  0.00    -0.343 OA
ATOM     12  C   UNL     1      28.971  11.964   3.310  0.00  0.00    +0.220 C 
ATOM     13  C   UNL     1      29.175  10.630   2.572  0.00  0.00    +0.076 C 
ATOM     14  C   UNL     1      29.002  10.902   1.068  0.00  0.00    +0.177 C 
ATOM     15  O   UNL     1      29.142   9.690   0.340  0.00  0.00    -0.221 OA
ATOM     16  C   UNL     1      30.035  11.971   0.593  0.00  0.00    +0.155 C 
BRANCH  16  17
ATOM     17  N   UNL     1      29.878  12.227  -0.836  0.00  0.00    -0.202 NA
ATOM     18  C   UNL     1      30.788  12.134  -1.839  0.00  0.00    +0.242 C 
ATOM     19  C   UNL     1      30.292  12.168  -3.261  0.00  0.00    +0.096 C 
ATOM     20  O   UNL     1      31.982  12.024  -1.568  0.00  0.00    -0.273 OA
ENDBRANCH  16  17
BRANCH  12  21
ATOM     21  C   UNL     1      27.401  12.377   3.373  0.00  0.00    +0.391 C 
ATOM     22  O   UNL     1      26.732  11.209   3.325  0.00  0.00    -0.243 OA
ATOM     23  O   UNL     1      27.372  13.663   3.746  0.00  0.00    -0.243 OA
ENDBRANCH  12  21
ENDBRANCH   8  10
ENDBRANCH   6   8
ENDBRANCH   5   6
ENDBRANCH   2   5
BRANCH   1  24
ATOM     24  O   UNL     1      28.301  16.902  -1.535  0.00  0.00    -0.450 OA
BRANCH  24  25
ATOM     25  C   UNL     1      27.408  16.097  -2.269  0.00  0.00    +0.240 C 
BRANCH  25  26
ATOM     26  C   UNL     1      27.302  14.612  -1.876  0.00  0.00    +0.100 C 
BRANCH  26  28
ATOM     27  N   UNL     1      26.315  13.003  -3.479  0.00  0.00    -0.134 NA
ATOM     28  C   UNL     1      26.143  13.986  -2.541  0.00  0.00    +0.086 A 
ATOM     29  C   UNL     1      24.795  14.197  -2.353  0.00  0.00    +0.134 A 
ATOM     30  N   UNL     1      24.199  13.273  -3.163  0.00  0.00    -0.247 N 
ATOM     31  N   UNL     1      25.119  12.566  -3.848  0.00  0.00    -0.065 NA
BRANCH  30  32
ATOM     32  C   UNL     1      22.810  12.845  -3.145  0.00  0.00    +0.180 C 
BRANCH  32  33
ATOM     33  C   UNL     1      22.244  12.676  -1.757  0.00  0.00    -0.026 A 
ATOM     34  C   UNL     1      21.211  13.505  -1.293  0.00  0.00    +0.005 A 
ATOM     35  C   UNL     1      20.628  13.279  -0.043  0.00  0.00    +0.000 A 
ATOM     36  C   UNL     1      21.069  12.224   0.754  0.00  0.00    +0.000 A 
ATOM     37  C   UNL     1      22.100  11.400   0.309  0.00  0.00    +0.000 A 
ATOM     38  C   UNL     1      22.684  11.623  -0.940  0.00  0.00    +0.005 A 
ENDBRANCH  32  33
ENDBRANCH  30  32
ENDBRANCH  26  28
ENDBRANCH  25  26
ENDBRANCH  24  25
ENDBRANCH   1  24
TORSDOF 12
