REMARK VINA RESULT:    -5.677      3.624      5.401
REMARK INTER + INTRA:         -12.861
REMARK INTER:                 -10.899
REMARK INTRA:                  -1.961
REMARK UNBOUND:                -3.035
REMARK  Name = lig_assembled_22.pdb
REMARK  15 active torsions:
REMARK  status: ('A' for Active; 'I' for Inactive)
REMARK    1  A    between atoms: _2  and  _8
REMARK    2  A    between atoms: _4  and  _8
REMARK    3  A    between atoms: _4  and  _11
REMARK    4  A    between atoms: _5  and  _6
REMARK    5  A    between atoms: _5  and  _13
REMARK    6  A    between atoms: _8  and  _9
REMARK    7  A    between atoms: _8  and  _10
REMARK    8  A    between atoms: _13  and  _15
REMARK    9  A    between atoms: _14  and  _19
REMARK   10  A    between atoms: _15  and  _18
REMARK   11  A    between atoms: _23  and  _33
REMARK   12  A    between atoms: _25  and  _26
REMARK   13  A    between atoms: _27  and  _29
REMARK   14  A    between atoms: _29  and  _31
REMARK   15  A    between atoms: _31  and  _33
REMARK                            x       y       z     vdW  Elec       q    Type
REMARK                         _______ _______ _______ _____ _____    ______ ____
ROOT
ATOM      1  C   UNL     1      26.163  16.269  -3.601  0.00  0.00    +0.400 C 
ATOM      2  N   UNL     1      27.125  16.929  -2.873  0.00  0.00    -0.278 N 
ATOM      3  H   UNL     1      27.903  17.096  -3.587  0.00  0.00    +0.152 HD
ATOM      4  O   UNL     1      26.306  16.197  -4.819  0.00  0.00    -0.226 OA
ENDROOT
BRANCH   1   5
ATOM      5  O   UNL     1      25.197  15.753  -2.915  0.00  0.00    -0.450 OA
BRANCH   5   6
ATOM      6  C   UNL     1      24.127  14.853  -3.085  0.00  0.00    +0.240 C 
BRANCH   6   7
ATOM      7  C   UNL     1      23.146  14.684  -1.909  0.00  0.00    +0.100 C 
BRANCH   7   9
ATOM      8  N   UNL     1      24.724  13.005  -1.022  0.00  0.00    -0.134 NA
ATOM      9  C   UNL     1      23.436  13.438  -1.176  0.00  0.00    +0.086 A 
ATOM     10  C   UNL     1      22.586  12.545  -0.562  0.00  0.00    +0.135 A 
ATOM     11  N   UNL     1      23.415  11.587  -0.051  0.00  0.00    -0.235 N 
ATOM     12  N   UNL     1      24.700  11.873  -0.337  0.00  0.00    -0.064 NA
BRANCH  11  13
ATOM     13  C   UNL     1      23.083  10.370   0.694  0.00  0.00    +0.155 C 
ATOM     14  C   UNL     1      24.239   9.347   0.684  0.00  0.00    +0.048 C 
ATOM     15  C   UNL     1      21.848   9.716   0.044  0.00  0.00    +0.048 C 
BRANCH  13  16
ATOM     16  C   UNL     1      22.777  10.709   2.155  0.00  0.00    +0.332 C 
ATOM     17  O   UNL     1      21.762  10.357   2.744  0.00  0.00    -0.248 OA
BRANCH  16  18
ATOM     18  O   UNL     1      23.722  11.442   2.790  0.00  0.00    -0.479 OA
ATOM     19  H   UNL     1      24.584  11.529   2.336  0.00  0.00    +0.295 HD
ENDBRANCH  16  18
ENDBRANCH  13  16
ENDBRANCH  11  13
ENDBRANCH   7   9
ENDBRANCH   6   7
ENDBRANCH   5   6
ENDBRANCH   1   5
BRANCH   2  20
ATOM     20  C   UNL     1      27.545  17.502  -1.597  0.00  0.00    +0.152 C 
BRANCH  20  21
ATOM     21  C   UNL     1      28.777  16.854  -0.934  0.00  0.00    +0.193 C 
ATOM     22  O   UNL     1      29.198  17.747   0.121  0.00  0.00    -0.219 OA
BRANCH  21  23
ATOM     23  C   UNL     1      28.579  15.493  -0.231  0.00  0.00    +0.212 C 
ATOM     24  O   UNL     1      27.682  14.664  -0.987  0.00  0.00    -0.218 OA
BRANCH  23  25
ATOM     25  C   UNL     1      29.925  14.705  -0.005  0.00  0.00    +0.171 C 
ATOM     26  O   UNL     1      30.668  14.534  -1.207  0.00  0.00    -0.343 OA
ATOM     27  C   UNL     1      31.762  13.676  -1.343  0.00  0.00    +0.220 C 
ATOM     28  C   UNL     1      31.443  12.260  -0.831  0.00  0.00    +0.076 C 
ATOM     29  C   UNL     1      30.900  12.397   0.601  0.00  0.00    +0.177 C 
ATOM     30  O   UNL     1      30.626  11.110   1.137  0.00  0.00    -0.221 OA
ATOM     31  C   UNL     1      29.627  13.298   0.610  0.00  0.00    +0.155 C 
BRANCH  31  32
ATOM     32  N   UNL     1      29.104  13.425   1.968  0.00  0.00    -0.202 NA
ATOM     33  C   UNL     1      27.926  12.997   2.488  0.00  0.00    +0.242 C 
ATOM     34  C   UNL     1      27.763  12.995   3.986  0.00  0.00    +0.096 C 
ATOM     35  O   UNL     1      27.029  12.623   1.734  0.00  0.00    -0.273 OA
ENDBRANCH  31  32
BRANCH  27  36
ATOM     36  C   UNL     1      33.126  14.257  -0.679  0.00  0.00    +0.391 C 
ATOM     37  O   UNL     1      33.686  13.202  -0.055  0.00  0.00    -0.243 OA
ATOM     38  O   UNL     1      33.331  15.454  -1.242  0.00  0.00    -0.243 OA
ENDBRANCH  27  36
ENDBRANCH  23  25
ENDBRANCH  21  23
ENDBRANCH  20  21
ENDBRANCH   2  20
TORSDOF 13
