REMARK VINA RESULT:    -6.290      3.721     10.903
REMARK INTER + INTRA:         -15.244
REMARK INTER:                 -13.184
REMARK INTRA:                  -2.061
REMARK UNBOUND:                -3.439
REMARK  Name = lig_assembled_84.pdb
REMARK  16 active torsions:
REMARK  status: ('A' for Active; 'I' for Inactive)
REMARK    1  A    between atoms: _2  and  _10
REMARK    2  A    between atoms: _3  and  _13
REMARK    3  A    between atoms: _4  and  _16
REMARK    4  A    between atoms: _7  and  _8
REMARK    5  A    between atoms: _7  and  _23
REMARK    6  A    between atoms: _10  and  _11
REMARK    7  A    between atoms: _11  and  _12
REMARK    8  A    between atoms: _11  and  _13
REMARK    9  A    between atoms: _23  and  _25
REMARK   10  A    between atoms: _24  and  _29
REMARK   11  A    between atoms: _25  and  _28
REMARK   12  A    between atoms: _33  and  _43
REMARK   13  A    between atoms: _35  and  _36
REMARK   14  A    between atoms: _37  and  _39
REMARK   15  A    between atoms: _39  and  _41
REMARK   16  A    between atoms: _41  and  _43
REMARK                            x       y       z     vdW  Elec       q    Type
REMARK                         _______ _______ _______ _____ _____    ______ ____
ROOT
ATOM      1  C   UNL     1      27.868  14.221  -1.839  0.00  0.00    +0.240 C 
ENDROOT
BRANCH   1   2
ATOM      2  C   UNL     1      28.621  13.819  -0.556  0.00  0.00    +0.100 C 
BRANCH   2   4
ATOM      3  N   UNL     1      30.281  15.647  -0.342  0.00  0.00    -0.134 NA
ATOM      4  C   UNL     1      30.006  14.327  -0.582  0.00  0.00    +0.086 A 
ATOM      5  C   UNL     1      31.182  13.666  -0.861  0.00  0.00    +0.133 A 
ATOM      6  N   UNL     1      32.124  14.650  -0.840  0.00  0.00    -0.251 N 
ATOM      7  N   UNL     1      31.585  15.834  -0.505  0.00  0.00    -0.065 NA
BRANCH   6   8
ATOM      8  C   UNL     1      33.509  14.559  -1.258  0.00  0.00    +0.149 C 
BRANCH   8   9
ATOM      9  C   UNL     1      34.349  13.553  -0.454  0.00  0.00    +0.021 C 
ATOM     10  C   UNL     1      35.796  13.499  -0.967  0.00  0.00    +0.010 C 
BRANCH   9  11
ATOM     11  C   UNL     1      34.368  13.912   1.052  0.00  0.00    +0.089 C 
BRANCH  11  12
ATOM     12  N   UNL     1      33.520  13.079   1.915  0.00  0.00    -0.299 NA
ATOM     13  C   UNL     1      32.635  13.940   2.744  0.00  0.00    +0.103 C 
ATOM     14  C   UNL     1      31.667  13.104   3.605  0.00  0.00    +0.120 C 
ATOM     15  N   UNL     1      32.432  12.201   4.473  0.00  0.00    -0.327 N 
ATOM     16  C   UNL     1      33.386  11.339   3.759  0.00  0.00    +0.120 C 
ATOM     17  C   UNL     1      34.291  12.197   2.829  0.00  0.00    +0.103 C 
BRANCH  15  18
ATOM     18  C   UNL     1      32.233  12.131   5.832  0.00  0.00    +0.030 A 
ATOM     19  C   UNL     1      30.970  11.817   6.371  0.00  0.00    +0.024 A 
ATOM     20  C   UNL     1      30.741  11.765   7.749  0.00  0.00    +0.022 A 
ATOM     21  C   UNL     1      31.782  12.020   8.626  0.00  0.00    +0.041 A 
ATOM     22 CL   UNL     1      31.507  11.964  10.324  0.00  0.00    -0.084 Cl
ATOM     23  C   UNL     1      33.045  12.332   8.136  0.00  0.00    +0.022 A 
ATOM     24  C   UNL     1      33.260  12.387   6.752  0.00  0.00    +0.024 A 
ENDBRANCH  15  18
ENDBRANCH  11  12
ENDBRANCH   9  11
ENDBRANCH   8   9
ENDBRANCH   6   8
ENDBRANCH   2   4
ENDBRANCH   1   2
BRANCH   1  25
ATOM     25  O   UNL     1      27.119  15.414  -1.806  0.00  0.00    -0.450 OA
BRANCH  25  26
ATOM     26  C   UNL     1      27.007  16.519  -2.467  0.00  0.00    +0.400 C 
ATOM     27  N   UNL     1      26.437  16.412  -3.714  0.00  0.00    -0.278 N 
ATOM     28  H   UNL     1      26.260  17.428  -3.993  0.00  0.00    +0.152 HD
ATOM     29  O   UNL     1      27.331  17.636  -2.073  0.00  0.00    -0.226 OA
BRANCH  27  30
ATOM     30  C   UNL     1      25.988  15.554  -4.807  0.00  0.00    +0.152 C 
BRANCH  30  31
ATOM     31  C   UNL     1      24.675  14.780  -4.569  0.00  0.00    +0.193 C 
ATOM     32  O   UNL     1      25.005  13.375  -4.628  0.00  0.00    -0.219 OA
BRANCH  31  33
ATOM     33  C   UNL     1      23.980  14.956  -3.201  0.00  0.00    +0.212 C 
ATOM     34  O   UNL     1      23.526  16.309  -3.039  0.00  0.00    -0.218 OA
BRANCH  33  35
ATOM     35  C   UNL     1      22.754  13.986  -2.995  0.00  0.00    +0.171 C 
ATOM     36  O   UNL     1      21.554  14.489  -3.572  0.00  0.00    -0.343 OA
ATOM     37  C   UNL     1      20.283  13.961  -3.333  0.00  0.00    +0.220 C 
ATOM     38  C   UNL     1      20.003  13.808  -1.827  0.00  0.00    +0.076 C 
ATOM     39  C   UNL     1      21.164  13.002  -1.221  0.00  0.00    +0.177 C 
ATOM     40  O   UNL     1      20.934  12.796   0.166  0.00  0.00    -0.221 OA
ATOM     41  C   UNL     1      22.517  13.737  -1.469  0.00  0.00    +0.155 C 
BRANCH  41  42
ATOM     42  N   UNL     1      23.621  12.978  -0.888  0.00  0.00    -0.202 NA
ATOM     43  C   UNL     1      24.187  11.815  -1.302  0.00  0.00    +0.242 C 
ATOM     44  C   UNL     1      25.501  11.402  -0.692  0.00  0.00    +0.096 C 
ATOM     45  O   UNL     1      23.621  11.134  -2.155  0.00  0.00    -0.273 OA
ENDBRANCH  41  42
BRANCH  37  46
ATOM     46  C   UNL     1      19.993  12.580  -4.137  0.00  0.00    +0.391 C 
ATOM     47  O   UNL     1      18.808  12.146  -3.667  0.00  0.00    -0.243 OA
ATOM     48  O   UNL     1      20.866  12.553  -5.152  0.00  0.00    -0.243 OA
ENDBRANCH  37  46
ENDBRANCH  33  35
ENDBRANCH  31  33
ENDBRANCH  30  31
ENDBRANCH  27  30
ENDBRANCH  25  26
ENDBRANCH   1  25
TORSDOF 15
