REMARK VINA RESULT:    -6.976      3.734      8.143
REMARK INTER + INTRA:         -13.296
REMARK INTER:                 -11.083
REMARK INTRA:                  -2.213
REMARK UNBOUND:                -1.427
REMARK  Name = lig_assembled_6.pdb
REMARK  12 active torsions:
REMARK  status: ('A' for Active; 'I' for Inactive)
REMARK    1  A    between atoms: _2  and  _9
REMARK    2  A    between atoms: _3  and  _12
REMARK    3  A    between atoms: _6  and  _7
REMARK    4  A    between atoms: _6  and  _16
REMARK    5  A    between atoms: _16  and  _18
REMARK    6  A    between atoms: _17  and  _22
REMARK    7  A    between atoms: _18  and  _21
REMARK    8  A    between atoms: _26  and  _36
REMARK    9  A    between atoms: _28  and  _29
REMARK   10  A    between atoms: _30  and  _32
REMARK   11  A    between atoms: _32  and  _34
REMARK   12  A    between atoms: _34  and  _36
REMARK                            x       y       z     vdW  Elec       q    Type
REMARK                         _______ _______ _______ _____ _____    ______ ____
ROOT
ATOM      1  C   UNL     1      27.789  17.666  -1.362  0.00  0.00    +0.400 C 
ATOM      2  N   UNL     1      26.879  16.862  -2.007  0.00  0.00    -0.278 N 
ATOM      3  H   UNL     1      25.987  17.451  -2.010  0.00  0.00    +0.152 HD
ATOM      4  O   UNL     1      27.471  18.830  -1.130  0.00  0.00    -0.226 OA
ENDROOT
BRANCH   2   5
ATOM      5  C   UNL     1      26.596  15.600  -2.685  0.00  0.00    +0.152 C 
BRANCH   5   6
ATOM      6  C   UNL     1      25.669  15.683  -3.916  0.00  0.00    +0.193 C 
ATOM      7  O   UNL     1      26.525  15.821  -5.071  0.00  0.00    -0.219 OA
BRANCH   6   8
ATOM      8  C   UNL     1      24.789  14.454  -4.233  0.00  0.00    +0.212 C 
ATOM      9  O   UNL     1      25.559  13.445  -4.905  0.00  0.00    -0.218 OA
BRANCH   8  10
ATOM     10  C   UNL     1      24.127  13.813  -2.953  0.00  0.00    +0.171 C 
ATOM     11  O   UNL     1      24.698  12.554  -2.614  0.00  0.00    -0.343 OA
ATOM     12  C   UNL     1      24.150  11.664  -1.687  0.00  0.00    +0.220 C 
ATOM     13  C   UNL     1      22.660  11.399  -1.964  0.00  0.00    +0.076 C 
ATOM     14  C   UNL     1      21.955  12.763  -2.047  0.00  0.00    +0.177 C 
ATOM     15  O   UNL     1      20.563  12.573  -2.263  0.00  0.00    -0.221 OA
ATOM     16  C   UNL     1      22.591  13.628  -3.179  0.00  0.00    +0.155 C 
BRANCH  16  17
ATOM     17  N   UNL     1      21.919  14.922  -3.266  0.00  0.00    -0.202 NA
ATOM     18  C   UNL     1      21.202  15.461  -4.285  0.00  0.00    +0.242 C 
ATOM     19  C   UNL     1      20.370  16.685  -4.005  0.00  0.00    +0.096 C 
ATOM     20  O   UNL     1      21.246  14.943  -5.399  0.00  0.00    -0.273 OA
ENDBRANCH  16  17
BRANCH  12  21
ATOM     21  C   UNL     1      24.402  12.102  -0.143  0.00  0.00    +0.391 C 
ATOM     22  O   UNL     1      23.553  11.342   0.576  0.00  0.00    -0.243 OA
ATOM     23  O   UNL     1      25.538  12.810  -0.140  0.00  0.00    -0.243 OA
ENDBRANCH  12  21
ENDBRANCH   8  10
ENDBRANCH   6   8
ENDBRANCH   5   6
ENDBRANCH   2   5
BRANCH   1  24
ATOM     24  O   UNL     1      28.902  17.098  -1.029  0.00  0.00    -0.450 OA
BRANCH  24  25
ATOM     25  C   UNL     1      29.956  17.270  -0.111  0.00  0.00    +0.240 C 
BRANCH  25  26
ATOM     26  C   UNL     1      30.981  16.127   0.016  0.00  0.00    +0.100 C 
BRANCH  26  28
ATOM     27  N   UNL     1      30.901  14.724   2.054  0.00  0.00    -0.134 NA
ATOM     28  C   UNL     1      30.420  15.020   0.811  0.00  0.00    +0.086 A 
ATOM     29  C   UNL     1      29.397  14.151   0.507  0.00  0.00    +0.139 A 
ATOM     30  N   UNL     1      29.265  13.354   1.621  0.00  0.00    -0.220 N 
ATOM     31  N   UNL     1      30.200  13.707   2.536  0.00  0.00    -0.061 NA
BRANCH  30  32
ATOM     32  C   UNL     1      28.308  12.335   1.876  0.00  0.00    +0.067 A 
ATOM     33  C   UNL     1      27.267  12.545   2.794  0.00  0.00    +0.034 A 
ATOM     34  C   UNL     1      26.368  11.513   3.083  0.00  0.00    +0.086 A 
ATOM     35  C   UNL     1      26.506  10.271   2.451  0.00  0.00    +0.273 A 
ATOM     36  C   UNL     1      27.525  10.061   1.514  0.00  0.00    +0.086 A 
ATOM     37  C   UNL     1      28.423  11.095   1.226  0.00  0.00    +0.034 A 
BRANCH  35  38
ATOM     38  N   UNL     1      25.585   9.179   2.790  0.00  0.00    +0.080 N 
ATOM     39  O   UNL     1      25.476   8.869   3.985  0.00  0.00    +0.041 OA
ATOM     40  O   UNL     1      24.978   8.627   1.863  0.00  0.00    -0.576 OA
ENDBRANCH  35  38
ENDBRANCH  30  32
ENDBRANCH  26  28
ENDBRANCH  25  26
ENDBRANCH  24  25
ENDBRANCH   1  24
TORSDOF 12
