REMARK VINA RESULT:    -7.020      2.067      3.470
REMARK INTER + INTRA:         -14.881
REMARK INTER:                 -12.676
REMARK INTRA:                  -2.204
REMARK UNBOUND:                -2.115
REMARK  Name = lig_assembled_26.pdb
REMARK  15 active torsions:
REMARK  status: ('A' for Active; 'I' for Inactive)
REMARK    1  A    between atoms: _2  and  _8
REMARK    2  A    between atoms: _5  and  _6
REMARK    3  A    between atoms: _5  and  _18
REMARK    4  A    between atoms: _8  and  _9
REMARK    5  A    between atoms: _8  and  _10
REMARK    6  A    between atoms: _10  and  _11
REMARK    7  A    between atoms: _11  and  _12
REMARK    8  A    between atoms: _18  and  _20
REMARK    9  A    between atoms: _19  and  _24
REMARK   10  A    between atoms: _20  and  _23
REMARK   11  A    between atoms: _28  and  _38
REMARK   12  A    between atoms: _30  and  _31
REMARK   13  A    between atoms: _32  and  _34
REMARK   14  A    between atoms: _34  and  _36
REMARK   15  A    between atoms: _36  and  _38
REMARK                            x       y       z     vdW  Elec       q    Type
REMARK                         _______ _______ _______ _____ _____    ______ ____
ROOT
ATOM      1  C   UNL     1      28.969  15.926  -0.288  0.00  0.00    +0.400 C 
ATOM      2  N   UNL     1      30.226  16.065   0.252  0.00  0.00    -0.278 N 
ATOM      3  H   UNL     1      30.649  16.869  -0.311  0.00  0.00    +0.152 HD
ATOM      4  O   UNL     1      28.579  16.785  -1.075  0.00  0.00    -0.226 OA
ENDROOT
BRANCH   2   5
ATOM      5  C   UNL     1      31.213  15.626   1.234  0.00  0.00    +0.152 C 
BRANCH   5   6
ATOM      6  C   UNL     1      32.009  14.354   0.877  0.00  0.00    +0.193 C 
ATOM      7  O   UNL     1      31.132  13.232   1.123  0.00  0.00    -0.219 OA
BRANCH   6   8
ATOM      8  C   UNL     1      32.456  14.178  -0.591  0.00  0.00    +0.212 C 
ATOM      9  O   UNL     1      32.785  15.451  -1.171  0.00  0.00    -0.218 OA
BRANCH   8  10
ATOM     10  C   UNL     1      33.691  13.214  -0.757  0.00  0.00    +0.171 C 
ATOM     11  O   UNL     1      34.715  13.465   0.201  0.00  0.00    -0.343 OA
ATOM     12  C   UNL     1      36.004  12.933   0.134  0.00  0.00    +0.220 C 
ATOM     13  C   UNL     1      36.644  13.158  -1.247  0.00  0.00    +0.076 C 
ATOM     14  C   UNL     1      35.666  12.619  -2.303  0.00  0.00    +0.177 C 
ATOM     15  O   UNL     1      36.228  12.766  -3.600  0.00  0.00    -0.221 OA
ATOM     16  C   UNL     1      34.295  13.356  -2.192  0.00  0.00    +0.155 C 
BRANCH  16  17
ATOM     17  N   UNL     1      33.365  12.851  -3.199  0.00  0.00    -0.202 NA
ATOM     18  C   UNL     1      33.043  13.360  -4.415  0.00  0.00    +0.242 C 
ATOM     19  C   UNL     1      32.278  12.487  -5.376  0.00  0.00    +0.096 C 
ATOM     20  O   UNL     1      33.379  14.507  -4.702  0.00  0.00    -0.273 OA
ENDBRANCH  16  17
BRANCH  12  21
ATOM     21  C   UNL     1      36.084  11.373   0.582  0.00  0.00    +0.391 C 
ATOM     22  O   UNL     1      37.353  11.001   0.323  0.00  0.00    -0.243 OA
ATOM     23  O   UNL     1      34.980  11.138   1.301  0.00  0.00    -0.243 OA
ENDBRANCH  12  21
ENDBRANCH   8  10
ENDBRANCH   6   8
ENDBRANCH   5   6
ENDBRANCH   2   5
BRANCH   1  24
ATOM     24  O   UNL     1      28.319  14.868   0.070  0.00  0.00    -0.450 OA
BRANCH  24  25
ATOM     25  C   UNL     1      28.015  13.583  -0.421  0.00  0.00    +0.240 C 
BRANCH  25  26
ATOM     26  C   UNL     1      28.458  13.249  -1.859  0.00  0.00    +0.100 C 
BRANCH  26  28
ATOM     27  N   UNL     1      27.374  13.067  -4.083  0.00  0.00    -0.134 NA
ATOM     28  C   UNL     1      27.392  13.589  -2.817  0.00  0.00    +0.086 A 
ATOM     29  C   UNL     1      26.302  14.411  -2.653  0.00  0.00    +0.134 A 
ATOM     30  N   UNL     1      25.670  14.375  -3.860  0.00  0.00    -0.248 N 
ATOM     31  N   UNL     1      26.304  13.541  -4.710  0.00  0.00    -0.065 NA
BRANCH  30  32
ATOM     32  C   UNL     1      24.438  15.025  -4.279  0.00  0.00    +0.113 C 
ATOM     33  C   UNL     1      23.511  14.140  -5.125  0.00  0.00    +0.033 C 
BRANCH  32  34
ATOM     34  C   UNL     1      23.685  15.684  -3.110  0.00  0.00    +0.106 C 
BRANCH  34  35
ATOM     35  C   UNL     1      22.290  15.131  -2.883  0.00  0.00    +0.165 C 
ATOM     36  O   UNL     1      21.309  15.551  -3.495  0.00  0.00    -0.292 OA
BRANCH  35  37
ATOM     37  C   UNL     1      22.096  14.069  -1.853  0.00  0.00    +0.017 A 
ATOM     38  C   UNL     1      23.134  13.228  -1.434  0.00  0.00    +0.011 A 
ATOM     39  C   UNL     1      22.906  12.278  -0.436  0.00  0.00    +0.001 A 
ATOM     40  C   UNL     1      21.642  12.158   0.143  0.00  0.00    +0.000 A 
ATOM     41  C   UNL     1      20.602  12.982  -0.276  0.00  0.00    +0.001 A 
ATOM     42  C   UNL     1      20.826  13.935  -1.270  0.00  0.00    +0.011 A 
ENDBRANCH  35  37
ENDBRANCH  34  35
ENDBRANCH  32  34
ENDBRANCH  30  32
ENDBRANCH  26  28
ENDBRANCH  25  26
ENDBRANCH  24  25
ENDBRANCH   1  24
TORSDOF 14
