REMARK VINA RESULT:    -6.756      1.149      1.466
REMARK INTER + INTRA:         -12.790
REMARK INTER:                 -11.905
REMARK INTRA:                  -0.885
REMARK UNBOUND:                -1.689
REMARK  Name = lig_assembled_49.pdb
REMARK  11 active torsions:
REMARK  status: ('A' for Active; 'I' for Inactive)
REMARK    1  A    between atoms: _2  and  _8
REMARK    2  A    between atoms: _5  and  _6
REMARK    3  A    between atoms: _5  and  _12
REMARK    4  A    between atoms: _12  and  _14
REMARK    5  A    between atoms: _13  and  _18
REMARK    6  A    between atoms: _14  and  _17
REMARK    7  A    between atoms: _22  and  _32
REMARK    8  A    between atoms: _24  and  _25
REMARK    9  A    between atoms: _26  and  _28
REMARK   10  A    between atoms: _28  and  _30
REMARK   11  A    between atoms: _30  and  _32
REMARK                            x       y       z     vdW  Elec       q    Type
REMARK                         _______ _______ _______ _____ _____    ______ ____
ROOT
ATOM      1  C   UNL     1      28.988  15.179   0.065  0.00  0.00    +0.152 C 
ENDROOT
BRANCH   1   3
ATOM      2  C   UNL     1      27.823  17.410  -0.989  0.00  0.00    +0.400 C 
ATOM      3  N   UNL     1      28.468  16.526  -0.156  0.00  0.00    -0.278 N 
ATOM      4  H   UNL     1      28.652  17.104   0.723  0.00  0.00    +0.152 HD
ATOM      5  O   UNL     1      27.466  18.489  -0.523  0.00  0.00    -0.226 OA
BRANCH   2   6
ATOM      6  O   UNL     1      27.680  17.024  -2.214  0.00  0.00    -0.450 OA
BRANCH   6   7
ATOM      7  C   UNL     1      26.975  17.394  -3.376  0.00  0.00    +0.240 C 
BRANCH   7   8
ATOM      8  C   UNL     1      26.292  16.272  -4.181  0.00  0.00    +0.100 C 
BRANCH   8  10
ATOM      9  N   UNL     1      25.990  14.237  -2.809  0.00  0.00    -0.134 NA
ATOM     10  C   UNL     1      25.487  15.416  -3.290  0.00  0.00    +0.086 A 
ATOM     11  C   UNL     1      24.209  15.590  -2.810  0.00  0.00    +0.134 A 
ATOM     12  N   UNL     1      23.989  14.479  -2.049  0.00  0.00    -0.248 N 
ATOM     13  N   UNL     1      25.062  13.670  -2.049  0.00  0.00    -0.065 NA
BRANCH  12  14
ATOM     14  C   UNL     1      22.789  14.127  -1.328  0.00  0.00    +0.109 C 
ATOM     15  C   UNL     1      21.497  14.480  -2.067  0.00  0.00    +0.027 C 
ATOM     16  C   UNL     1      20.456  13.638  -1.349  0.00  0.00    +0.002 C 
ATOM     17  C   UNL     1      21.160  12.314  -1.089  0.00  0.00    +0.002 C 
ATOM     18  C   UNL     1      22.656  12.631  -1.009  0.00  0.00    +0.027 C 
ENDBRANCH  12  14
ENDBRANCH   8  10
ENDBRANCH   7   8
ENDBRANCH   6   7
ENDBRANCH   2   6
ENDBRANCH   1   3
BRANCH   1  19
ATOM     19  C   UNL     1      30.399  15.089   0.681  0.00  0.00    +0.193 C 
ATOM     20  O   UNL     1      30.855  16.446   0.875  0.00  0.00    -0.219 OA
BRANCH  19  21
ATOM     21  C   UNL     1      30.531  14.435   2.074  0.00  0.00    +0.212 C 
ATOM     22  O   UNL     1      29.456  13.508   2.297  0.00  0.00    -0.218 OA
BRANCH  21  23
ATOM     23  C   UNL     1      31.899  13.680   2.282  0.00  0.00    +0.171 C 
ATOM     24  O   UNL     1      32.792  14.390   3.134  0.00  0.00    -0.343 OA
ATOM     25  C   UNL     1      34.145  14.078   3.293  0.00  0.00    +0.220 C 
ATOM     26  C   UNL     1      34.862  13.941   1.938  0.00  0.00    +0.076 C 
ATOM     27  C   UNL     1      34.061  12.938   1.091  0.00  0.00    +0.177 C 
ATOM     28  O   UNL     1      34.705  12.743  -0.161  0.00  0.00    -0.221 OA
ATOM     29  C   UNL     1      32.597  13.442   0.903  0.00  0.00    +0.155 C 
BRANCH  29  30
ATOM     30  N   UNL     1      31.835  12.495   0.092  0.00  0.00    -0.202 NA
ATOM     31  C   UNL     1      31.592  12.495  -1.243  0.00  0.00    +0.242 C 
ATOM     32  C   UNL     1      31.028  11.245  -1.868  0.00  0.00    +0.096 C 
ATOM     33  O   UNL     1      31.837  13.502  -1.905  0.00  0.00    -0.273 OA
ENDBRANCH  29  30
BRANCH  25  34
ATOM     34  C   UNL     1      34.403  12.783   4.239  0.00  0.00    +0.391 C 
ATOM     35  O   UNL     1      35.708  12.488   4.076  0.00  0.00    -0.243 OA
ATOM     36  O   UNL     1      33.331  12.686   5.035  0.00  0.00    -0.243 OA
ENDBRANCH  25  34
ENDBRANCH  21  23
ENDBRANCH  19  21
ENDBRANCH   1  19
TORSDOF 11
