REMARK VINA RESULT:    -5.897      2.188      3.493
REMARK INTER + INTRA:         -12.666
REMARK INTER:                 -11.521
REMARK INTRA:                  -1.145
REMARK UNBOUND:                -2.287
REMARK  Name = lig_assembled_67.pdb
REMARK  13 active torsions:
REMARK  status: ('A' for Active; 'I' for Inactive)
REMARK    1  A    between atoms: _2  and  _8
REMARK    2  A    between atoms: _5  and  _6
REMARK    3  A    between atoms: _5  and  _14
REMARK    4  A    between atoms: _8  and  _9
REMARK    5  A    between atoms: _9  and  _10
REMARK    6  A    between atoms: _14  and  _16
REMARK    7  A    between atoms: _15  and  _20
REMARK    8  A    between atoms: _16  and  _19
REMARK    9  A    between atoms: _24  and  _34
REMARK   10  A    between atoms: _26  and  _27
REMARK   11  A    between atoms: _28  and  _30
REMARK   12  A    between atoms: _30  and  _32
REMARK   13  A    between atoms: _32  and  _34
REMARK                            x       y       z     vdW  Elec       q    Type
REMARK                         _______ _______ _______ _____ _____    ______ ____
ROOT
ATOM      1  C   UNL     1      27.927  17.617  -1.004  0.00  0.00    +0.400 C 
ATOM      2  N   UNL     1      28.810  16.905  -0.227  0.00  0.00    -0.278 N 
ATOM      3  H   UNL     1      29.012  17.567   0.587  0.00  0.00    +0.152 HD
ATOM      4  O   UNL     1      27.463  18.659  -0.548  0.00  0.00    -0.226 OA
ENDROOT
BRANCH   2   5
ATOM      5  C   UNL     1      29.567  15.675  -0.013  0.00  0.00    +0.152 C 
BRANCH   5   6
ATOM      6  C   UNL     1      31.088  15.838   0.187  0.00  0.00    +0.193 C 
ATOM      7  O   UNL     1      31.311  15.935   1.611  0.00  0.00    -0.219 OA
BRANCH   6   8
ATOM      8  C   UNL     1      31.998  14.676  -0.268  0.00  0.00    +0.212 C 
ATOM      9  O   UNL     1      32.998  15.151  -1.183  0.00  0.00    -0.218 OA
BRANCH   8  10
ATOM     10  C   UNL     1      32.717  13.942   0.927  0.00  0.00    +0.171 C 
ATOM     11  O   UNL     1      34.131  13.890   0.767  0.00  0.00    -0.343 OA
ATOM     12  C   UNL     1      34.983  13.098   1.540  0.00  0.00    +0.220 C 
ATOM     13  C   UNL     1      34.505  11.637   1.601  0.00  0.00    +0.076 C 
ATOM     14  C   UNL     1      33.038  11.649   2.062  0.00  0.00    +0.177 C 
ATOM     15  O   UNL     1      32.557  10.317   2.174  0.00  0.00    -0.221 OA
ATOM     16  C   UNL     1      32.170  12.484   1.069  0.00  0.00    +0.155 C 
BRANCH  16  17
ATOM     17  N   UNL     1      30.774  12.492   1.500  0.00  0.00    -0.202 NA
ATOM     18  C   UNL     1      30.222  12.966   2.646  0.00  0.00    +0.242 C 
ATOM     19  C   UNL     1      28.725  13.118   2.709  0.00  0.00    +0.096 C 
ATOM     20  O   UNL     1      30.948  13.259   3.594  0.00  0.00    -0.273 OA
ENDBRANCH  16  17
BRANCH  12  21
ATOM     21  C   UNL     1      35.257  13.699   3.024  0.00  0.00    +0.391 C 
ATOM     22  O   UNL     1      34.460  14.782   3.112  0.00  0.00    -0.243 OA
ATOM     23  O   UNL     1      35.920  12.747   3.692  0.00  0.00    -0.243 OA
ENDBRANCH  12  21
ENDBRANCH   8  10
ENDBRANCH   6   8
ENDBRANCH   5   6
ENDBRANCH   2   5
BRANCH   1  24
ATOM     24  O   UNL     1      27.689  17.124  -2.176  0.00  0.00    -0.450 OA
BRANCH  24  25
ATOM     25  C   UNL     1      26.871  17.376  -3.294  0.00  0.00    +0.240 C 
BRANCH  25  26
ATOM     26  C   UNL     1      26.404  16.162  -4.121  0.00  0.00    +0.100 C 
BRANCH  26  28
ATOM     27  N   UNL     1      25.885  14.063  -2.918  0.00  0.00    -0.134 NA
ATOM     28  C   UNL     1      25.498  15.314  -3.323  0.00  0.00    +0.086 A 
ATOM     29  C   UNL     1      24.223  15.561  -2.868  0.00  0.00    +0.133 A 
ATOM     30  N   UNL     1      23.889  14.422  -2.198  0.00  0.00    -0.251 N 
ATOM     31  N   UNL     1      24.886  13.523  -2.231  0.00  0.00    -0.065 NA
BRANCH  30  32
ATOM     32  C   UNL     1      22.660  14.124  -1.497  0.00  0.00    +0.150 C 
BRANCH  32  33
ATOM     33  C   UNL     1      21.730  13.186  -2.263  0.00  0.00    +0.084 C 
BRANCH  33  34
ATOM     34  C   UNL     1      20.702  13.939  -3.096  0.00  0.00    +0.252 C 
ATOM     35  O   UNL     1      20.707  15.328  -2.750  0.00  0.00    -0.349 OA
ATOM     36  C   UNL     1      20.304  15.966  -3.960  0.00  0.00    +0.191 C 
ATOM     37  C   UNL     1      20.951  15.123  -5.029  0.00  0.00    +0.191 C 
ATOM     38  O   UNL     1      20.991  13.800  -4.491  0.00  0.00    -0.349 OA
ENDBRANCH  33  34
ENDBRANCH  32  33
ENDBRANCH  30  32
ENDBRANCH  26  28
ENDBRANCH  25  26
ENDBRANCH  24  25
ENDBRANCH   1  24
TORSDOF 13
