REMARK VINA RESULT:    -6.634     23.455     26.046
REMARK INTER + INTRA:         -13.107
REMARK INTER:                 -11.574
REMARK INTRA:                  -1.533
REMARK UNBOUND:                -1.431
REMARK  Name = lig_assembled_36.pdb
REMARK  13 active torsions:
REMARK  status: ('A' for Active; 'I' for Inactive)
REMARK    1  A    between atoms: _2  and  _9
REMARK    2  A    between atoms: _6  and  _7
REMARK    3  A    between atoms: _6  and  _16
REMARK    4  A    between atoms: _9  and  _10
REMARK    5  A    between atoms: _13  and  _14
REMARK    6  A    between atoms: _16  and  _18
REMARK    7  A    between atoms: _17  and  _22
REMARK    8  A    between atoms: _18  and  _21
REMARK    9  A    between atoms: _26  and  _36
REMARK   10  A    between atoms: _28  and  _29
REMARK   11  A    between atoms: _30  and  _32
REMARK   12  A    between atoms: _32  and  _34
REMARK   13  A    between atoms: _34  and  _36
REMARK                            x       y       z     vdW  Elec       q    Type
REMARK                         _______ _______ _______ _____ _____    ______ ____
ROOT
ATOM      1  C   UNL     1      32.911  40.183   4.934  0.00  0.00    +0.400 C 
ATOM      2  N   UNL     1      33.972  39.328   4.745  0.00  0.00    -0.278 N 
ATOM      3  H   UNL     1      33.918  39.096   3.703  0.00  0.00    +0.152 HD
ATOM      4  O   UNL     1      32.319  40.600   3.942  0.00  0.00    -0.226 OA
ENDROOT
BRANCH   1   5
ATOM      5  O   UNL     1      32.617  40.445   6.166  0.00  0.00    -0.450 OA
BRANCH   5   6
ATOM      6  C   UNL     1      32.052  39.808   7.288  0.00  0.00    +0.240 C 
BRANCH   6   7
ATOM      7  C   UNL     1      30.528  39.925   7.479  0.00  0.00    +0.100 C 
BRANCH   7   9
ATOM      8  N   UNL     1      29.862  38.687   5.439  0.00  0.00    -0.134 NA
ATOM      9  C   UNL     1      29.841  38.809   6.804  0.00  0.00    +0.086 A 
ATOM     10  C   UNL     1      29.133  37.756   7.340  0.00  0.00    +0.134 A 
ATOM     11  N   UNL     1      28.835  36.982   6.258  0.00  0.00    -0.247 N 
ATOM     12  N   UNL     1      29.224  37.571   5.112  0.00  0.00    -0.065 NA
BRANCH  11  13
ATOM     13  C   UNL     1      28.205  35.677   6.240  0.00  0.00    +0.180 C 
BRANCH  13  14
ATOM     14  C   UNL     1      27.734  35.276   7.620  0.00  0.00    -0.026 A 
ATOM     15  C   UNL     1      28.558  34.524   8.472  0.00  0.00    +0.007 A 
ATOM     16  C   UNL     1      28.116  34.162   9.748  0.00  0.00    +0.019 A 
ATOM     17  C   UNL     1      26.844  34.540  10.188  0.00  0.00    +0.052 A 
ATOM     18  C   UNL     1      26.008  35.268   9.337  0.00  0.00    +0.019 A 
ATOM     19  C   UNL     1      26.449  35.630   8.060  0.00  0.00    +0.007 A 
BRANCH  17  20
ATOM     20  C   UNL     1      26.401  34.186  11.506  0.00  0.00    +0.099 C 
ATOM     21  N   UNL     1      26.048  33.890  12.571  0.00  0.00    -0.191 NA
ENDBRANCH  17  20
ENDBRANCH  13  14
ENDBRANCH  11  13
ENDBRANCH   7   9
ENDBRANCH   6   7
ENDBRANCH   5   6
ENDBRANCH   1   5
BRANCH   2  22
ATOM     22  C   UNL     1      35.119  38.624   5.312  0.00  0.00    +0.152 C 
BRANCH  22  23
ATOM     23  C   UNL     1      35.998  37.843   4.313  0.00  0.00    +0.193 C 
ATOM     24  O   UNL     1      35.521  38.177   2.991  0.00  0.00    -0.219 OA
BRANCH  23  25
ATOM     25  C   UNL     1      37.505  38.177   4.275  0.00  0.00    +0.212 C 
ATOM     26  O   UNL     1      38.285  36.971   4.235  0.00  0.00    -0.218 OA
BRANCH  25  27
ATOM     27  C   UNL     1      37.914  39.082   3.051  0.00  0.00    +0.171 C 
ATOM     28  O   UNL     1      39.007  38.545   2.313  0.00  0.00    -0.343 OA
ATOM     29  C   UNL     1      39.723  39.248   1.341  0.00  0.00    +0.220 C 
ATOM     30  C   UNL     1      40.187  40.622   1.856  0.00  0.00    +0.076 C 
ATOM     31  C   UNL     1      38.949  41.352   2.404  0.00  0.00    +0.177 C 
ATOM     32  O   UNL     1      39.316  42.647   2.857  0.00  0.00    -0.221 OA
ATOM     33  C   UNL     1      38.293  40.516   3.546  0.00  0.00    +0.155 C 
BRANCH  33  34
ATOM     34  N   UNL     1      37.121  41.210   4.073  0.00  0.00    -0.202 NA
ATOM     35  C   UNL     1      36.913  41.754   5.299  0.00  0.00    +0.242 C 
ATOM     36  C   UNL     1      35.730  42.669   5.485  0.00  0.00    +0.096 C 
ATOM     37  O   UNL     1      37.686  41.493   6.219  0.00  0.00    -0.273 OA
ENDBRANCH  33  34
BRANCH  29  38
ATOM     38  C   UNL     1      38.937  39.375  -0.075  0.00  0.00    +0.391 C 
ATOM     39  O   UNL     1      39.600  40.331  -0.755  0.00  0.00    -0.243 OA
ATOM     40  O   UNL     1      38.140  38.303  -0.154  0.00  0.00    -0.243 OA
ENDBRANCH  29  38
ENDBRANCH  25  27
ENDBRANCH  23  25
ENDBRANCH  22  23
ENDBRANCH   2  22
TORSDOF 13
