REMARK VINA RESULT:    -6.966      1.679      2.288
REMARK INTER + INTRA:         -13.668
REMARK INTER:                 -11.569
REMARK INTRA:                  -2.098
REMARK UNBOUND:                -1.815
REMARK  Name = lig_assembled_71.pdb
REMARK  12 active torsions:
REMARK  status: ('A' for Active; 'I' for Inactive)
REMARK    1  A    between atoms: _2  and  _11
REMARK    2  A    between atoms: _8  and  _9
REMARK    3  A    between atoms: _8  and  _17
REMARK    4  A    between atoms: _11  and  _12
REMARK    5  A    between atoms: _17  and  _19
REMARK    6  A    between atoms: _18  and  _23
REMARK    7  A    between atoms: _19  and  _22
REMARK    8  A    between atoms: _27  and  _37
REMARK    9  A    between atoms: _29  and  _30
REMARK   10  A    between atoms: _31  and  _33
REMARK   11  A    between atoms: _33  and  _35
REMARK   12  A    between atoms: _35  and  _37
REMARK                            x       y       z     vdW  Elec       q    Type
REMARK                         _______ _______ _______ _____ _____    ______ ____
ROOT
ATOM      1  C   UNL     1      27.457  17.376  -1.879  0.00  0.00    +0.400 C 
ATOM      2  N   UNL     1      27.826  16.217  -1.238  0.00  0.00    -0.278 N 
ATOM      3  H   UNL     1      28.246  16.566  -0.319  0.00  0.00    +0.152 HD
ATOM      4  O   UNL     1      27.505  18.429  -1.247  0.00  0.00    -0.226 OA
ENDROOT
BRANCH   2   5
ATOM      5  C   UNL     1      27.888  14.758  -1.242  0.00  0.00    +0.152 C 
BRANCH   5   6
ATOM      6  C   UNL     1      28.863  14.116  -0.234  0.00  0.00    +0.193 C 
ATOM      7  O   UNL     1      28.666  12.687  -0.319  0.00  0.00    -0.219 OA
BRANCH   6   8
ATOM      8  C   UNL     1      30.375  14.312  -0.478  0.00  0.00    +0.212 C 
ATOM      9  O   UNL     1      30.697  15.711  -0.536  0.00  0.00    -0.218 OA
BRANCH   8  10
ATOM     10  C   UNL     1      31.278  13.633   0.622  0.00  0.00    +0.171 C 
ATOM     11  O   UNL     1      31.035  14.149   1.926  0.00  0.00    -0.343 OA
ATOM     12  C   UNL     1      31.850  13.907   3.034  0.00  0.00    +0.220 C 
ATOM     13  C   UNL     1      33.330  14.197   2.728  0.00  0.00    +0.076 C 
ATOM     14  C   UNL     1      33.704  13.405   1.464  0.00  0.00    +0.177 C 
ATOM     15  O   UNL     1      35.077  13.607   1.158  0.00  0.00    -0.221 OA
ATOM     16  C   UNL     1      32.790  13.831   0.273  0.00  0.00    +0.155 C 
BRANCH  16  17
ATOM     17  N   UNL     1      33.147  13.086  -0.932  0.00  0.00    -0.202 NA
ATOM     18  C   UNL     1      33.509  13.541  -2.158  0.00  0.00    +0.242 C 
ATOM     19  C   UNL     1      34.110  12.565  -3.135  0.00  0.00    +0.096 C 
ATOM     20  O   UNL     1      33.342  14.726  -2.440  0.00  0.00    -0.273 OA
ENDBRANCH  16  17
BRANCH  12  21
ATOM     21  C   UNL     1      31.652  12.427   3.673  0.00  0.00    +0.391 C 
ATOM     22  O   UNL     1      32.729  12.241   4.461  0.00  0.00    -0.243 OA
ATOM     23  O   UNL     1      30.381  12.084   3.425  0.00  0.00    -0.243 OA
ENDBRANCH  12  21
ENDBRANCH   8  10
ENDBRANCH   6   8
ENDBRANCH   5   6
ENDBRANCH   2   5
BRANCH   1  24
ATOM     24  O   UNL     1      27.117  17.246  -3.119  0.00  0.00    -0.450 OA
BRANCH  24  25
ATOM     25  C   UNL     1      25.958  17.044  -3.894  0.00  0.00    +0.240 C 
BRANCH  25  26
ATOM     26  C   UNL     1      25.643  15.604  -4.340  0.00  0.00    +0.100 C 
BRANCH  26  28
ATOM     27  N   UNL     1      23.939  15.611  -2.534  0.00  0.00    -0.134 NA
ATOM     28  C   UNL     1      24.822  14.920  -3.323  0.00  0.00    +0.086 A 
ATOM     29  C   UNL     1      24.769  13.587  -2.991  0.00  0.00    +0.134 A 
ATOM     30  N   UNL     1      23.851  13.529  -1.983  0.00  0.00    -0.243 N 
ATOM     31  N   UNL     1      23.342  14.747  -1.722  0.00  0.00    -0.065 NA
BRANCH  30  32
ATOM     32  C   UNL     1      23.322  12.363  -1.306  0.00  0.00    +0.241 C 
BRANCH  32  33
ATOM     33  C   UNL     1      24.226  11.905  -0.191  0.00  0.00    +0.241 C 
ATOM     34  O   UNL     1      25.329  12.428  -0.038  0.00  0.00    -0.273 OA
ATOM     35  N   UNL     1      23.739  10.843   0.541  0.00  0.00    -0.253 N 
ATOM     36  H   UNL     1      22.928  10.319   0.254  0.00  0.00    +0.158 HD
ATOM     37  C   UNL     1      24.402  10.284   1.628  0.00  0.00    +0.221 A 
ATOM     38  N   UNL     1      23.935   9.093   2.034  0.00  0.00    -0.223 NA
ATOM     39  C   UNL     1      24.613   8.501   3.039  0.00  0.00    +0.116 A 
ATOM     40  C   UNL     1      25.705   9.059   3.661  0.00  0.00    +0.039 A 
ATOM     41  C   UNL     1      26.068  10.296   3.200  0.00  0.00    +0.116 A 
ATOM     42  N   UNL     1      25.434  10.918   2.194  0.00  0.00    -0.223 NA
ENDBRANCH  32  33
ENDBRANCH  30  32
ENDBRANCH  26  28
ENDBRANCH  25  26
ENDBRANCH  24  25
ENDBRANCH   1  24
TORSDOF 12
