REMARK VINA RESULT:    -6.090      2.577      9.157
REMARK INTER + INTRA:         -13.863
REMARK INTER:                 -11.684
REMARK INTRA:                  -2.179
REMARK UNBOUND:                -1.720
REMARK  Name = lig_assembled_54.pdb
REMARK  19 active torsions:
REMARK  status: ('A' for Active; 'I' for Inactive)
REMARK    1  A    between atoms: _2  and  _8
REMARK    2  A    between atoms: _4  and  _13
REMARK    3  A    between atoms: _5  and  _6
REMARK    4  A    between atoms: _5  and  _16
REMARK    5  A    between atoms: _8  and  _9
REMARK    6  A    between atoms: _9  and  _10
REMARK    7  A    between atoms: _10  and  _14
REMARK    8  A    between atoms: _10  and  _15
REMARK    9  A    between atoms: _11  and  _12
REMARK   10  A    between atoms: _11  and  _15
REMARK   11  A    between atoms: _13  and  _14
REMARK   12  A    between atoms: _16  and  _18
REMARK   13  A    between atoms: _17  and  _22
REMARK   14  A    between atoms: _18  and  _21
REMARK   15  A    between atoms: _26  and  _36
REMARK   16  A    between atoms: _28  and  _29
REMARK   17  A    between atoms: _30  and  _32
REMARK   18  A    between atoms: _32  and  _34
REMARK   19  A    between atoms: _34  and  _36
REMARK                            x       y       z     vdW  Elec       q    Type
REMARK                         _______ _______ _______ _____ _____    ______ ____
ROOT
ATOM      1  C   UNL     1      27.944  17.879  -0.744  0.00  0.00    +0.400 C 
ATOM      2  N   UNL     1      27.176  17.591  -1.848  0.00  0.00    -0.278 N 
ATOM      3  H   UNL     1      26.175  17.665  -1.479  0.00  0.00    +0.152 HD
ATOM      4  O   UNL     1      27.378  18.302   0.261  0.00  0.00    -0.226 OA
ENDROOT
BRANCH   1   5
ATOM      5  O   UNL     1      29.209  17.642  -0.866  0.00  0.00    -0.450 OA
BRANCH   5   6
ATOM      6  C   UNL     1      30.242  16.978  -0.176  0.00  0.00    +0.240 C 
BRANCH   6   7
ATOM      7  C   UNL     1      29.975  15.532   0.284  0.00  0.00    +0.100 C 
BRANCH   7   9
ATOM      8  N   UNL     1      32.204  15.025  -0.668  0.00  0.00    -0.134 NA
ATOM      9  C   UNL     1      31.228  14.754   0.254  0.00  0.00    +0.086 A 
ATOM     10  C   UNL     1      31.648  13.721   1.065  0.00  0.00    +0.133 A 
ATOM     11  N   UNL     1      32.900  13.436   0.610  0.00  0.00    -0.251 N 
ATOM     12  N   UNL     1      33.230  14.216  -0.436  0.00  0.00    -0.065 NA
BRANCH  11  13
ATOM     13  C   UNL     1      33.858  12.489   1.146  0.00  0.00    +0.150 C 
BRANCH  13  14
ATOM     14  C   UNL     1      35.238  13.110   1.303  0.00  0.00    +0.084 C 
BRANCH  14  15
ATOM     15  C   UNL     1      35.546  13.559   2.735  0.00  0.00    +0.252 C 
BRANCH  15  16
ATOM     16  O   UNL     1      36.956  13.506   2.976  0.00  0.00    -0.352 OA
BRANCH  16  17
ATOM     17  C   UNL     1      37.530  12.213   2.798  0.00  0.00    +0.159 C 
ATOM     18  C   UNL     1      38.889  12.368   2.146  0.00  0.00    +0.034 C 
ENDBRANCH  16  17
ENDBRANCH  15  16
BRANCH  15  19
ATOM     19  O   UNL     1      34.868  12.665   3.626  0.00  0.00    -0.352 OA
BRANCH  19  20
ATOM     20  C   UNL     1      34.260  13.345   4.726  0.00  0.00    +0.159 C 
ATOM     21  C   UNL     1      34.000  14.786   4.335  0.00  0.00    +0.034 C 
ENDBRANCH  19  20
ENDBRANCH  15  19
ENDBRANCH  14  15
ENDBRANCH  13  14
ENDBRANCH  11  13
ENDBRANCH   7   9
ENDBRANCH   6   7
ENDBRANCH   5   6
ENDBRANCH   1   5
BRANCH   2  22
ATOM     22  C   UNL     1      27.115  17.251  -3.267  0.00  0.00    +0.152 C 
BRANCH  22  23
ATOM     23  C   UNL     1      26.074  16.184  -3.666  0.00  0.00    +0.193 C 
ATOM     24  O   UNL     1      26.131  16.067  -5.105  0.00  0.00    -0.219 OA
BRANCH  23  25
ATOM     25  C   UNL     1      26.295  14.743  -3.154  0.00  0.00    +0.212 C 
ATOM     26  O   UNL     1      27.029  14.757  -1.918  0.00  0.00    -0.218 OA
BRANCH  25  27
ATOM     27  C   UNL     1      24.952  13.947  -2.933  0.00  0.00    +0.171 C 
ATOM     28  O   UNL     1      24.018  14.660  -2.130  0.00  0.00    -0.343 OA
ATOM     29  C   UNL     1      22.862  14.100  -1.580  0.00  0.00    +0.220 C 
ATOM     30  C   UNL     1      23.164  12.792  -0.828  0.00  0.00    +0.076 C 
ATOM     31  C   UNL     1      23.935  11.873  -1.790  0.00  0.00    +0.177 C 
ATOM     32  O   UNL     1      24.205  10.631  -1.155  0.00  0.00    -0.221 OA
ATOM     33  C   UNL     1      25.250  12.568  -2.259  0.00  0.00    +0.155 C 
BRANCH  33  34
ATOM     34  N   UNL     1      25.989  11.694  -3.168  0.00  0.00    -0.202 NA
ATOM     35  C   UNL     1      27.209  11.120  -3.018  0.00  0.00    +0.242 C 
ATOM     36  C   UNL     1      27.608  10.028  -3.977  0.00  0.00    +0.096 C 
ATOM     37  O   UNL     1      27.952  11.497  -2.114  0.00  0.00    -0.273 OA
ENDBRANCH  33  34
BRANCH  29  38
ATOM     38  C   UNL     1      21.662  13.906  -2.657  0.00  0.00    +0.391 C 
ATOM     39  O   UNL     1      20.778  13.090  -2.050  0.00  0.00    -0.243 OA
ATOM     40  O   UNL     1      21.849  14.845  -3.593  0.00  0.00    -0.243 OA
ENDBRANCH  29  38
ENDBRANCH  25  27
ENDBRANCH  23  25
ENDBRANCH  22  23
ENDBRANCH   2  22
TORSDOF 17
