REMARK VINA RESULT:    -6.973      1.551      3.617
REMARK INTER + INTRA:         -13.849
REMARK INTER:                 -12.786
REMARK INTRA:                  -1.063
REMARK UNBOUND:                -1.577
REMARK  Name = lig_assembled_66.pdb
REMARK  13 active torsions:
REMARK  status: ('A' for Active; 'I' for Inactive)
REMARK    1  A    between atoms: _2  and  _9
REMARK    2  A    between atoms: _6  and  _7
REMARK    3  A    between atoms: _6  and  _16
REMARK    4  A    between atoms: _9  and  _10
REMARK    5  A    between atoms: _14  and  _15
REMARK    6  A    between atoms: _16  and  _18
REMARK    7  A    between atoms: _17  and  _22
REMARK    8  A    between atoms: _18  and  _21
REMARK    9  A    between atoms: _26  and  _36
REMARK   10  A    between atoms: _28  and  _29
REMARK   11  A    between atoms: _30  and  _32
REMARK   12  A    between atoms: _32  and  _34
REMARK   13  A    between atoms: _34  and  _36
REMARK                            x       y       z     vdW  Elec       q    Type
REMARK                         _______ _______ _______ _____ _____    ______ ____
ROOT
ATOM      1  C   UNL     1      27.844  17.253  -0.671  0.00  0.00    +0.400 C 
ATOM      2  N   UNL     1      28.453  16.395   0.214  0.00  0.00    -0.278 N 
ATOM      3  H   UNL     1      28.663  17.017   1.056  0.00  0.00    +0.152 HD
ATOM      4  O   UNL     1      27.534  18.373  -0.272  0.00  0.00    -0.226 OA
ENDROOT
BRANCH   1   5
ATOM      5  O   UNL     1      27.681  16.799  -1.870  0.00  0.00    -0.450 OA
BRANCH   5   6
ATOM      6  C   UNL     1      27.354  17.271  -3.156  0.00  0.00    +0.240 C 
BRANCH   6   7
ATOM      7  C   UNL     1      25.860  17.364  -3.520  0.00  0.00    +0.100 C 
BRANCH   7   9
ATOM      8  N   UNL     1      25.336  15.323  -4.823  0.00  0.00    -0.134 NA
ATOM      9  C   UNL     1      25.276  16.014  -3.643  0.00  0.00    +0.086 A 
ATOM     10  C   UNL     1      24.657  15.231  -2.693  0.00  0.00    +0.134 A 
ATOM     11  N   UNL     1      24.416  14.054  -3.343  0.00  0.00    -0.247 N 
ATOM     12  N   UNL     1      24.809  14.120  -4.628  0.00  0.00    -0.065 NA
BRANCH  11  13
ATOM     13  C   UNL     1      24.065  12.777  -2.751  0.00  0.00    +0.180 C 
BRANCH  13  14
ATOM     14  C   UNL     1      22.907  12.862  -1.790  0.00  0.00    -0.025 A 
ATOM     15  C   UNL     1      21.804  13.678  -2.081  0.00  0.00    +0.005 A 
ATOM     16  C   UNL     1      20.690  13.700  -1.239  0.00  0.00    +0.002 A 
ATOM     17  C   UNL     1      20.673  12.920  -0.083  0.00  0.00    +0.019 A 
ATOM     18  C   UNL     1      21.779  12.128   0.242  0.00  0.00    +0.052 A 
ATOM     19  C   UNL     1      22.890  12.099  -0.611  0.00  0.00    +0.024 A 
BRANCH  18  20
ATOM     20  C   UNL     1      21.770  11.339   1.438  0.00  0.00    +0.099 C 
ATOM     21  N   UNL     1      21.770  10.706   2.412  0.00  0.00    -0.191 NA
ENDBRANCH  18  20
ENDBRANCH  13  14
ENDBRANCH  11  13
ENDBRANCH   7   9
ENDBRANCH   6   7
ENDBRANCH   5   6
ENDBRANCH   1   5
BRANCH   2  22
ATOM     22  C   UNL     1      28.916  15.043   0.517  0.00  0.00    +0.152 C 
BRANCH  22  23
ATOM     23  C   UNL     1      30.203  14.589  -0.202  0.00  0.00    +0.193 C 
ATOM     24  O   UNL     1      30.935  15.788  -0.540  0.00  0.00    -0.219 OA
BRANCH  23  25
ATOM     25  C   UNL     1      31.210  13.738   0.604  0.00  0.00    +0.212 C 
ATOM     26  O   UNL     1      30.633  12.466   0.941  0.00  0.00    -0.218 OA
BRANCH  25  27
ATOM     27  C   UNL     1      32.568  13.490  -0.157  0.00  0.00    +0.171 C 
ATOM     28  O   UNL     1      32.393  12.753  -1.363  0.00  0.00    -0.343 OA
ATOM     29  C   UNL     1      33.437  12.189  -2.100  0.00  0.00    +0.220 C 
ATOM     30  C   UNL     1      34.371  11.346  -1.214  0.00  0.00    +0.076 C 
ATOM     31  C   UNL     1      34.814  12.231  -0.036  0.00  0.00    +0.177 C 
ATOM     32  O   UNL     1      35.713  11.511   0.795  0.00  0.00    -0.221 OA
ATOM     33  C   UNL     1      33.568  12.721   0.766  0.00  0.00    +0.155 C 
BRANCH  33  34
ATOM     34  N   UNL     1      33.985  13.556   1.890  0.00  0.00    -0.202 NA
ATOM     35  C   UNL     1      33.722  13.421   3.215  0.00  0.00    +0.242 C 
ATOM     36  C   UNL     1      34.517  14.251   4.189  0.00  0.00    +0.096 C 
ATOM     37  O   UNL     1      32.854  12.635   3.585  0.00  0.00    -0.273 OA
ENDBRANCH  33  34
BRANCH  29  38
ATOM     38  C   UNL     1      34.267  13.273  -2.980  0.00  0.00    +0.391 C 
ATOM     39  O   UNL     1      33.449  14.339  -3.081  0.00  0.00    -0.243 OA
ATOM     40  O   UNL     1      35.531  12.833  -3.013  0.00  0.00    -0.243 OA
ENDBRANCH  29  38
ENDBRANCH  25  27
ENDBRANCH  23  25
ENDBRANCH  22  23
ENDBRANCH   2  22
TORSDOF 13
