REMARK VINA RESULT:    -7.789      2.497      3.951
REMARK INTER + INTRA:         -14.396
REMARK INTER:                 -11.762
REMARK INTRA:                  -2.634
REMARK UNBOUND:                -1.598
REMARK  Name = lig_assembled_80.pdb
REMARK  11 active torsions:
REMARK  status: ('A' for Active; 'I' for Inactive)
REMARK    1  A    between atoms: _2  and  _9
REMARK    2  A    between atoms: _6  and  _7
REMARK    3  A    between atoms: _6  and  _19
REMARK    4  A    between atoms: _19  and  _21
REMARK    5  A    between atoms: _20  and  _25
REMARK    6  A    between atoms: _21  and  _24
REMARK    7  A    between atoms: _29  and  _39
REMARK    8  A    between atoms: _31  and  _32
REMARK    9  A    between atoms: _33  and  _35
REMARK   10  A    between atoms: _35  and  _37
REMARK   11  A    between atoms: _37  and  _39
REMARK                            x       y       z     vdW  Elec       q    Type
REMARK                         _______ _______ _______ _____ _____    ______ ____
ROOT
ATOM      1  C   UNL     1      28.979  16.729  -0.551  0.00  0.00    +0.400 C 
ATOM      2  N   UNL     1      29.059  15.566   0.179  0.00  0.00    -0.278 N 
ATOM      3  H   UNL     1      30.083  15.535   0.483  0.00  0.00    +0.152 HD
ATOM      4  O   UNL     1      29.942  17.491  -0.534  0.00  0.00    -0.226 OA
ENDROOT
BRANCH   1   5
ATOM      5  O   UNL     1      27.886  16.894  -1.222  0.00  0.00    -0.450 OA
BRANCH   5   6
ATOM      6  C   UNL     1      27.306  17.825  -2.106  0.00  0.00    +0.240 C 
BRANCH   6   7
ATOM      7  C   UNL     1      26.915  17.324  -3.510  0.00  0.00    +0.100 C 
BRANCH   7   9
ATOM      8  N   UNL     1      26.714  15.021  -4.360  0.00  0.00    -0.134 NA
ATOM      9  C   UNL     1      26.356  15.959  -3.432  0.00  0.00    +0.086 A 
ATOM     10  C   UNL     1      25.479  15.402  -2.529  0.00  0.00    +0.134 A 
ATOM     11  N   UNL     1      25.296  14.129  -2.998  0.00  0.00    -0.240 N 
ATOM     12  N   UNL     1      26.071  13.895  -4.079  0.00  0.00    -0.065 NA
BRANCH  11  13
ATOM     13  C   UNL     1      24.554  13.009  -2.407  0.00  0.00    +0.195 C 
ATOM     14  C   UNL     1      25.342  12.486  -1.213  0.00  0.00    +0.041 C 
ATOM     15  C   UNL     1      24.791  11.159  -0.735  0.00  0.00    +0.039 C 
ATOM     16  C   UNL     1      23.650  11.392   0.207  0.00  0.00    -0.026 A 
ATOM     17  C   UNL     1      22.457  11.995  -0.194  0.00  0.00    +0.037 A 
ATOM     18  C   UNL     1      21.388  12.070   0.716  0.00  0.00    +0.023 A 
ATOM     19  C   UNL     1      21.539  11.660   2.039  0.00  0.00    +0.002 A 
ATOM     20  C   UNL     1      22.751  11.130   2.459  0.00  0.00    +0.000 A 
ATOM     21  N   UNL     1      22.231  12.629  -1.427  0.00  0.00    -0.284 N 
ATOM     22  H   UNL     1      21.291  12.988  -1.554  0.00  0.00    +0.155 HD
ATOM     23  C   UNL     1      23.789  10.972   1.543  0.00  0.00    +0.005 A 
ATOM     24  C   UNL     1      23.085  13.360  -2.203  0.00  0.00    +0.242 C 
ATOM     25  O   UNL     1      22.550  14.281  -2.832  0.00  0.00    -0.273 OA
ENDBRANCH  11  13
ENDBRANCH   7   9
ENDBRANCH   6   7
ENDBRANCH   5   6
ENDBRANCH   1   5
BRANCH   2  26
ATOM     26  C   UNL     1      28.385  14.390   0.724  0.00  0.00    +0.152 C 
BRANCH  26  27
ATOM     27  C   UNL     1      29.111  13.042   0.534  0.00  0.00    +0.193 C 
ATOM     28  O   UNL     1      28.157  12.007   0.860  0.00  0.00    -0.219 OA
BRANCH  27  29
ATOM     29  C   UNL     1      29.596  12.685  -0.888  0.00  0.00    +0.212 C 
ATOM     30  O   UNL     1      28.965  13.533  -1.861  0.00  0.00    -0.218 OA
BRANCH  29  31
ATOM     31  C   UNL     1      31.159  12.796  -1.061  0.00  0.00    +0.171 C 
ATOM     32  O   UNL     1      31.680  14.023  -0.561  0.00  0.00    -0.343 OA
ATOM     33  C   UNL     1      32.976  14.485  -0.801  0.00  0.00    +0.220 C 
ATOM     34  C   UNL     1      33.326  14.449  -2.299  0.00  0.00    +0.076 C 
ATOM     35  C   UNL     1      33.042  13.026  -2.807  0.00  0.00    +0.177 C 
ATOM     36  O   UNL     1      33.387  12.928  -4.181  0.00  0.00    -0.221 OA
ATOM     37  C   UNL     1      31.543  12.661  -2.571  0.00  0.00    +0.155 C 
BRANCH  37  38
ATOM     38  N   UNL     1      31.268  11.312  -3.059  0.00  0.00    -0.202 NA
ATOM     39  C   UNL     1      30.464  10.904  -4.073  0.00  0.00    +0.242 C 
ATOM     40  C   UNL     1      30.588   9.482  -4.557  0.00  0.00    +0.096 C 
ATOM     41  O   UNL     1      29.663  11.694  -4.570  0.00  0.00    -0.273 OA
ENDBRANCH  37  38
BRANCH  33  42
ATOM     42  C   UNL     1      34.106  13.736   0.094  0.00  0.00    +0.391 C 
ATOM     43  O   UNL     1      35.268  13.965  -0.549  0.00  0.00    -0.243 OA
ATOM     44  O   UNL     1      33.519  13.441   1.261  0.00  0.00    -0.243 OA
ENDBRANCH  33  42
ENDBRANCH  29  31
ENDBRANCH  27  29
ENDBRANCH  26  27
ENDBRANCH   2  26
TORSDOF 11
