REMARK VINA RESULT:    -6.338      1.836      3.590
REMARK INTER + INTRA:         -15.408
REMARK INTER:                 -12.411
REMARK INTRA:                  -2.998
REMARK UNBOUND:                -2.957
REMARK  Name = lig_assembled_74.pdb
REMARK  19 active torsions:
REMARK  status: ('A' for Active; 'I' for Inactive)
REMARK    1  A    between atoms: _2  and  _8
REMARK    2  A    between atoms: _4  and  _13
REMARK    3  A    between atoms: _5  and  _6
REMARK    4  A    between atoms: _5  and  _17
REMARK    5  A    between atoms: _8  and  _9
REMARK    6  A    between atoms: _9  and  _10
REMARK    7  A    between atoms: _9  and  _12
REMARK    8  A    between atoms: _10  and  _11
REMARK    9  A    between atoms: _11  and  _15
REMARK   10  A    between atoms: _12  and  _13
REMARK   11  A    between atoms: _13  and  _14
REMARK   12  A    between atoms: _17  and  _19
REMARK   13  A    between atoms: _18  and  _23
REMARK   14  A    between atoms: _19  and  _22
REMARK   15  A    between atoms: _27  and  _37
REMARK   16  A    between atoms: _29  and  _30
REMARK   17  A    between atoms: _31  and  _33
REMARK   18  A    between atoms: _33  and  _35
REMARK   19  A    between atoms: _35  and  _37
REMARK                            x       y       z     vdW  Elec       q    Type
REMARK                         _______ _______ _______ _____ _____    ______ ____
ROOT
ATOM      1  C   UNL     1      27.678  17.328  -1.418  0.00  0.00    +0.400 C 
ATOM      2  N   UNL     1      27.932  16.071  -0.922  0.00  0.00    -0.278 N 
ATOM      3  H   UNL     1      28.278  16.262   0.071  0.00  0.00    +0.152 HD
ATOM      4  O   UNL     1      27.714  18.277  -0.639  0.00  0.00    -0.226 OA
ENDROOT
BRANCH   1   5
ATOM      5  O   UNL     1      27.453  17.393  -2.689  0.00  0.00    -0.450 OA
BRANCH   5   6
ATOM      6  C   UNL     1      26.363  17.390  -3.582  0.00  0.00    +0.240 C 
BRANCH   6   7
ATOM      7  C   UNL     1      26.085  16.089  -4.360  0.00  0.00    +0.100 C 
BRANCH   7   9
ATOM      8  N   UNL     1      24.024  14.736  -4.652  0.00  0.00    -0.134 NA
ATOM      9  C   UNL     1      24.887  15.411  -3.830  0.00  0.00    +0.086 A 
ATOM     10  C   UNL     1      24.477  15.253  -2.523  0.00  0.00    +0.133 A 
ATOM     11  N   UNL     1      23.476  14.327  -2.611  0.00  0.00    -0.251 N 
ATOM     12  N   UNL     1      23.144  14.095  -3.895  0.00  0.00    -0.065 NA
BRANCH  11  13
ATOM     13  C   UNL     1      23.039  13.416  -1.571  0.00  0.00    +0.149 C 
BRANCH  13  14
ATOM     14  C   UNL     1      24.119  12.451  -1.033  0.00  0.00    +0.021 C 
BRANCH  14  15
ATOM     15  C   UNL     1      24.555  11.386  -2.060  0.00  0.00    +0.125 C 
BRANCH  15  16
ATOM     16  C   UNL     1      25.975  11.535  -2.563  0.00  0.00    +0.305 C 
ATOM     17  O   UNL     1      26.349  12.377  -3.363  0.00  0.00    -0.251 OA
BRANCH  16  18
ATOM     18  O   UNL     1      26.832  10.673  -1.985  0.00  0.00    -0.481 OA
ATOM     19  H   UNL     1      26.612  10.412  -1.073  0.00  0.00    +0.295 HD
ENDBRANCH  16  18
ENDBRANCH  15  16
ENDBRANCH  14  15
BRANCH  14  20
ATOM     20  C   UNL     1      23.629  11.837   0.310  0.00  0.00    +0.009 C 
BRANCH  20  21
ATOM     21  C   UNL     1      22.136  11.448   0.370  0.00  0.00    -0.017 C 
ATOM     22  C   UNL     1      21.915   9.957   0.102  0.00  0.00    +0.007 C 
ATOM     23  C   UNL     1      21.542  11.802   1.738  0.00  0.00    +0.007 C 
ENDBRANCH  20  21
ENDBRANCH  14  20
ENDBRANCH  13  14
ENDBRANCH  11  13
ENDBRANCH   7   9
ENDBRANCH   6   7
ENDBRANCH   5   6
ENDBRANCH   1   5
BRANCH   2  24
ATOM     24  C   UNL     1      27.927  14.626  -1.133  0.00  0.00    +0.152 C 
BRANCH  24  25
ATOM     25  C   UNL     1      28.901  13.808  -0.260  0.00  0.00    +0.193 C 
ATOM     26  O   UNL     1      28.722  12.422  -0.625  0.00  0.00    -0.219 OA
BRANCH  25  27
ATOM     27  C   UNL     1      30.413  14.063  -0.445  0.00  0.00    +0.212 C 
ATOM     28  O   UNL     1      30.682  15.473  -0.491  0.00  0.00    -0.218 OA
BRANCH  27  29
ATOM     29  C   UNL     1      31.299  13.417   0.688  0.00  0.00    +0.171 C 
ATOM     30  O   UNL     1      30.913  13.839   1.992  0.00  0.00    -0.343 OA
ATOM     31  C   UNL     1      31.667  13.620   3.146  0.00  0.00    +0.220 C 
ATOM     32  C   UNL     1      33.129  14.066   2.966  0.00  0.00    +0.076 C 
ATOM     33  C   UNL     1      33.669  13.381   1.700  0.00  0.00    +0.177 C 
ATOM     34  O   UNL     1      35.033  13.729   1.509  0.00  0.00    -0.221 OA
ATOM     35  C   UNL     1      32.804  13.777   0.464  0.00  0.00    +0.155 C 
BRANCH  35  36
ATOM     36  N   UNL     1      33.318  13.134  -0.743  0.00  0.00    -0.202 NA
ATOM     37  C   UNL     1      33.718  13.685  -1.917  0.00  0.00    +0.242 C 
ATOM     38  C   UNL     1      34.482  12.823  -2.888  0.00  0.00    +0.096 C 
ATOM     39  O   UNL     1      33.453  14.861  -2.157  0.00  0.00    -0.273 OA
ENDBRANCH  35  36
BRANCH  31  40
ATOM     40  C   UNL     1      31.572  12.096   3.702  0.00  0.00    +0.391 C 
ATOM     41  O   UNL     1      32.568  11.992   4.603  0.00  0.00    -0.243 OA
ATOM     42  O   UNL     1      30.387  11.627   3.293  0.00  0.00    -0.243 OA
ENDBRANCH  31  40
ENDBRANCH  27  29
ENDBRANCH  25  27
ENDBRANCH  24  25
ENDBRANCH   2  24
TORSDOF 17
