REMARK VINA RESULT:    -6.310      1.935      2.510
REMARK INTER + INTRA:         -16.598
REMARK INTER:                 -12.918
REMARK INTRA:                  -3.680
REMARK UNBOUND:                -2.358
REMARK  Name = lig_assembled_30.pdb
REMARK  22 active torsions:
REMARK  status: ('A' for Active; 'I' for Inactive)
REMARK    1  A    between atoms: _2  and  _8
REMARK    2  A    between atoms: _4  and  _17
REMARK    3  A    between atoms: _4  and  _18
REMARK    4  A    between atoms: _5  and  _6
REMARK    5  A    between atoms: _5  and  _20
REMARK    6  A    between atoms: _8  and  _9
REMARK    7  A    between atoms: _9  and  _10
REMARK    8  A    between atoms: _10  and  _11
REMARK    9  A    between atoms: _11  and  _12
REMARK   10  A    between atoms: _12  and  _13
REMARK   11  A    between atoms: _13  and  _14
REMARK   12  A    between atoms: _14  and  _15
REMARK   13  A    between atoms: _15  and  _16
REMARK   14  A    between atoms: _16  and  _17
REMARK   15  A    between atoms: _20  and  _22
REMARK   16  A    between atoms: _21  and  _26
REMARK   17  A    between atoms: _22  and  _25
REMARK   18  A    between atoms: _30  and  _40
REMARK   19  A    between atoms: _32  and  _33
REMARK   20  A    between atoms: _34  and  _36
REMARK   21  A    between atoms: _36  and  _38
REMARK   22  A    between atoms: _38  and  _40
REMARK                            x       y       z     vdW  Elec       q    Type
REMARK                         _______ _______ _______ _____ _____    ______ ____
ROOT
ATOM      1  C   UNL     1      28.558  15.420  -0.771  0.00  0.00    +0.400 C 
ATOM      2  N   UNL     1      29.195  14.227  -1.018  0.00  0.00    -0.278 N 
ATOM      3  H   UNL     1      29.744  14.049  -0.118  0.00  0.00    +0.152 HD
ATOM      4  O   UNL     1      28.599  15.873   0.370  0.00  0.00    -0.226 OA
ENDROOT
BRANCH   1   5
ATOM      5  O   UNL     1      27.994  15.975  -1.793  0.00  0.00    -0.450 OA
BRANCH   5   6
ATOM      6  C   UNL     1      27.309  17.161  -2.122  0.00  0.00    +0.240 C 
BRANCH   6   7
ATOM      7  C   UNL     1      26.754  17.288  -3.553  0.00  0.00    +0.100 C 
BRANCH   7   9
ATOM      8  N   UNL     1      26.006  15.398  -4.966  0.00  0.00    -0.134 NA
ATOM      9  C   UNL     1      25.837  16.172  -3.848  0.00  0.00    +0.086 A 
ATOM     10  C   UNL     1      24.740  15.721  -3.148  0.00  0.00    +0.133 A 
ATOM     11  N   UNL     1      24.288  14.674  -3.893  0.00  0.00    -0.251 N 
ATOM     12  N   UNL     1      25.047  14.482  -4.984  0.00  0.00    -0.065 NA
BRANCH  11  13
ATOM     13  C   UNL     1      23.126  13.847  -3.651  0.00  0.00    +0.145 C 
BRANCH  13  14
ATOM     14  C   UNL     1      22.212  14.473  -2.604  0.00  0.00    +0.023 C 
BRANCH  14  15
ATOM     15  C   UNL     1      20.935  13.660  -2.401  0.00  0.00    +0.002 C 
BRANCH  15  16
ATOM     16  C   UNL     1      20.427  13.825  -0.968  0.00  0.00    +0.000 C 
BRANCH  16  17
ATOM     17  C   UNL     1      20.969  12.738  -0.045  0.00  0.00    +0.000 C 
BRANCH  17  18
ATOM     18  C   UNL     1      21.214  11.441  -0.821  0.00  0.00    +0.000 C 
BRANCH  18  19
ATOM     19  C   UNL     1      22.326  10.621  -0.173  0.00  0.00    +0.000 C 
BRANCH  19  20
ATOM     20  C   UNL     1      22.790  11.243   1.145  0.00  0.00    +0.001 C 
BRANCH  20  21
ATOM     21  C   UNL     1      24.316  11.289   1.205  0.00  0.00    +0.011 C 
BRANCH  21  22
ATOM     22  C   UNL     1      24.929  11.618  -0.154  0.00  0.00    +0.120 C 
BRANCH  22  23
ATOM     23  C   UNL     1      26.034  12.643  -0.028  0.00  0.00    +0.305 C 
ATOM     24  O   UNL     1      26.855  12.693   0.874  0.00  0.00    -0.251 OA
BRANCH  23  25
ATOM     25  O   UNL     1      26.027  13.535  -1.045  0.00  0.00    -0.481 OA
ATOM     26  H   UNL     1      25.456  13.273  -1.792  0.00  0.00    +0.295 HD
ENDBRANCH  23  25
ENDBRANCH  22  23
ENDBRANCH  21  22
ENDBRANCH  20  21
ENDBRANCH  19  20
ENDBRANCH  18  19
ENDBRANCH  17  18
ENDBRANCH  16  17
ENDBRANCH  15  16
ENDBRANCH  14  15
ENDBRANCH  13  14
ENDBRANCH  11  13
ENDBRANCH   7   9
ENDBRANCH   6   7
ENDBRANCH   5   6
ENDBRANCH   1   5
BRANCH   2  27
ATOM     27  C   UNL     1      29.441  13.112  -1.930  0.00  0.00    +0.152 C 
BRANCH  27  28
ATOM     28  C   UNL     1      30.637  12.202  -1.584  0.00  0.00    +0.193 C 
ATOM     29  O   UNL     1      31.022  11.540  -2.809  0.00  0.00    -0.219 OA
BRANCH  28  30
ATOM     30  C   UNL     1      31.933  12.881  -1.089  0.00  0.00    +0.212 C 
ATOM     31  O   UNL     1      31.972  14.254  -1.509  0.00  0.00    -0.218 OA
BRANCH  30  32
ATOM     32  C   UNL     1      32.106  12.828   0.477  0.00  0.00    +0.171 C 
ATOM     33  O   UNL     1      31.067  13.517   1.167  0.00  0.00    -0.343 OA
ATOM     34  C   UNL     1      31.100  13.834   2.527  0.00  0.00    +0.220 C 
ATOM     35  C   UNL     1      32.412  14.536   2.917  0.00  0.00    +0.076 C 
ATOM     36  C   UNL     1      33.572  13.652   2.431  0.00  0.00    +0.177 C 
ATOM     37  O   UNL     1      34.812  14.236   2.803  0.00  0.00    -0.221 OA
ATOM     38  C   UNL     1      33.482  13.448   0.887  0.00  0.00    +0.155 C 
BRANCH  38  39
ATOM     39  N   UNL     1      34.587  12.614   0.420  0.00  0.00    -0.202 NA
ATOM     40  C   UNL     1      35.616  12.922  -0.410  0.00  0.00    +0.242 C 
ATOM     41  C   UNL     1      36.778  11.966  -0.494  0.00  0.00    +0.096 C 
ATOM     42  O   UNL     1      35.577  13.961  -1.066  0.00  0.00    -0.273 OA
ENDBRANCH  38  39
BRANCH  34  43
ATOM     43  C   UNL     1      30.790  12.567   3.494  0.00  0.00    +0.391 C 
ATOM     44  O   UNL     1      31.371  12.877   4.670  0.00  0.00    -0.243 OA
ATOM     45  O   UNL     1      29.842  11.852   2.875  0.00  0.00    -0.243 OA
ENDBRANCH  34  43
ENDBRANCH  30  32
ENDBRANCH  28  30
ENDBRANCH  27  28
ENDBRANCH   2  27
TORSDOF 22
