REMARK VINA RESULT:    -7.710      1.486      2.120
REMARK INTER + INTRA:         -15.247
REMARK INTER:                 -13.423
REMARK INTRA:                  -1.824
REMARK UNBOUND:                -2.128
REMARK  Name = lig_assembled_0.pdb
REMARK  12 active torsions:
REMARK  status: ('A' for Active; 'I' for Inactive)
REMARK    1  A    between atoms: _2  and  _9
REMARK    2  A    between atoms: _6  and  _7
REMARK    3  A    between atoms: _6  and  _16
REMARK    4  A    between atoms: _10  and  _11
REMARK    5  A    between atoms: _16  and  _18
REMARK    6  A    between atoms: _17  and  _22
REMARK    7  A    between atoms: _18  and  _21
REMARK    8  A    between atoms: _26  and  _36
REMARK    9  A    between atoms: _28  and  _29
REMARK   10  A    between atoms: _30  and  _32
REMARK   11  A    between atoms: _32  and  _34
REMARK   12  A    between atoms: _34  and  _36
REMARK                            x       y       z     vdW  Elec       q    Type
REMARK                         _______ _______ _______ _____ _____    ______ ____
ROOT
ATOM      1  C   UNL     1      27.880  17.352  -0.884  0.00  0.00    +0.400 C 
ATOM      2  N   UNL     1      28.272  16.269  -0.132  0.00  0.00    -0.278 N 
ATOM      3  H   UNL     1      28.577  16.708   0.793  0.00  0.00    +0.152 HD
ATOM      4  O   UNL     1      27.791  18.443  -0.326  0.00  0.00    -0.226 OA
ENDROOT
BRANCH   2   5
ATOM      5  C   UNL     1      28.441  14.822  -0.029  0.00  0.00    +0.152 C 
BRANCH   5   6
ATOM      6  C   UNL     1      29.535  14.333   0.943  0.00  0.00    +0.193 C 
ATOM      7  O   UNL     1      29.637  12.903   0.767  0.00  0.00    -0.219 OA
BRANCH   6   8
ATOM      8  C   UNL     1      30.972  14.853   0.722  0.00  0.00    +0.212 C 
ATOM      9  O   UNL     1      31.077  16.228   1.125  0.00  0.00    -0.218 OA
BRANCH   8  10
ATOM     10  C   UNL     1      32.064  14.017   1.493  0.00  0.00    +0.171 C 
ATOM     11  O   UNL     1      32.433  14.610   2.733  0.00  0.00    -0.343 OA
ATOM     12  C   UNL     1      33.536  14.221   3.496  0.00  0.00    +0.220 C 
ATOM     13  C   UNL     1      34.821  14.159   2.651  0.00  0.00    +0.076 C 
ATOM     14  C   UNL     1      34.530  13.269   1.432  0.00  0.00    +0.177 C 
ATOM     15  O   UNL     1      35.701  13.146   0.636  0.00  0.00    -0.221 OA
ATOM     16  C   UNL     1      33.343  13.858   0.607  0.00  0.00    +0.155 C 
BRANCH  16  17
ATOM     17  N   UNL     1      33.069  13.019  -0.556  0.00  0.00    -0.202 NA
ATOM     18  C   UNL     1      33.075  13.337  -1.876  0.00  0.00    +0.242 C 
ATOM     19  C   UNL     1      33.047  12.216  -2.882  0.00  0.00    +0.096 C 
ATOM     20  O   UNL     1      33.106  14.518  -2.217  0.00  0.00    -0.273 OA
ENDBRANCH  16  17
BRANCH  12  21
ATOM     21  C   UNL     1      33.298  12.841   4.321  0.00  0.00    +0.391 C 
ATOM     22  O   UNL     1      34.515  12.499   4.785  0.00  0.00    -0.243 OA
ATOM     23  O   UNL     1      31.974  12.731   4.483  0.00  0.00    -0.243 OA
ENDBRANCH  12  21
ENDBRANCH   8  10
ENDBRANCH   6   8
ENDBRANCH   5   6
ENDBRANCH   2   5
BRANCH   1  24
ATOM     24  O   UNL     1      27.669  17.117  -2.137  0.00  0.00    -0.450 OA
BRANCH  24  25
ATOM     25  C   UNL     1      26.749  17.456  -3.147  0.00  0.00    +0.240 C 
BRANCH  25  26
ATOM     26  C   UNL     1      26.484  16.411  -4.248  0.00  0.00    +0.100 C 
BRANCH  26  28
ATOM     27  N   UNL     1      24.722  14.770  -4.782  0.00  0.00    -0.134 NA
ATOM     28  C   UNL     1      25.383  15.515  -3.851  0.00  0.00    +0.086 A 
ATOM     29  C   UNL     1      24.862  15.247  -2.605  0.00  0.00    +0.139 A 
ATOM     30  N   UNL     1      23.808  14.393  -2.833  0.00  0.00    -0.219 N 
ATOM     31  N   UNL     1      23.803  14.054  -4.153  0.00  0.00    -0.061 NA
BRANCH  30  32
ATOM     32  C   UNL     1      22.892  13.783  -1.930  0.00  0.00    +0.079 A 
ATOM     33  C   UNL     1      23.181  12.661  -1.127  0.00  0.00    +0.062 A 
ATOM     34  C   UNL     1      22.162  12.132  -0.304  0.00  0.00    +0.015 A 
ATOM     35  C   UNL     1      20.882  12.688  -0.285  0.00  0.00    +0.001 A 
ATOM     36  C   UNL     1      20.602  13.801  -1.064  0.00  0.00    +0.002 A 
ATOM     37  C   UNL     1      21.598  14.350  -1.870  0.00  0.00    +0.028 A 
BRANCH  33  38
ATOM     38  C   UNL     1      24.548  12.098  -0.939  0.00  0.00    +0.244 C 
ATOM     39  O   UNL     1      24.931  11.104  -1.535  0.00  0.00    -0.270 OA
ATOM     40  N   UNL     1      25.396  12.761  -0.092  0.00  0.00    -0.325 N 
ATOM     41  H   UNL     1      26.339  12.401  -0.011  0.00  0.00    +0.145 HD
ATOM     42  H   UNL     1      25.160  13.595   0.425  0.00  0.00    +0.145 HD
ENDBRANCH  33  38
ENDBRANCH  30  32
ENDBRANCH  26  28
ENDBRANCH  25  26
ENDBRANCH  24  25
ENDBRANCH   1  24
TORSDOF 12
