REMARK VINA RESULT:    -6.908      1.955      3.003
REMARK INTER + INTRA:         -14.168
REMARK INTER:                 -12.673
REMARK INTRA:                  -1.495
REMARK UNBOUND:                -1.807
REMARK  Name = lig_assembled_75.pdb
REMARK  14 active torsions:
REMARK  status: ('A' for Active; 'I' for Inactive)
REMARK    1  A    between atoms: _2  and  _8
REMARK    2  A    between atoms: _5  and  _6
REMARK    3  A    between atoms: _5  and  _18
REMARK    4  A    between atoms: _10  and  _11
REMARK    5  A    between atoms: _12  and  _13
REMARK    6  A    between atoms: _13  and  _16
REMARK    7  A    between atoms: _18  and  _20
REMARK    8  A    between atoms: _19  and  _24
REMARK    9  A    between atoms: _20  and  _23
REMARK   10  A    between atoms: _28  and  _38
REMARK   11  A    between atoms: _30  and  _31
REMARK   12  A    between atoms: _32  and  _34
REMARK   13  A    between atoms: _34  and  _36
REMARK   14  A    between atoms: _36  and  _38
REMARK                            x       y       z     vdW  Elec       q    Type
REMARK                         _______ _______ _______ _____ _____    ______ ____
ROOT
ATOM      1  C   UNL     1      28.173  16.994  -0.901  0.00  0.00    +0.400 C 
ATOM      2  N   UNL     1      28.286  15.753  -0.319  0.00  0.00    -0.278 N 
ATOM      3  H   UNL     1      28.680  15.970   0.651  0.00  0.00    +0.152 HD
ATOM      4  O   UNL     1      28.345  17.983  -0.194  0.00  0.00    -0.226 OA
ENDROOT
BRANCH   2   5
ATOM      5  C   UNL     1      28.100  14.308  -0.423  0.00  0.00    +0.152 C 
BRANCH   5   6
ATOM      6  C   UNL     1      29.328  13.439  -0.082  0.00  0.00    +0.193 C 
ATOM      7  O   UNL     1      28.898  12.486   0.916  0.00  0.00    -0.219 OA
BRANCH   6   8
ATOM      8  C   UNL     1      29.926  12.571  -1.211  0.00  0.00    +0.212 C 
ATOM      9  O   UNL     1      29.324  12.905  -2.472  0.00  0.00    -0.218 OA
BRANCH   8  10
ATOM     10  C   UNL     1      31.490  12.712  -1.346  0.00  0.00    +0.171 C 
ATOM     11  O   UNL     1      31.934  14.056  -1.197  0.00  0.00    -0.343 OA
ATOM     12  C   UNL     1      33.221  14.500  -1.507  0.00  0.00    +0.220 C 
ATOM     13  C   UNL     1      33.652  14.060  -2.917  0.00  0.00    +0.076 C 
ATOM     14  C   UNL     1      33.453  12.538  -3.007  0.00  0.00    +0.177 C 
ATOM     15  O   UNL     1      33.876  12.071  -4.281  0.00  0.00    -0.221 OA
ATOM     16  C   UNL     1      31.960  12.174  -2.737  0.00  0.00    +0.155 C 
BRANCH  16  17
ATOM     17  N   UNL     1      31.765  10.729  -2.828  0.00  0.00    -0.202 NA
ATOM     18  C   UNL     1      31.161   9.995  -3.797  0.00  0.00    +0.242 C 
ATOM     19  C   UNL     1      31.357   8.501  -3.789  0.00  0.00    +0.096 C 
ATOM     20  O   UNL     1      30.477  10.558  -4.649  0.00  0.00    -0.273 OA
ENDBRANCH  16  17
BRANCH  12  21
ATOM     21  C   UNL     1      34.331  14.098  -0.391  0.00  0.00    +0.391 C 
ATOM     22  O   UNL     1      33.621  13.819   0.720  0.00  0.00    -0.243 OA
ATOM     23  O   UNL     1      35.475  13.905  -1.059  0.00  0.00    -0.243 OA
ENDBRANCH  12  21
ENDBRANCH   8  10
ENDBRANCH   6   8
ENDBRANCH   5   6
ENDBRANCH   2   5
BRANCH   1  24
ATOM     24  O   UNL     1      27.922  16.996  -2.169  0.00  0.00    -0.450 OA
BRANCH  24  25
ATOM     25  C   UNL     1      26.906  17.403  -3.056  0.00  0.00    +0.240 C 
BRANCH  25  26
ATOM     26  C   UNL     1      26.581  16.472  -4.240  0.00  0.00    +0.100 C 
BRANCH  26  28
ATOM     27  N   UNL     1      25.101  14.549  -4.720  0.00  0.00    -0.134 NA
ATOM     28  C   UNL     1      25.467  15.571  -3.893  0.00  0.00    +0.086 A 
ATOM     29  C   UNL     1      24.649  15.569  -2.787  0.00  0.00    +0.139 A 
ATOM     30  N   UNL     1      23.786  14.516  -2.984  0.00  0.00    -0.220 N 
ATOM     31  N   UNL     1      24.079  13.914  -4.163  0.00  0.00    -0.061 NA
BRANCH  30  32
ATOM     32  C   UNL     1      22.715  14.077  -2.164  0.00  0.00    +0.068 A 
ATOM     33  C   UNL     1      22.967  13.140  -1.145  0.00  0.00    +0.035 A 
ATOM     34  C   UNL     1      21.922  12.634  -0.360  0.00  0.00    -0.023 A 
ATOM     35  C   UNL     1      20.627  13.127  -0.565  0.00  0.00    +0.008 A 
ATOM     36  C   UNL     1      20.375  14.074  -1.560  0.00  0.00    +0.003 A 
ATOM     37  C   UNL     1      21.411  14.543  -2.365  0.00  0.00    +0.028 A 
BRANCH  34  38
ATOM     38  C   UNL     1      22.137  11.620   0.683  0.00  0.00    +0.015 C 
ATOM     39  C   UNL     1      21.996  10.300   0.481  0.00  0.00    +0.092 C 
BRANCH  39  40
ATOM     40  C   UNL     1      22.183   9.364   1.607  0.00  0.00    +0.330 C 
ATOM     41  O   UNL     1      22.552   8.209   1.494  0.00  0.00    -0.246 OA
BRANCH  40  42
ATOM     42  O   UNL     1      21.908   9.942   2.793  0.00  0.00    -0.478 OA
ATOM     43  H   UNL     1      22.446   9.638   3.546  0.00  0.00    +0.295 HD
ENDBRANCH  40  42
ENDBRANCH  39  40
ENDBRANCH  34  38
ENDBRANCH  30  32
ENDBRANCH  26  28
ENDBRANCH  25  26
ENDBRANCH  24  25
ENDBRANCH   1  24
TORSDOF 14
