REMARK VINA RESULT:    -6.354      1.885      2.243
REMARK INTER + INTRA:         -12.890
REMARK INTER:                 -11.324
REMARK INTRA:                  -1.566
REMARK UNBOUND:                -1.336
REMARK  Name = lig_assembled_19.pdb
REMARK  15 active torsions:
REMARK  status: ('A' for Active; 'I' for Inactive)
REMARK    1  A    between atoms: _2  and  _8
REMARK    2  A    between atoms: _4  and  _10
REMARK    3  A    between atoms: _5  and  _6
REMARK    4  A    between atoms: _5  and  _13
REMARK    5  A    between atoms: _8  and  _9
REMARK    6  A    between atoms: _9  and  _12
REMARK    7  A    between atoms: _10  and  _12
REMARK    8  A    between atoms: _13  and  _15
REMARK    9  A    between atoms: _14  and  _19
REMARK   10  A    between atoms: _15  and  _18
REMARK   11  A    between atoms: _23  and  _33
REMARK   12  A    between atoms: _25  and  _26
REMARK   13  A    between atoms: _27  and  _29
REMARK   14  A    between atoms: _29  and  _31
REMARK   15  A    between atoms: _31  and  _33
REMARK                            x       y       z     vdW  Elec       q    Type
REMARK                         _______ _______ _______ _____ _____    ______ ____
ROOT
ATOM      1  C   UNL     1      28.166  14.941  -0.875  0.00  0.00    +0.152 C 
ENDROOT
BRANCH   1   3
ATOM      2  C   UNL     1      27.541  17.417  -1.835  0.00  0.00    +0.400 C 
ATOM      3  N   UNL     1      27.990  16.380  -1.052  0.00  0.00    -0.278 N 
ATOM      4  H   UNL     1      28.364  16.872  -0.181  0.00  0.00    +0.152 HD
ATOM      5  O   UNL     1      27.494  18.540  -1.339  0.00  0.00    -0.226 OA
BRANCH   2   6
ATOM      6  O   UNL     1      27.234  17.108  -3.052  0.00  0.00    -0.450 OA
BRANCH   6   7
ATOM      7  C   UNL     1      26.487  16.141  -3.753  0.00  0.00    +0.240 C 
BRANCH   7   8
ATOM      8  C   UNL     1      24.964  16.117  -3.524  0.00  0.00    +0.100 C 
BRANCH   8  10
ATOM      9  N   UNL     1      23.388  14.930  -2.024  0.00  0.00    -0.134 NA
ATOM     10  C   UNL     1      24.589  14.965  -2.684  0.00  0.00    +0.086 A 
ATOM     11  C   UNL     1      25.285  13.810  -2.409  0.00  0.00    +0.133 A 
ATOM     12  N   UNL     1      24.460  13.122  -1.572  0.00  0.00    -0.248 N 
ATOM     13  N   UNL     1      23.319  13.793  -1.345  0.00  0.00    -0.065 NA
BRANCH  12  14
ATOM     14  C   UNL     1      24.685  11.828  -0.968  0.00  0.00    +0.186 C 
BRANCH  14  15
ATOM     15  C   UNL     1      24.169  11.775   0.467  0.00  0.00    +0.255 C 
BRANCH  15  16
ATOM     16  O   UNL     1      23.742  10.452   0.845  0.00  0.00    -0.463 OA
BRANCH  16  17
ATOM     17  C   UNL     1      22.404  10.282   1.010  0.00  0.00    +0.304 C 
ATOM     18  O   UNL     1      21.798   9.243   0.785  0.00  0.00    -0.251 OA
ATOM     19  C   UNL     1      21.767  11.531   1.538  0.00  0.00    +0.136 C 
ENDBRANCH  16  17
ENDBRANCH  15  16
ENDBRANCH  14  15
ENDBRANCH  12  14
ENDBRANCH   8  10
ENDBRANCH   7   8
ENDBRANCH   6   7
ENDBRANCH   2   6
ENDBRANCH   1   3
BRANCH   1  20
ATOM     20  C   UNL     1      29.187  14.509   0.198  0.00  0.00    +0.193 C 
ATOM     21  O   UNL     1      29.040  13.081   0.358  0.00  0.00    -0.219 OA
BRANCH  20  22
ATOM     22  C   UNL     1      30.685  14.709  -0.119  0.00  0.00    +0.212 C 
ATOM     23  O   UNL     1      31.021  16.106  -0.096  0.00  0.00    -0.218 OA
BRANCH  22  24
ATOM     24  C   UNL     1      31.641  13.945   0.875  0.00  0.00    +0.171 C 
ATOM     25  O   UNL     1      31.736  14.584   2.144  0.00  0.00    -0.343 OA
ATOM     26  C   UNL     1      32.685  14.266   3.118  0.00  0.00    +0.220 C 
ATOM     27  C   UNL     1      34.111  14.247   2.540  0.00  0.00    +0.076 C 
ATOM     28  C   UNL     1      34.102  13.317   1.316  0.00  0.00    +0.177 C 
ATOM     29  O   UNL     1      35.409  13.232   0.765  0.00  0.00    -0.221 OA
ATOM     30  C   UNL     1      33.074  13.828   0.259  0.00  0.00    +0.155 C 
BRANCH  30  31
ATOM     31  N   UNL     1      33.067  12.950  -0.908  0.00  0.00    -0.202 NA
ATOM     32  C   UNL     1      33.245  13.250  -2.220  0.00  0.00    +0.242 C 
ATOM     33  C   UNL     1      33.485  12.119  -3.186  0.00  0.00    +0.096 C 
ATOM     34  O   UNL     1      33.209  14.423  -2.586  0.00  0.00    -0.273 OA
ENDBRANCH  30  31
BRANCH  26  35
ATOM     35  C   UNL     1      32.350  12.896   3.925  0.00  0.00    +0.391 C 
ATOM     36  O   UNL     1      33.500  12.570   4.548  0.00  0.00    -0.243 OA
ATOM     37  O   UNL     1      31.017  12.777   3.915  0.00  0.00    -0.243 OA
ENDBRANCH  26  35
ENDBRANCH  22  24
ENDBRANCH  20  22
ENDBRANCH   1  20
TORSDOF 14
