REMARK VINA RESULT:    -6.258      3.146      5.069
REMARK INTER + INTRA:         -13.969
REMARK INTER:                 -11.318
REMARK INTRA:                  -2.651
REMARK UNBOUND:                -1.675
REMARK  Name = lig_assembled_33.pdb
REMARK  17 active torsions:
REMARK  status: ('A' for Active; 'I' for Inactive)
REMARK    1  A    between atoms: _2  and  _8
REMARK    2  A    between atoms: _4  and  _12
REMARK    3  A    between atoms: _4  and  _13
REMARK    4  A    between atoms: _5  and  _6
REMARK    5  A    between atoms: _5  and  _15
REMARK    6  A    between atoms: _8  and  _9
REMARK    7  A    between atoms: _9  and  _10
REMARK    8  A    between atoms: _10  and  _11
REMARK    9  A    between atoms: _11  and  _12
REMARK   10  A    between atoms: _15  and  _17
REMARK   11  A    between atoms: _16  and  _21
REMARK   12  A    between atoms: _17  and  _20
REMARK   13  A    between atoms: _25  and  _35
REMARK   14  A    between atoms: _27  and  _28
REMARK   15  A    between atoms: _29  and  _31
REMARK   16  A    between atoms: _31  and  _33
REMARK   17  A    between atoms: _33  and  _35
REMARK                            x       y       z     vdW  Elec       q    Type
REMARK                         _______ _______ _______ _____ _____    ______ ____
ROOT
ATOM      1  C   UNL     1      27.831  16.319  -1.630  0.00  0.00    +0.400 C 
ATOM      2  N   UNL     1      28.162  15.188  -0.923  0.00  0.00    -0.278 N 
ATOM      3  H   UNL     1      29.092  15.446  -0.464  0.00  0.00    +0.152 HD
ATOM      4  O   UNL     1      28.499  17.334  -1.446  0.00  0.00    -0.226 OA
ENDROOT
BRANCH   1   5
ATOM      5  O   UNL     1      26.848  16.193  -2.460  0.00  0.00    -0.450 OA
BRANCH   5   6
ATOM      6  C   UNL     1      26.418  16.718  -3.695  0.00  0.00    +0.240 C 
BRANCH   6   7
ATOM      7  C   UNL     1      26.125  15.718  -4.829  0.00  0.00    +0.100 C 
BRANCH   7   9
ATOM      8  N   UNL     1      23.934  14.589  -5.022  0.00  0.00    -0.134 NA
ATOM      9  C   UNL     1      25.141  14.712  -4.388  0.00  0.00    +0.086 A 
ATOM     10  C   UNL     1      25.209  13.792  -3.365  0.00  0.00    +0.133 A 
ATOM     11  N   UNL     1      24.017  13.138  -3.435  0.00  0.00    -0.251 N 
ATOM     12  N   UNL     1      23.245  13.630  -4.419  0.00  0.00    -0.065 NA
BRANCH  11  13
ATOM     13  C   UNL     1      23.538  12.055  -2.601  0.00  0.00    +0.145 C 
BRANCH  13  14
ATOM     14  C   UNL     1      22.199  11.504  -3.090  0.00  0.00    +0.023 C 
BRANCH  14  15
ATOM     15  C   UNL     1      21.138  11.470  -1.987  0.00  0.00    +0.002 C 
BRANCH  15  16
ATOM     16  C   UNL     1      21.426  12.564  -0.955  0.00  0.00    +0.011 C 
BRANCH  16  17
ATOM     17  C   UNL     1      20.396  13.690  -0.983  0.00  0.00    +0.120 C 
BRANCH  17  18
ATOM     18  C   UNL     1      20.521  14.517  -2.243  0.00  0.00    +0.305 C 
ATOM     19  O   UNL     1      19.712  14.541  -3.156  0.00  0.00    -0.251 OA
BRANCH  18  20
ATOM     20  O   UNL     1      21.653  15.259  -2.262  0.00  0.00    -0.481 OA
ATOM     21  H   UNL     1      22.041  15.362  -3.150  0.00  0.00    +0.295 HD
ENDBRANCH  18  20
ENDBRANCH  17  18
ENDBRANCH  16  17
ENDBRANCH  15  16
ENDBRANCH  14  15
ENDBRANCH  13  14
ENDBRANCH  11  13
ENDBRANCH   7   9
ENDBRANCH   6   7
ENDBRANCH   5   6
ENDBRANCH   1   5
BRANCH   2  22
ATOM     22  C   UNL     1      27.815  13.829  -0.516  0.00  0.00    +0.152 C 
BRANCH  22  23
ATOM     23  C   UNL     1      28.364  12.692  -1.403  0.00  0.00    +0.193 C 
ATOM     24  O   UNL     1      28.418  13.207  -2.752  0.00  0.00    -0.219 OA
BRANCH  23  25
ATOM     25  C   UNL     1      29.800  12.197  -1.123  0.00  0.00    +0.212 C 
ATOM     26  O   UNL     1      29.878  10.770  -1.276  0.00  0.00    -0.218 OA
BRANCH  25  27
ATOM     27  C   UNL     1      30.884  12.863  -2.055  0.00  0.00    +0.171 C 
ATOM     28  O   UNL     1      31.574  11.912  -2.858  0.00  0.00    -0.343 OA
ATOM     29  C   UNL     1      32.734  12.189  -3.585  0.00  0.00    +0.220 C 
ATOM     30  C   UNL     1      33.804  12.872  -2.715  0.00  0.00    +0.076 C 
ATOM     31  C   UNL     1      33.148  14.094  -2.051  0.00  0.00    +0.177 C 
ATOM     32  O   UNL     1      34.107  14.787  -1.264  0.00  0.00    -0.221 OA
ATOM     33  C   UNL     1      31.925  13.648  -1.191  0.00  0.00    +0.155 C 
BRANCH  33  34
ATOM     34  N   UNL     1      31.304  14.806  -0.554  0.00  0.00    -0.202 NA
ATOM     35  C   UNL     1      31.241  15.144   0.759  0.00  0.00    +0.242 C 
ATOM     36  C   UNL     1      30.799  16.538   1.119  0.00  0.00    +0.096 C 
ATOM     37  O   UNL     1      31.545  14.315   1.615  0.00  0.00    -0.273 OA
ENDBRANCH  33  34
BRANCH  29  38
ATOM     38  C   UNL     1      32.458  13.020  -4.953  0.00  0.00    +0.391 C 
ATOM     39  O   UNL     1      33.637  13.600  -5.252  0.00  0.00    -0.243 OA
ATOM     40  O   UNL     1      31.283  12.582  -5.421  0.00  0.00    -0.243 OA
ENDBRANCH  29  38
ENDBRANCH  25  27
ENDBRANCH  23  25
ENDBRANCH  22  23
ENDBRANCH   2  22
TORSDOF 17
