REMARK VINA RESULT:    -7.225      1.862      2.377
REMARK INTER + INTRA:         -13.721
REMARK INTER:                 -12.079
REMARK INTRA:                  -1.642
REMARK UNBOUND:                -1.850
REMARK  Name = lig_assembled_2.pdb
REMARK  11 active torsions:
REMARK  status: ('A' for Active; 'I' for Inactive)
REMARK    1  A    between atoms: _2  and  _8
REMARK    2  A    between atoms: _5  and  _6
REMARK    3  A    between atoms: _5  and  _13
REMARK    4  A    between atoms: _13  and  _15
REMARK    5  A    between atoms: _14  and  _19
REMARK    6  A    between atoms: _15  and  _18
REMARK    7  A    between atoms: _23  and  _33
REMARK    8  A    between atoms: _25  and  _26
REMARK    9  A    between atoms: _27  and  _29
REMARK   10  A    between atoms: _29  and  _31
REMARK   11  A    between atoms: _31  and  _33
REMARK                            x       y       z     vdW  Elec       q    Type
REMARK                         _______ _______ _______ _____ _____    ______ ____
ROOT
ATOM      1  C   UNL     1      27.828  17.440  -1.191  0.00  0.00    +0.400 C 
ATOM      2  N   UNL     1      28.226  16.290  -0.551  0.00  0.00    -0.278 N 
ATOM      3  H   UNL     1      28.387  16.609   0.456  0.00  0.00    +0.152 HD
ATOM      4  O   UNL     1      27.583  18.429  -0.505  0.00  0.00    -0.226 OA
ENDROOT
BRANCH   1   5
ATOM      5  O   UNL     1      27.780  17.375  -2.481  0.00  0.00    -0.450 OA
BRANCH   5   6
ATOM      6  C   UNL     1      26.822  17.289  -3.511  0.00  0.00    +0.240 C 
BRANCH   6   7
ATOM      7  C   UNL     1      26.483  15.886  -4.050  0.00  0.00    +0.100 C 
BRANCH   7   9
ATOM      8  N   UNL     1      25.222  14.813  -2.211  0.00  0.00    -0.134 NA
ATOM      9  C   UNL     1      25.230  15.394  -3.446  0.00  0.00    +0.086 A 
ATOM     10  C   UNL     1      23.946  15.422  -3.939  0.00  0.00    +0.139 A 
ATOM     11  N   UNL     1      23.172  14.866  -2.946  0.00  0.00    -0.220 N 
ATOM     12  N   UNL     1      23.970  14.489  -1.917  0.00  0.00    -0.061 NA
BRANCH  11  13
ATOM     13  C   UNL     1      21.762  14.704  -2.904  0.00  0.00    +0.067 A 
ATOM     14  C   UNL     1      20.942  15.278  -3.886  0.00  0.00    +0.029 A 
ATOM     15  C   UNL     1      19.552  15.138  -3.805  0.00  0.00    +0.022 A 
ATOM     16  C   UNL     1      18.981  14.427  -2.752  0.00  0.00    +0.041 A 
ATOM     17 CL   UNL     1      17.271  14.278  -2.650  0.00  0.00    -0.084 Cl
ATOM     18  C   UNL     1      19.789  13.841  -1.780  0.00  0.00    +0.022 A 
ATOM     19  C   UNL     1      21.178  13.976  -1.854  0.00  0.00    +0.029 A 
ENDBRANCH  11  13
ENDBRANCH   7   9
ENDBRANCH   6   7
ENDBRANCH   5   6
ENDBRANCH   1   5
BRANCH   2  20
ATOM     20  C   UNL     1      28.507  14.858  -0.626  0.00  0.00    +0.152 C 
BRANCH  20  21
ATOM     21  C   UNL     1      29.513  14.309   0.406  0.00  0.00    +0.193 C 
ATOM     22  O   UNL     1      29.700  12.909   0.100  0.00  0.00    -0.219 OA
BRANCH  21  23
ATOM     23  C   UNL     1      30.941  14.898   0.397  0.00  0.00    +0.212 C 
ATOM     24  O   UNL     1      30.935  16.234   0.928  0.00  0.00    -0.218 OA
BRANCH  23  25
ATOM     25  C   UNL     1      31.978  14.036   1.213  0.00  0.00    +0.171 C 
ATOM     26  O   UNL     1      32.249  14.580   2.501  0.00  0.00    -0.343 OA
ATOM     27  C   UNL     1      33.295  14.163   3.328  0.00  0.00    +0.220 C 
ATOM     28  C   UNL     1      34.640  14.142   2.580  0.00  0.00    +0.076 C 
ATOM     29  C   UNL     1      34.447  13.302   1.306  0.00  0.00    +0.177 C 
ATOM     30  O   UNL     1      35.674  13.216   0.596  0.00  0.00    -0.221 OA
ATOM     31  C   UNL     1      33.321  13.919   0.420  0.00  0.00    +0.155 C 
BRANCH  31  32
ATOM     32  N   UNL     1      33.140  13.127  -0.794  0.00  0.00    -0.202 NA
ATOM     33  C   UNL     1      33.256  13.495  -2.095  0.00  0.00    +0.242 C 
ATOM     34  C   UNL     1      33.306  12.414  -3.143  0.00  0.00    +0.096 C 
ATOM     35  O   UNL     1      33.319  14.688  -2.386  0.00  0.00    -0.273 OA
ENDBRANCH  31  32
BRANCH  27  36
ATOM     36  C   UNL     1      33.006  12.750   4.076  0.00  0.00    +0.391 C 
ATOM     37  O   UNL     1      34.212  12.329   4.502  0.00  0.00    -0.243 OA
ATOM     38  O   UNL     1      31.680  12.689   4.250  0.00  0.00    -0.243 OA
ENDBRANCH  27  36
ENDBRANCH  23  25
ENDBRANCH  21  23
ENDBRANCH  20  21
ENDBRANCH   2  20
TORSDOF 11
