REMARK VINA RESULT:    -6.958      1.248      3.311
REMARK INTER + INTRA:         -13.983
REMARK INTER:                 -12.568
REMARK INTRA:                  -1.415
REMARK UNBOUND:                -2.144
REMARK  Name = lig_assembled_63.pdb
REMARK  12 active torsions:
REMARK  status: ('A' for Active; 'I' for Inactive)
REMARK    1  A    between atoms: _2  and  _10
REMARK    2  A    between atoms: _6  and  _14
REMARK    3  A    between atoms: _7  and  _8
REMARK    4  A    between atoms: _7  and  _15
REMARK    5  A    between atoms: _15  and  _17
REMARK    6  A    between atoms: _16  and  _21
REMARK    7  A    between atoms: _17  and  _20
REMARK    8  A    between atoms: _25  and  _35
REMARK    9  A    between atoms: _27  and  _28
REMARK   10  A    between atoms: _29  and  _31
REMARK   11  A    between atoms: _31  and  _33
REMARK   12  A    between atoms: _33  and  _35
REMARK                            x       y       z     vdW  Elec       q    Type
REMARK                         _______ _______ _______ _____ _____    ______ ____
ROOT
ATOM      1  C   UNL     1      27.761  17.393  -0.797  0.00  0.00    +0.400 C 
ATOM      2  N   UNL     1      28.401  16.432  -0.051  0.00  0.00    -0.278 N 
ATOM      3  H   UNL     1      28.670  16.951   0.844  0.00  0.00    +0.152 HD
ATOM      4  O   UNL     1      27.495  18.464  -0.256  0.00  0.00    -0.226 OA
ENDROOT
BRANCH   2   5
ATOM      5  C   UNL     1      28.855  15.049   0.071  0.00  0.00    +0.152 C 
BRANCH   5   6
ATOM      6  C   UNL     1      30.311  14.771  -0.357  0.00  0.00    +0.193 C 
ATOM      7  O   UNL     1      30.936  16.057  -0.562  0.00  0.00    -0.219 OA
BRANCH   6   8
ATOM      8  C   UNL     1      31.229  14.053   0.656  0.00  0.00    +0.212 C 
ATOM      9  O   UNL     1      30.585  12.877   1.173  0.00  0.00    -0.218 OA
BRANCH   8  10
ATOM     10  C   UNL     1      32.624  13.638   0.050  0.00  0.00    +0.171 C 
ATOM     11  O   UNL     1      32.496  12.863  -1.138  0.00  0.00    -0.343 OA
ATOM     12  C   UNL     1      33.545  12.165  -1.740  0.00  0.00    +0.220 C 
ATOM     13  C   UNL     1      34.296  11.280  -0.730  0.00  0.00    +0.076 C 
ATOM     14  C   UNL     1      34.708  12.174   0.451  0.00  0.00    +0.177 C 
ATOM     15  O   UNL     1      35.442  11.412   1.399  0.00  0.00    -0.221 OA
ATOM     16  C   UNL     1      33.445  12.821   1.101  0.00  0.00    +0.155 C 
BRANCH  16  17
ATOM     17  N   UNL     1      33.831  13.666   2.228  0.00  0.00    -0.202 NA
ATOM     18  C   UNL     1      33.523  13.551   3.545  0.00  0.00    +0.242 C 
ATOM     19  C   UNL     1      34.292  14.385   4.536  0.00  0.00    +0.096 C 
ATOM     20  O   UNL     1      32.634  12.776   3.895  0.00  0.00    -0.273 OA
ENDBRANCH  16  17
BRANCH  12  21
ATOM     21  C   UNL     1      34.564  13.119  -2.572  0.00  0.00    +0.391 C 
ATOM     22  O   UNL     1      35.690  12.392  -2.704  0.00  0.00    -0.243 OA
ATOM     23  O   UNL     1      33.818  14.117  -3.063  0.00  0.00    -0.243 OA
ENDBRANCH  12  21
ENDBRANCH   8  10
ENDBRANCH   6   8
ENDBRANCH   5   6
ENDBRANCH   2   5
BRANCH   1  24
ATOM     24  O   UNL     1      27.524  17.080  -2.028  0.00  0.00    -0.450 OA
BRANCH  24  25
ATOM     25  C   UNL     1      26.637  17.426  -3.066  0.00  0.00    +0.240 C 
BRANCH  25  26
ATOM     26  C   UNL     1      26.468  16.421  -4.222  0.00  0.00    +0.100 C 
BRANCH  26  28
ATOM     27  N   UNL     1      24.834  14.704  -4.920  0.00  0.00    -0.134 NA
ATOM     28  C   UNL     1      25.361  15.489  -3.936  0.00  0.00    +0.087 A 
ATOM     29  C   UNL     1      24.687  15.247  -2.763  0.00  0.00    +0.141 A 
ATOM     30  N   UNL     1      23.717  14.321  -3.093  0.00  0.00    -0.201 N 
ATOM     31  N   UNL     1      23.843  13.995  -4.397  0.00  0.00    -0.059 NA
BRANCH  30  32
ATOM     32  C   UNL     1      22.696  13.821  -2.232  0.00  0.00    +0.173 A 
ATOM     33  C   UNL     1      21.427  14.401  -2.162  0.00  0.00    +0.096 A 
ATOM     34  C   UNL     1      20.530  13.889  -1.210  0.00  0.00    +0.024 A 
ATOM     35  C   UNL     1      20.896  12.826  -0.392  0.00  0.00    +0.021 A 
ATOM     36  C   UNL     1      22.156  12.286  -0.554  0.00  0.00    +0.113 A 
ATOM     37  N   UNL     1      23.055  12.757  -1.444  0.00  0.00    -0.235 NA
BRANCH  33  38
ATOM     38  C   UNL     1      20.950  15.467  -2.993  0.00  0.00    +0.103 C 
ATOM     39  N   UNL     1      20.642  16.390  -3.628  0.00  0.00    -0.191 NA
ENDBRANCH  33  38
ENDBRANCH  30  32
ENDBRANCH  26  28
ENDBRANCH  25  26
ENDBRANCH  24  25
ENDBRANCH   1  24
TORSDOF 12
