REMARK VINA RESULT:    -7.094      3.691      7.901
REMARK INTER + INTRA:         -13.073
REMARK INTER:                 -10.945
REMARK INTRA:                  -2.128
REMARK UNBOUND:                -1.418
REMARK  Name = lig_assembled_20.pdb
REMARK  11 active torsions:
REMARK  status: ('A' for Active; 'I' for Inactive)
REMARK    1  A    between atoms: _2  and  _10
REMARK    2  A    between atoms: _7  and  _8
REMARK    3  A    between atoms: _7  and  _16
REMARK    4  A    between atoms: _16  and  _18
REMARK    5  A    between atoms: _17  and  _22
REMARK    6  A    between atoms: _18  and  _21
REMARK    7  A    between atoms: _26  and  _36
REMARK    8  A    between atoms: _28  and  _29
REMARK    9  A    between atoms: _30  and  _32
REMARK   10  A    between atoms: _32  and  _34
REMARK   11  A    between atoms: _34  and  _36
REMARK                            x       y       z     vdW  Elec       q    Type
REMARK                         _______ _______ _______ _____ _____    ______ ____
ROOT
ATOM      1  C   UNL     1      27.874  17.504  -1.039  0.00  0.00    +0.400 C 
ATOM      2  N   UNL     1      27.174  17.499  -2.222  0.00  0.00    -0.278 N 
ATOM      3  H   UNL     1      26.323  18.110  -2.009  0.00  0.00    +0.152 HD
ATOM      4  O   UNL     1      27.513  18.278  -0.156  0.00  0.00    -0.226 OA
ENDROOT
BRANCH   1   5
ATOM      5  O   UNL     1      28.844  16.653  -0.958  0.00  0.00    -0.450 OA
BRANCH   5   6
ATOM      6  C   UNL     1      29.487  15.854   0.007  0.00  0.00    +0.240 C 
BRANCH   6   7
ATOM      7  C   UNL     1      29.565  14.339  -0.263  0.00  0.00    +0.100 C 
BRANCH   7   9
ATOM      8  N   UNL     1      28.214  13.998   1.789  0.00  0.00    -0.134 NA
ATOM      9  C   UNL     1      28.542  13.622   0.519  0.00  0.00    +0.086 A 
ATOM     10  C   UNL     1      27.782  12.531   0.166  0.00  0.00    +0.139 A 
ATOM     11  N   UNL     1      26.993  12.272   1.263  0.00  0.00    -0.220 N 
ATOM     12  N   UNL     1      27.272  13.175   2.234  0.00  0.00    -0.061 NA
BRANCH  11  13
ATOM     13  C   UNL     1      26.021  11.251   1.428  0.00  0.00    +0.068 A 
ATOM     14  C   UNL     1      26.367   9.912   1.186  0.00  0.00    +0.030 A 
ATOM     15  C   UNL     1      25.433   8.878   1.344  0.00  0.00    +0.030 A 
ATOM     16  C   UNL     1      24.145   9.238   1.752  0.00  0.00    +0.066 A 
ATOM     17  C   UNL     1      23.772  10.553   1.998  0.00  0.00    +0.021 A 
ATOM     18  C   UNL     1      22.415  10.472   2.379  0.00  0.00    +0.142 A 
ATOM     19  N   UNL     1      21.954   9.220   2.380  0.00  0.00    -0.181 NA
ATOM     20  N   UNL     1      23.021   8.494   2.000  0.00  0.00    -0.277 N 
ATOM     21  H   UNL     1      22.917   7.489   1.924  0.00  0.00    +0.189 HD
ATOM     22  C   UNL     1      24.716  11.583   1.836  0.00  0.00    +0.039 A 
ENDBRANCH  11  13
ENDBRANCH   7   9
ENDBRANCH   6   7
ENDBRANCH   5   6
ENDBRANCH   1   5
BRANCH   2  23
ATOM     23  C   UNL     1      27.080  17.055  -3.611  0.00  0.00    +0.152 C 
BRANCH  23  24
ATOM     24  C   UNL     1      25.858  16.183  -3.965  0.00  0.00    +0.193 C 
ATOM     25  O   UNL     1      25.963  15.873  -5.372  0.00  0.00    -0.219 OA
BRANCH  24  26
ATOM     26  C   UNL     1      25.737  14.807  -3.274  0.00  0.00    +0.212 C 
ATOM     27  O   UNL     1      26.211  14.882  -1.920  0.00  0.00    -0.218 OA
BRANCH  26  28
ATOM     28  C   UNL     1      24.265  14.242  -3.262  0.00  0.00    +0.171 C 
ATOM     29  O   UNL     1      23.286  15.261  -3.435  0.00  0.00    -0.343 OA
ATOM     30  C   UNL     1      21.917  15.082  -3.224  0.00  0.00    +0.220 C 
ATOM     31  C   UNL     1      21.629  14.439  -1.856  0.00  0.00    +0.076 C 
ATOM     32  C   UNL     1      22.472  13.156  -1.762  0.00  0.00    +0.177 C 
ATOM     33  O   UNL     1      22.214  12.499  -0.529  0.00  0.00    -0.221 OA
ATOM     34  C   UNL     1      23.987  13.496  -1.916  0.00  0.00    +0.155 C 
BRANCH  34  35
ATOM     35  N   UNL     1      24.792  12.280  -1.821  0.00  0.00    -0.202 NA
ATOM     36  C   UNL     1      24.879  11.228  -2.673  0.00  0.00    +0.242 C 
ATOM     37  C   UNL     1      26.004  10.244  -2.483  0.00  0.00    +0.096 C 
ATOM     38  O   UNL     1      24.049  11.103  -3.572  0.00  0.00    -0.273 OA
ENDBRANCH  34  35
BRANCH  30  39
ATOM     39  C   UNL     1      21.176  14.281  -4.428  0.00  0.00    +0.391 C 
ATOM     40  O   UNL     1      19.990  13.900  -3.914  0.00  0.00    -0.243 OA
ATOM     41  O   UNL     1      21.871  14.557  -5.538  0.00  0.00    -0.243 OA
ENDBRANCH  30  39
ENDBRANCH  26  28
ENDBRANCH  24  26
ENDBRANCH  23  24
ENDBRANCH   2  23
TORSDOF 11
