REMARK VINA RESULT:    -7.433      1.653      3.398
REMARK INTER + INTRA:         -13.273
REMARK INTER:                 -11.595
REMARK INTRA:                  -1.679
REMARK UNBOUND:                -0.626
REMARK  Name = lig_assembled_5.pdb
REMARK  13 active torsions:
REMARK  status: ('A' for Active; 'I' for Inactive)
REMARK    1  A    between atoms: _2  and  _8
REMARK    2  A    between atoms: _5  and  _6
REMARK    3  A    between atoms: _5  and  _15
REMARK    4  A    between atoms: _11  and  _14
REMARK    5  A    between atoms: _12  and  _14
REMARK    6  A    between atoms: _15  and  _17
REMARK    7  A    between atoms: _16  and  _21
REMARK    8  A    between atoms: _17  and  _20
REMARK    9  A    between atoms: _25  and  _35
REMARK   10  A    between atoms: _27  and  _28
REMARK   11  A    between atoms: _29  and  _31
REMARK   12  A    between atoms: _31  and  _33
REMARK   13  A    between atoms: _33  and  _35
REMARK                            x       y       z     vdW  Elec       q    Type
REMARK                         _______ _______ _______ _____ _____    ______ ____
ROOT
ATOM      1  C   UNL     1      28.715  17.082  -0.545  0.00  0.00    +0.400 C 
ATOM      2  N   UNL     1      28.683  15.912   0.176  0.00  0.00    -0.278 N 
ATOM      3  H   UNL     1      29.302  16.126   1.021  0.00  0.00    +0.152 HD
ATOM      4  O   UNL     1      29.228  18.070  -0.025  0.00  0.00    -0.226 OA
ENDROOT
BRANCH   2   5
ATOM      5  C   UNL     1      28.184  14.546   0.309  0.00  0.00    +0.152 C 
BRANCH   5   6
ATOM      6  C   UNL     1      28.470  13.846   1.654  0.00  0.00    +0.193 C 
ATOM      7  O   UNL     1      27.238  13.210   2.062  0.00  0.00    -0.219 OA
BRANCH   6   8
ATOM      8  C   UNL     1      29.512  12.706   1.659  0.00  0.00    +0.212 C 
ATOM      9  O   UNL     1      29.032  11.583   0.902  0.00  0.00    -0.218 OA
BRANCH   8  10
ATOM     10  C   UNL     1      30.914  13.139   1.083  0.00  0.00    +0.171 C 
ATOM     11  O   UNL     1      30.880  13.377  -0.320  0.00  0.00    -0.343 OA
ATOM     12  C   UNL     1      32.014  13.534  -1.121  0.00  0.00    +0.220 C 
ATOM     13  C   UNL     1      33.027  12.396  -0.904  0.00  0.00    +0.076 C 
ATOM     14  C   UNL     1      33.307  12.308   0.606  0.00  0.00    +0.177 C 
ATOM     15  O   UNL     1      34.270  11.295   0.858  0.00  0.00    -0.221 OA
ATOM     16  C   UNL     1      31.982  12.037   1.384  0.00  0.00    +0.155 C 
BRANCH  16  17
ATOM     17  N   UNL     1      32.245  11.945   2.817  0.00  0.00    -0.202 NA
ATOM     18  C   UNL     1      32.635  12.908   3.691  0.00  0.00    +0.242 C 
ATOM     19  C   UNL     1      32.549  12.613   5.166  0.00  0.00    +0.096 C 
ATOM     20  O   UNL     1      33.043  13.986   3.265  0.00  0.00    -0.273 OA
ENDBRANCH  16  17
BRANCH  12  21
ATOM     21  C   UNL     1      32.714  14.992  -0.974  0.00  0.00    +0.391 C 
ATOM     22  O   UNL     1      33.890  14.880  -1.621  0.00  0.00    -0.243 OA
ATOM     23  O   UNL     1      31.755  15.821  -0.542  0.00  0.00    -0.243 OA
ENDBRANCH  12  21
ENDBRANCH   8  10
ENDBRANCH   6   8
ENDBRANCH   5   6
ENDBRANCH   2   5
BRANCH   1  24
ATOM     24  O   UNL     1      28.218  17.019  -1.737  0.00  0.00    -0.450 OA
BRANCH  24  25
ATOM     25  C   UNL     1      27.240  17.660  -2.522  0.00  0.00    +0.240 C 
BRANCH  25  26
ATOM     26  C   UNL     1      26.568  16.834  -3.635  0.00  0.00    +0.100 C 
BRANCH  26  28
ATOM     27  N   UNL     1      26.750  14.379  -3.385  0.00  0.00    -0.134 NA
ATOM     28  C   UNL     1      26.096  15.543  -3.101  0.00  0.00    +0.086 A 
ATOM     29  C   UNL     1      25.022  15.268  -2.288  0.00  0.00    +0.139 A 
ATOM     30  N   UNL     1      25.075  13.908  -2.074  0.00  0.00    -0.220 N 
ATOM     31  N   UNL     1      26.120  13.390  -2.766  0.00  0.00    -0.061 NA
BRANCH  30  32
ATOM     32  C   UNL     1      24.238  13.104  -1.258  0.00  0.00    +0.067 A 
ATOM     33  C   UNL     1      22.844  13.204  -1.342  0.00  0.00    +0.031 A 
ATOM     34  C   UNL     1      22.038  12.449  -0.487  0.00  0.00    +0.048 A 
ATOM     35  C   UNL     1      22.603  11.574   0.443  0.00  0.00    +0.120 A 
ATOM     36  C   UNL     1      23.991  11.458   0.517  0.00  0.00    +0.048 A 
ATOM     37  C   UNL     1      24.808  12.220  -0.329  0.00  0.00    +0.031 A 
BRANCH  35  38
ATOM     38  O   UNL     1      21.705  10.943   1.258  0.00  0.00    -0.495 OA
ATOM     39  C   UNL     1      22.191   9.823   1.985  0.00  0.00    +0.277 C 
ENDBRANCH  35  38
ENDBRANCH  30  32
ENDBRANCH  26  28
ENDBRANCH  25  26
ENDBRANCH  24  25
ENDBRANCH   1  24
TORSDOF 12
