REMARK VINA RESULT:    -6.522      3.377      9.424
REMARK INTER + INTRA:         -13.196
REMARK INTER:                 -10.795
REMARK INTRA:                  -2.401
REMARK UNBOUND:                -1.336
REMARK  Name = lig_assembled_19.pdb
REMARK  15 active torsions:
REMARK  status: ('A' for Active; 'I' for Inactive)
REMARK    1  A    between atoms: _2  and  _8
REMARK    2  A    between atoms: _4  and  _10
REMARK    3  A    between atoms: _5  and  _6
REMARK    4  A    between atoms: _5  and  _13
REMARK    5  A    between atoms: _8  and  _9
REMARK    6  A    between atoms: _9  and  _12
REMARK    7  A    between atoms: _10  and  _12
REMARK    8  A    between atoms: _13  and  _15
REMARK    9  A    between atoms: _14  and  _19
REMARK   10  A    between atoms: _15  and  _18
REMARK   11  A    between atoms: _23  and  _33
REMARK   12  A    between atoms: _25  and  _26
REMARK   13  A    between atoms: _27  and  _29
REMARK   14  A    between atoms: _29  and  _31
REMARK   15  A    between atoms: _31  and  _33
REMARK                            x       y       z     vdW  Elec       q    Type
REMARK                         _______ _______ _______ _____ _____    ______ ____
ROOT
ATOM      1  C   UNL     1      27.335  14.002  -3.083  0.00  0.00    +0.152 C 
ENDROOT
BRANCH   1   3
ATOM      2  C   UNL     1      26.747  16.666  -3.143  0.00  0.00    +0.400 C 
ATOM      3  N   UNL     1      26.697  15.299  -3.289  0.00  0.00    -0.278 N 
ATOM      4  H   UNL     1      25.769  15.139  -3.794  0.00  0.00    +0.152 HD
ATOM      5  O   UNL     1      25.906  17.342  -3.729  0.00  0.00    -0.226 OA
BRANCH   2   6
ATOM      6  O   UNL     1      27.676  17.111  -2.361  0.00  0.00    -0.450 OA
BRANCH   6   7
ATOM      7  C   UNL     1      27.804  17.781  -1.129  0.00  0.00    +0.240 C 
BRANCH   7   8
ATOM      8  C   UNL     1      29.194  17.786  -0.464  0.00  0.00    +0.100 C 
BRANCH   8  10
ATOM      9  N   UNL     1      31.003  16.093  -0.478  0.00  0.00    -0.134 NA
ATOM     10  C   UNL     1      29.683  16.407  -0.286  0.00  0.00    +0.086 A 
ATOM     11  C   UNL     1      28.999  15.267   0.070  0.00  0.00    +0.133 A 
ATOM     12  N   UNL     1      29.954  14.297   0.066  0.00  0.00    -0.248 N 
ATOM     13  N   UNL     1      31.159  14.794  -0.259  0.00  0.00    -0.065 NA
BRANCH  12  14
ATOM     14  C   UNL     1      29.795  12.892   0.370  0.00  0.00    +0.186 C 
BRANCH  14  15
ATOM     15  C   UNL     1      30.066  12.598   1.842  0.00  0.00    +0.255 C 
BRANCH  15  16
ATOM     16  O   UNL     1      28.948  11.953   2.484  0.00  0.00    -0.463 OA
BRANCH  16  17
ATOM     17  C   UNL     1      27.861  12.736   2.715  0.00  0.00    +0.304 C 
ATOM     18  O   UNL     1      27.889  13.825   3.271  0.00  0.00    -0.251 OA
ATOM     19  C   UNL     1      26.620  12.104   2.164  0.00  0.00    +0.136 C 
ENDBRANCH  16  17
ENDBRANCH  15  16
ENDBRANCH  14  15
ENDBRANCH  12  14
ENDBRANCH   8  10
ENDBRANCH   7   8
ENDBRANCH   6   7
ENDBRANCH   2   6
ENDBRANCH   1   3
BRANCH   1  20
ATOM     20  C   UNL     1      26.424  12.765  -3.231  0.00  0.00    +0.193 C 
ATOM     21  O   UNL     1      27.261  11.606  -3.023  0.00  0.00    -0.219 OA
BRANCH  20  22
ATOM     22  C   UNL     1      25.274  12.598  -2.213  0.00  0.00    +0.212 C 
ATOM     23  O   UNL     1      25.553  13.341  -1.015  0.00  0.00    -0.218 OA
BRANCH  22  24
ATOM     24  C   UNL     1      23.873  13.053  -2.774  0.00  0.00    +0.171 C 
ATOM     25  O   UNL     1      23.905  14.363  -3.331  0.00  0.00    -0.343 OA
ATOM     26  C   UNL     1      22.770  15.102  -3.673  0.00  0.00    +0.220 C 
ATOM     27  C   UNL     1      21.752  15.150  -2.521  0.00  0.00    +0.076 C 
ATOM     28  C   UNL     1      21.475  13.701  -2.087  0.00  0.00    +0.177 C 
ATOM     29  O   UNL     1      20.507  13.686  -1.048  0.00  0.00    -0.221 OA
ATOM     30  C   UNL     1      22.800  13.012  -1.637  0.00  0.00    +0.155 C 
BRANCH  30  31
ATOM     31  N   UNL     1      22.540  11.637  -1.218  0.00  0.00    -0.202 NA
ATOM     32  C   UNL     1      22.665  11.065   0.007  0.00  0.00    +0.242 C 
ATOM     33  C   UNL     1      22.050   9.708   0.228  0.00  0.00    +0.096 C 
ATOM     34  O   UNL     1      23.269  11.661   0.897  0.00  0.00    -0.273 OA
ENDBRANCH  30  31
BRANCH  26  35
ATOM     35  C   UNL     1      22.078  14.618  -5.061  0.00  0.00    +0.391 C 
ATOM     36  O   UNL     1      22.889  13.653  -5.536  0.00  0.00    -0.243 OA
ATOM     37  O   UNL     1      20.841  15.130  -5.056  0.00  0.00    -0.243 OA
ENDBRANCH  26  35
ENDBRANCH  22  24
ENDBRANCH  20  22
ENDBRANCH   1  20
TORSDOF 14
