REMARK VINA RESULT:    -6.353      2.156      4.118
REMARK INTER + INTRA:         -13.732
REMARK INTER:                 -11.923
REMARK INTRA:                  -1.809
REMARK UNBOUND:                -1.808
REMARK  Name = lig_assembled_43.pdb
REMARK  15 active torsions:
REMARK  status: ('A' for Active; 'I' for Inactive)
REMARK    1  A    between atoms: _2  and  _8
REMARK    2  A    between atoms: _5  and  _6
REMARK    3  A    between atoms: _5  and  _13
REMARK    4  A    between atoms: _8  and  _9
REMARK    5  A    between atoms: _9  and  _10
REMARK    6  A    between atoms: _10  and  _11
REMARK    7  A    between atoms: _11  and  _12
REMARK    8  A    between atoms: _13  and  _15
REMARK    9  A    between atoms: _14  and  _19
REMARK   10  A    between atoms: _15  and  _18
REMARK   11  A    between atoms: _23  and  _33
REMARK   12  A    between atoms: _25  and  _26
REMARK   13  A    between atoms: _27  and  _29
REMARK   14  A    between atoms: _29  and  _31
REMARK   15  A    between atoms: _31  and  _33
REMARK                            x       y       z     vdW  Elec       q    Type
REMARK                         _______ _______ _______ _____ _____    ______ ____
ROOT
ATOM      1  C   UNL     1      30.874  16.595   0.158  0.00  0.00    +0.152 C 
ENDROOT
BRANCH   1   3
ATOM      2  C   UNL     1      28.372  17.463  -0.502  0.00  0.00    +0.400 C 
ATOM      3  N   UNL     1      29.616  17.332   0.071  0.00  0.00    -0.278 N 
ATOM      4  H   UNL     1      29.650  18.136   0.774  0.00  0.00    +0.152 HD
ATOM      5  O   UNL     1      27.586  18.264  -0.002  0.00  0.00    -0.226 OA
BRANCH   2   6
ATOM      6  O   UNL     1      28.160  16.739  -1.551  0.00  0.00    -0.450 OA
BRANCH   6   7
ATOM      7  C   UNL     1      27.125  16.459  -2.464  0.00  0.00    +0.240 C 
BRANCH   7   8
ATOM      8  C   UNL     1      26.708  14.986  -2.638  0.00  0.00    +0.100 C 
BRANCH   8  10
ATOM      9  N   UNL     1      24.472  15.969  -3.043  0.00  0.00    -0.134 NA
ATOM     10  C   UNL     1      25.241  14.877  -2.734  0.00  0.00    +0.086 A 
ATOM     11  C   UNL     1      24.421  13.787  -2.550  0.00  0.00    +0.133 A 
ATOM     12  N   UNL     1      23.169  14.281  -2.755  0.00  0.00    -0.251 N 
ATOM     13  N   UNL     1      23.200  15.591  -3.052  0.00  0.00    -0.065 NA
BRANCH  12  14
ATOM     14  C   UNL     1      21.906  13.581  -2.654  0.00  0.00    +0.145 C 
BRANCH  14  15
ATOM     15  C   UNL     1      21.539  13.298  -1.201  0.00  0.00    +0.024 C 
BRANCH  15  16
ATOM     16  C   UNL     1      21.103  11.847  -0.990  0.00  0.00    +0.006 C 
BRANCH  16  17
ATOM     17  C   UNL     1      22.207  11.053  -0.286  0.00  0.00    +0.026 C 
BRANCH  17  18
ATOM     18  C   UNL     1      22.525  11.613   1.069  0.00  0.00    -0.034 C 
ATOM     19  C   UNL     1      21.651  11.654   2.083  0.00  0.00    +0.004 C 
ENDBRANCH  17  18
ENDBRANCH  16  17
ENDBRANCH  15  16
ENDBRANCH  14  15
ENDBRANCH  12  14
ENDBRANCH   8  10
ENDBRANCH   7   8
ENDBRANCH   6   7
ENDBRANCH   2   6
ENDBRANCH   1   3
BRANCH   1  20
ATOM     20  C   UNL     1      30.769  15.059   0.066  0.00  0.00    +0.193 C 
ATOM     21  O   UNL     1      31.779  14.630  -0.875  0.00  0.00    -0.219 OA
BRANCH  20  22
ATOM     22  C   UNL     1      31.063  14.244   1.344  0.00  0.00    +0.212 C 
ATOM     23  O   UNL     1      31.312  15.123   2.453  0.00  0.00    -0.218 OA
BRANCH  22  24
ATOM     24  C   UNL     1      29.899  13.256   1.736  0.00  0.00    +0.171 C 
ATOM     25  O   UNL     1      28.617  13.874   1.692  0.00  0.00    -0.343 OA
ATOM     26  C   UNL     1      27.452  13.311   2.218  0.00  0.00    +0.220 C 
ATOM     27  C   UNL     1      27.651  12.840   3.669  0.00  0.00    +0.076 C 
ATOM     28  C   UNL     1      28.883  11.920   3.693  0.00  0.00    +0.177 C 
ATOM     29  O   UNL     1      29.088  11.423   5.008  0.00  0.00    -0.221 OA
ATOM     30  C   UNL     1      30.138  12.688   3.174  0.00  0.00    +0.155 C 
BRANCH  30  31
ATOM     31  N   UNL     1      31.311  11.819   3.201  0.00  0.00    -0.202 NA
ATOM     32  C   UNL     1      32.433  11.899   3.961  0.00  0.00    +0.242 C 
ATOM     33  C   UNL     1      33.357  10.709   4.000  0.00  0.00    +0.096 C 
ATOM     34  O   UNL     1      32.667  12.927   4.593  0.00  0.00    -0.273 OA
ENDBRANCH  30  31
BRANCH  26  35
ATOM     35  C   UNL     1      26.826  12.134   1.289  0.00  0.00    +0.391 C 
ATOM     36  O   UNL     1      26.004  11.447   2.107  0.00  0.00    -0.243 OA
ATOM     37  O   UNL     1      27.116  12.466   0.025  0.00  0.00    -0.243 OA
ENDBRANCH  26  35
ENDBRANCH  22  24
ENDBRANCH  20  22
ENDBRANCH   1  20
TORSDOF 15
