REMARK VINA RESULT:    -5.998      2.951      9.643
REMARK INTER + INTRA:         -15.894
REMARK INTER:                 -13.020
REMARK INTRA:                  -2.874
REMARK UNBOUND:                -2.358
REMARK  Name = lig_assembled_30.pdb
REMARK  22 active torsions:
REMARK  status: ('A' for Active; 'I' for Inactive)
REMARK    1  A    between atoms: _2  and  _8
REMARK    2  A    between atoms: _4  and  _17
REMARK    3  A    between atoms: _4  and  _18
REMARK    4  A    between atoms: _5  and  _6
REMARK    5  A    between atoms: _5  and  _20
REMARK    6  A    between atoms: _8  and  _9
REMARK    7  A    between atoms: _9  and  _10
REMARK    8  A    between atoms: _10  and  _11
REMARK    9  A    between atoms: _11  and  _12
REMARK   10  A    between atoms: _12  and  _13
REMARK   11  A    between atoms: _13  and  _14
REMARK   12  A    between atoms: _14  and  _15
REMARK   13  A    between atoms: _15  and  _16
REMARK   14  A    between atoms: _16  and  _17
REMARK   15  A    between atoms: _20  and  _22
REMARK   16  A    between atoms: _21  and  _26
REMARK   17  A    between atoms: _22  and  _25
REMARK   18  A    between atoms: _30  and  _40
REMARK   19  A    between atoms: _32  and  _33
REMARK   20  A    between atoms: _34  and  _36
REMARK   21  A    between atoms: _36  and  _38
REMARK   22  A    between atoms: _38  and  _40
REMARK                            x       y       z     vdW  Elec       q    Type
REMARK                         _______ _______ _______ _____ _____    ______ ____
ROOT
ATOM      1  C   UNL     1      28.244  17.174  -0.736  0.00  0.00    +0.400 C 
ATOM      2  N   UNL     1      27.342  16.616  -1.612  0.00  0.00    -0.278 N 
ATOM      3  H   UNL     1      26.411  17.051  -1.320  0.00  0.00    +0.152 HD
ATOM      4  O   UNL     1      27.860  18.093  -0.018  0.00  0.00    -0.226 OA
ENDROOT
BRANCH   1   5
ATOM      5  O   UNL     1      29.423  16.644  -0.734  0.00  0.00    -0.450 OA
BRANCH   5   6
ATOM      6  C   UNL     1      30.586  16.632   0.061  0.00  0.00    +0.240 C 
BRANCH   6   7
ATOM      7  C   UNL     1      31.550  15.442  -0.110  0.00  0.00    +0.100 C 
BRANCH   7   9
ATOM      8  N   UNL     1      30.722  14.735   2.114  0.00  0.00    -0.134 NA
ATOM      9  C   UNL     1      31.268  14.406   0.901  0.00  0.00    +0.086 A 
ATOM     10  C   UNL     1      31.472  13.045   0.852  0.00  0.00    +0.133 A 
ATOM     11  N   UNL     1      31.030  12.607   2.063  0.00  0.00    -0.251 N 
ATOM     12  N   UNL     1      30.583  13.622   2.821  0.00  0.00    -0.065 NA
BRANCH  11  13
ATOM     13  C   UNL     1      31.045  11.256   2.580  0.00  0.00    +0.145 C 
BRANCH  13  14
ATOM     14  C   UNL     1      31.268  11.243   4.088  0.00  0.00    +0.023 C 
BRANCH  14  15
ATOM     15  C   UNL     1      32.735  11.467   4.450  0.00  0.00    +0.002 C 
BRANCH  15  16
ATOM     16  C   UNL     1      32.860  12.604   5.464  0.00  0.00    +0.000 C 
BRANCH  16  17
ATOM     17  C   UNL     1      34.070  13.488   5.177  0.00  0.00    +0.000 C 
BRANCH  17  18
ATOM     18  C   UNL     1      34.099  13.907   3.706  0.00  0.00    +0.000 C 
BRANCH  18  19
ATOM     19  C   UNL     1      35.528  13.920   3.171  0.00  0.00    +0.000 C 
BRANCH  19  20
ATOM     20  C   UNL     1      36.207  12.560   3.343  0.00  0.00    +0.001 C 
BRANCH  20  21
ATOM     21  C   UNL     1      37.403  12.438   2.401  0.00  0.00    +0.011 C 
BRANCH  21  22
ATOM     22  C   UNL     1      38.702  12.183   3.160  0.00  0.00    +0.120 C 
BRANCH  22  23
ATOM     23  C   UNL     1      39.793  13.136   2.725  0.00  0.00    +0.305 C 
ATOM     24  O   UNL     1      40.906  12.812   2.340  0.00  0.00    -0.251 OA
BRANCH  23  25
ATOM     25  O   UNL     1      39.407  14.430   2.803  0.00  0.00    -0.481 OA
ATOM     26  H   UNL     1      39.958  15.037   2.273  0.00  0.00    +0.295 HD
ENDBRANCH  23  25
ENDBRANCH  22  23
ENDBRANCH  21  22
ENDBRANCH  20  21
ENDBRANCH  19  20
ENDBRANCH  18  19
ENDBRANCH  17  18
ENDBRANCH  16  17
ENDBRANCH  15  16
ENDBRANCH  14  15
ENDBRANCH  13  14
ENDBRANCH  11  13
ENDBRANCH   7   9
ENDBRANCH   6   7
ENDBRANCH   5   6
ENDBRANCH   1   5
BRANCH   2  27
ATOM     27  C   UNL     1      27.095  15.727  -2.745  0.00  0.00    +0.152 C 
BRANCH  27  28
ATOM     28  C   UNL     1      25.617  15.515  -3.132  0.00  0.00    +0.193 C 
ATOM     29  O   UNL     1      25.519  15.767  -4.551  0.00  0.00    -0.219 OA
BRANCH  28  30
ATOM     30  C   UNL     1      25.027  14.099  -2.951  0.00  0.00    +0.212 C 
ATOM     31  O   UNL     1      25.528  13.213  -3.964  0.00  0.00    -0.218 OA
BRANCH  30  32
ATOM     32  C   UNL     1      25.332  13.471  -1.537  0.00  0.00    +0.171 C 
ATOM     33  O   UNL     1      26.580  12.788  -1.499  0.00  0.00    -0.343 OA
ATOM     34  C   UNL     1      26.985  11.943  -0.463  0.00  0.00    +0.220 C 
ATOM     35  C   UNL     1      25.911  10.893  -0.129  0.00  0.00    +0.076 C 
ATOM     36  C   UNL     1      24.593  11.644   0.125  0.00  0.00    +0.177 C 
ATOM     37  O   UNL     1      23.573  10.721   0.477  0.00  0.00    -0.221 OA
ATOM     38  C   UNL     1      24.196  12.474  -1.135  0.00  0.00    +0.155 C 
BRANCH  38  39
ATOM     39  N   UNL     1      22.941  13.184  -0.901  0.00  0.00    -0.202 NA
ATOM     40  C   UNL     1      21.723  13.004  -1.471  0.00  0.00    +0.242 C 
ATOM     41  C   UNL     1      20.530  13.671  -0.837  0.00  0.00    +0.096 C 
ATOM     42  O   UNL     1      21.621  12.308  -2.480  0.00  0.00    -0.273 OA
ENDBRANCH  38  39
BRANCH  34  43
ATOM     43  C   UNL     1      27.475  12.739   0.866  0.00  0.00    +0.391 C 
ATOM     44  O   UNL     1      27.574  11.793   1.821  0.00  0.00    -0.243 OA
ATOM     45  O   UNL     1      27.878  13.945   0.448  0.00  0.00    -0.243 OA
ENDBRANCH  34  43
ENDBRANCH  30  32
ENDBRANCH  28  30
ENDBRANCH  27  28
ENDBRANCH   2  27
TORSDOF 22
