REMARK VINA RESULT:    -6.178      3.307      6.009
REMARK INTER + INTRA:         -13.161
REMARK INTER:                 -11.072
REMARK INTRA:                  -2.089
REMARK UNBOUND:                -2.287
REMARK  Name = lig_assembled_67.pdb
REMARK  13 active torsions:
REMARK  status: ('A' for Active; 'I' for Inactive)
REMARK    1  A    between atoms: _2  and  _8
REMARK    2  A    between atoms: _5  and  _6
REMARK    3  A    between atoms: _5  and  _14
REMARK    4  A    between atoms: _8  and  _9
REMARK    5  A    between atoms: _9  and  _10
REMARK    6  A    between atoms: _14  and  _16
REMARK    7  A    between atoms: _15  and  _20
REMARK    8  A    between atoms: _16  and  _19
REMARK    9  A    between atoms: _24  and  _34
REMARK   10  A    between atoms: _26  and  _27
REMARK   11  A    between atoms: _28  and  _30
REMARK   12  A    between atoms: _30  and  _32
REMARK   13  A    between atoms: _32  and  _34
REMARK                            x       y       z     vdW  Elec       q    Type
REMARK                         _______ _______ _______ _____ _____    ______ ____
ROOT
ATOM      1  C   UNL     1      33.020  14.399  -1.209  0.00  0.00    +0.400 C 
ATOM      2  N   UNL     1      33.875  13.500  -0.618  0.00  0.00    -0.278 N 
ATOM      3  H   UNL     1      34.841  13.922  -0.796  0.00  0.00    +0.152 HD
ATOM      4  O   UNL     1      33.483  15.469  -1.598  0.00  0.00    -0.226 OA
ENDROOT
BRANCH   2   5
ATOM      5  C   UNL     1      34.051  12.263   0.139  0.00  0.00    +0.152 C 
BRANCH   5   6
ATOM      6  C   UNL     1      33.695  12.327   1.638  0.00  0.00    +0.193 C 
ATOM      7  O   UNL     1      33.758  13.718   2.021  0.00  0.00    -0.219 OA
BRANCH   6   8
ATOM      8  C   UNL     1      32.278  11.875   2.056  0.00  0.00    +0.212 C 
ATOM      9  O   UNL     1      32.077  10.490   1.734  0.00  0.00    -0.218 OA
BRANCH   8  10
ATOM     10  C   UNL     1      31.984  12.083   3.591  0.00  0.00    +0.171 C 
ATOM     11  O   UNL     1      32.972  11.485   4.424  0.00  0.00    -0.343 OA
ATOM     12  C   UNL     1      32.837  11.306   5.803  0.00  0.00    +0.220 C 
ATOM     13  C   UNL     1      31.505  10.626   6.162  0.00  0.00    +0.076 C 
ATOM     14  C   UNL     1      30.378  11.438   5.502  0.00  0.00    +0.177 C 
ATOM     15  O   UNL     1      29.118  10.874   5.836  0.00  0.00    -0.221 OA
ATOM     16  C   UNL     1      30.586  11.486   3.956  0.00  0.00    +0.155 C 
BRANCH  16  17
ATOM     17  N   UNL     1      29.514  12.250   3.324  0.00  0.00    -0.202 NA
ATOM     18  C   UNL     1      28.538  11.838   2.475  0.00  0.00    +0.242 C 
ATOM     19  C   UNL     1      27.384  12.769   2.204  0.00  0.00    +0.096 C 
ATOM     20  O   UNL     1      28.616  10.727   1.953  0.00  0.00    -0.273 OA
ENDBRANCH  16  17
BRANCH  12  21
ATOM     21  C   UNL     1      33.061  12.670   6.657  0.00  0.00    +0.391 C 
ATOM     22  O   UNL     1      32.754  12.339   7.926  0.00  0.00    -0.243 OA
ATOM     23  O   UNL     1      33.740  13.501   5.856  0.00  0.00    -0.243 OA
ENDBRANCH  12  21
ENDBRANCH   8  10
ENDBRANCH   6   8
ENDBRANCH   5   6
ENDBRANCH   2   5
BRANCH   1  24
ATOM     24  O   UNL     1      31.793  14.011  -1.327  0.00  0.00    -0.450 OA
BRANCH  24  25
ATOM     25  C   UNL     1      30.732  13.561  -0.516  0.00  0.00    +0.240 C 
BRANCH  25  26
ATOM     26  C   UNL     1      30.150  14.554   0.508  0.00  0.00    +0.100 C 
BRANCH  26  28
ATOM     27  N   UNL     1      30.104  16.917  -0.225  0.00  0.00    -0.134 NA
ATOM     28  C   UNL     1      29.503  15.686  -0.183  0.00  0.00    +0.086 A 
ATOM     29  C   UNL     1      28.302  15.748  -0.852  0.00  0.00    +0.133 A 
ATOM     30  N   UNL     1      28.229  17.041  -1.274  0.00  0.00    -0.251 N 
ATOM     31  N   UNL     1      29.310  17.743  -0.895  0.00  0.00    -0.065 NA
BRANCH  30  32
ATOM     32  C   UNL     1      27.181  17.674  -2.045  0.00  0.00    +0.150 C 
BRANCH  32  33
ATOM     33  C   UNL     1      27.123  17.206  -3.497  0.00  0.00    +0.084 C 
BRANCH  33  34
ATOM     34  C   UNL     1      25.793  16.551  -3.845  0.00  0.00    +0.252 C 
ATOM     35  O   UNL     1      25.881  15.900  -5.117  0.00  0.00    -0.349 OA
ATOM     36  C   UNL     1      24.947  14.829  -4.998  0.00  0.00    +0.191 C 
ATOM     37  C   UNL     1      25.090  14.400  -3.560  0.00  0.00    +0.191 C 
ATOM     38  O   UNL     1      25.434  15.589  -2.847  0.00  0.00    -0.349 OA
ENDBRANCH  33  34
ENDBRANCH  32  33
ENDBRANCH  30  32
ENDBRANCH  26  28
ENDBRANCH  25  26
ENDBRANCH  24  25
ENDBRANCH   1  24
TORSDOF 13
