REMARK VINA RESULT:    -7.673      2.893      7.064
REMARK INTER + INTRA:         -14.276
REMARK INTER:                 -11.481
REMARK INTRA:                  -2.795
REMARK UNBOUND:                -1.669
REMARK  Name = lig_assembled_70.pdb
REMARK  11 active torsions:
REMARK  status: ('A' for Active; 'I' for Inactive)
REMARK    1  A    between atoms: _2  and  _9
REMARK    2  A    between atoms: _6  and  _7
REMARK    3  A    between atoms: _6  and  _17
REMARK    4  A    between atoms: _17  and  _19
REMARK    5  A    between atoms: _18  and  _23
REMARK    6  A    between atoms: _19  and  _22
REMARK    7  A    between atoms: _27  and  _37
REMARK    8  A    between atoms: _29  and  _30
REMARK    9  A    between atoms: _31  and  _33
REMARK   10  A    between atoms: _33  and  _35
REMARK   11  A    between atoms: _35  and  _37
REMARK                            x       y       z     vdW  Elec       q    Type
REMARK                         _______ _______ _______ _____ _____    ______ ____
ROOT
ATOM      1  C   UNL     1      29.656  17.100  -0.273  0.00  0.00    +0.400 C 
ATOM      2  N   UNL     1      28.431  16.730  -0.778  0.00  0.00    -0.278 N 
ATOM      3  H   UNL     1      27.755  17.416  -0.315  0.00  0.00    +0.152 HD
ATOM      4  O   UNL     1      29.724  18.142   0.374  0.00  0.00    -0.226 OA
ENDROOT
BRANCH   1   5
ATOM      5  O   UNL     1      30.629  16.283  -0.508  0.00  0.00    -0.450 OA
BRANCH   5   6
ATOM      6  C   UNL     1      31.301  15.215   0.117  0.00  0.00    +0.240 C 
BRANCH   6   7
ATOM      7  C   UNL     1      30.781  14.755   1.492  0.00  0.00    +0.100 C 
BRANCH   7   9
ATOM      8  N   UNL     1      30.033  12.485   0.832  0.00  0.00    -0.134 NA
ATOM      9  C   UNL     1      29.741  13.722   1.332  0.00  0.00    +0.086 A 
ATOM     10  C   UNL     1      28.399  13.780   1.625  0.00  0.00    +0.140 A 
ATOM     11  N   UNL     1      27.907  12.539   1.295  0.00  0.00    -0.218 N 
ATOM     12  N   UNL     1      28.912  11.775   0.806  0.00  0.00    -0.060 NA
BRANCH  11  13
ATOM     13  C   UNL     1      26.591  12.053   1.438  0.00  0.00    +0.086 A 
ATOM     14  C   UNL     1      26.165  11.522   2.645  0.00  0.00    +0.139 A 
ATOM     15  N   UNL     1      24.901  11.078   2.867  0.00  0.00    -0.253 NA
ATOM     16  C   UNL     1      24.009  11.167   1.862  0.00  0.00    +0.071 A 
ATOM     17  C   UNL     1      24.357  11.678   0.595  0.00  0.00    +0.002 A 
ATOM     18  C   UNL     1      23.397  11.755  -0.430  0.00  0.00    +0.010 A 
ATOM     19  C   UNL     1      22.087  11.347  -0.198  0.00  0.00    +0.001 A 
ATOM     20  C   UNL     1      21.736  10.851   1.051  0.00  0.00    +0.002 A 
ATOM     21  C   UNL     1      22.697  10.759   2.063  0.00  0.00    +0.028 A 
ATOM     22  C   UNL     1      25.671  12.115   0.392  0.00  0.00    +0.039 A 
ENDBRANCH  11  13
ENDBRANCH   7   9
ENDBRANCH   6   7
ENDBRANCH   5   6
ENDBRANCH   1   5
BRANCH   2  23
ATOM     23  C   UNL     1      27.661  15.850  -1.653  0.00  0.00    +0.152 C 
BRANCH  23  24
ATOM     24  C   UNL     1      26.529  16.517  -2.462  0.00  0.00    +0.193 C 
ATOM     25  O   UNL     1      27.081  17.725  -3.030  0.00  0.00    -0.219 OA
BRANCH  24  26
ATOM     26  C   UNL     1      25.965  15.744  -3.674  0.00  0.00    +0.212 C 
ATOM     27  O   UNL     1      26.658  16.118  -4.875  0.00  0.00    -0.218 OA
BRANCH  26  28
ATOM     28  C   UNL     1      26.049  14.178  -3.510  0.00  0.00    +0.171 C 
ATOM     29  O   UNL     1      27.096  13.602  -4.284  0.00  0.00    -0.343 OA
ATOM     30  C   UNL     1      27.243  12.233  -4.516  0.00  0.00    +0.220 C 
ATOM     31  C   UNL     1      25.937  11.597  -5.022  0.00  0.00    +0.076 C 
ATOM     32  C   UNL     1      24.825  11.969  -4.027  0.00  0.00    +0.177 C 
ATOM     33  O   UNL     1      23.600  11.372  -4.428  0.00  0.00    -0.221 OA
ATOM     34  C   UNL     1      24.692  13.521  -3.925  0.00  0.00    +0.155 C 
BRANCH  34  35
ATOM     35  N   UNL     1      23.633  13.879  -2.986  0.00  0.00    -0.202 NA
ATOM     36  C   UNL     1      22.453  14.513  -3.209  0.00  0.00    +0.242 C 
ATOM     37  C   UNL     1      21.414  14.494  -2.119  0.00  0.00    +0.096 C 
ATOM     38  O   UNL     1      22.262  15.080  -4.283  0.00  0.00    -0.273 OA
ENDBRANCH  34  35
BRANCH  30  39
ATOM     39  C   UNL     1      27.848  11.422  -3.245  0.00  0.00    +0.391 C 
ATOM     40  O   UNL     1      27.675  10.121  -3.549  0.00  0.00    -0.243 OA
ATOM     41  O   UNL     1      28.547  12.316  -2.535  0.00  0.00    -0.243 OA
ENDBRANCH  30  39
ENDBRANCH  26  28
ENDBRANCH  24  26
ENDBRANCH  23  24
ENDBRANCH   2  23
TORSDOF 11
