REMARK VINA RESULT:    -6.407      1.839      3.582
REMARK INTER + INTRA:         -13.936
REMARK INTER:                 -12.301
REMARK INTRA:                  -1.636
REMARK UNBOUND:                -2.286
REMARK  Name = lig_assembled_62.pdb
REMARK  15 active torsions:
REMARK  status: ('A' for Active; 'I' for Inactive)
REMARK    1  A    between atoms: _2  and  _9
REMARK    2  A    between atoms: _5  and  _9
REMARK    3  A    between atoms: _6  and  _7
REMARK    4  A    between atoms: _6  and  _14
REMARK    5  A    between atoms: _9  and  _10
REMARK    6  A    between atoms: _10  and  _13
REMARK    7  A    between atoms: _11  and  _13
REMARK    8  A    between atoms: _14  and  _16
REMARK    9  A    between atoms: _15  and  _20
REMARK   10  A    between atoms: _16  and  _19
REMARK   11  A    between atoms: _24  and  _34
REMARK   12  A    between atoms: _26  and  _27
REMARK   13  A    between atoms: _28  and  _30
REMARK   14  A    between atoms: _30  and  _32
REMARK   15  A    between atoms: _32  and  _34
REMARK                            x       y       z     vdW  Elec       q    Type
REMARK                         _______ _______ _______ _____ _____    ______ ____
ROOT
ATOM      1  C   UNL     1      29.023  17.098  -0.471  0.00  0.00    +0.400 C 
ATOM      2  N   UNL     1      29.085  15.933   0.257  0.00  0.00    -0.278 N 
ATOM      3  H   UNL     1      29.813  16.149   1.009  0.00  0.00    +0.152 HD
ATOM      4  O   UNL     1      29.605  18.087  -0.032  0.00  0.00    -0.226 OA
ENDROOT
BRANCH   2   5
ATOM      5  C   UNL     1      28.603  14.570   0.466  0.00  0.00    +0.152 C 
BRANCH   5   6
ATOM      6  C   UNL     1      28.821  13.982   1.876  0.00  0.00    +0.193 C 
ATOM      7  O   UNL     1      27.588  13.327   2.247  0.00  0.00    -0.219 OA
BRANCH   6   8
ATOM      8  C   UNL     1      29.901  12.889   2.035  0.00  0.00    +0.212 C 
ATOM      9  O   UNL     1      29.478  11.669   1.405  0.00  0.00    -0.218 OA
BRANCH   8  10
ATOM     10  C   UNL     1      31.301  13.303   1.441  0.00  0.00    +0.171 C 
ATOM     11  O   UNL     1      31.379  13.106   0.033  0.00  0.00    -0.343 OA
ATOM     12  C   UNL     1      32.563  13.158  -0.706  0.00  0.00    +0.220 C 
ATOM     13  C   UNL     1      33.660  12.273  -0.088  0.00  0.00    +0.076 C 
ATOM     14  C   UNL     1      33.801  12.675   1.389  0.00  0.00    +0.177 C 
ATOM     15  O   UNL     1      34.833  11.913   1.999  0.00  0.00    -0.221 OA
ATOM     16  C   UNL     1      32.441  12.484   2.130  0.00  0.00    +0.155 C 
BRANCH  16  17
ATOM     17  N   UNL     1      32.572  12.858   3.536  0.00  0.00    -0.202 NA
ATOM     18  C   UNL     1      32.409  12.104   4.653  0.00  0.00    +0.242 C 
ATOM     19  C   UNL     1      32.892  12.660   5.968  0.00  0.00    +0.096 C 
ATOM     20  O   UNL     1      31.878  10.999   4.568  0.00  0.00    -0.273 OA
ENDBRANCH  16  17
BRANCH  12  21
ATOM     21  C   UNL     1      33.095  14.670  -0.971  0.00  0.00    +0.391 C 
ATOM     22  O   UNL     1      32.018  15.456  -0.779  0.00  0.00    -0.243 OA
ATOM     23  O   UNL     1      34.432  14.596  -0.980  0.00  0.00    -0.243 OA
ENDBRANCH  12  21
ENDBRANCH   8  10
ENDBRANCH   6   8
ENDBRANCH   5   6
ENDBRANCH   2   5
BRANCH   1  24
ATOM     24  O   UNL     1      28.369  17.029  -1.584  0.00  0.00    -0.450 OA
BRANCH  24  25
ATOM     25  C   UNL     1      27.207  17.563  -2.175  0.00  0.00    +0.240 C 
BRANCH  25  26
ATOM     26  C   UNL     1      26.987  17.296  -3.676  0.00  0.00    +0.100 C 
BRANCH  26  28
ATOM     27  N   UNL     1      25.803  15.576  -5.008  0.00  0.00    -0.134 NA
ATOM     28  C   UNL     1      25.887  16.334  -3.870  0.00  0.00    +0.086 A 
ATOM     29  C   UNL     1      24.829  16.021  -3.046  0.00  0.00    +0.134 A 
ATOM     30  N   UNL     1      24.128  15.080  -3.743  0.00  0.00    -0.237 N 
ATOM     31  N   UNL     1      24.725  14.811  -4.920  0.00  0.00    -0.065 NA
BRANCH  30  32
ATOM     32  C   UNL     1      22.922  14.362  -3.371  0.00  0.00    +0.219 C 
BRANCH  32  33
ATOM     33  C   UNL     1      21.707  14.988  -4.035  0.00  0.00    +0.237 C 
ATOM     34  O   UNL     1      20.728  15.413  -3.426  0.00  0.00    -0.274 OA
ATOM     35  N   UNL     1      21.770  15.126  -5.395  0.00  0.00    -0.328 N 
ATOM     36  H   UNL     1      22.581  14.883  -5.949  0.00  0.00    +0.145 HD
ATOM     37  H   UNL     1      20.978  15.549  -5.863  0.00  0.00    +0.145 HD
ENDBRANCH  32  33
BRANCH  32  38
ATOM     38  C   UNL     1      22.759  14.330  -1.852  0.00  0.00    +0.195 C 
BRANCH  38  39
ATOM     39  O   UNL     1      22.770  12.969  -1.401  0.00  0.00    -0.380 OA
ATOM     40  C   UNL     1      24.081  12.419  -1.418  0.00  0.00    +0.194 C 
ENDBRANCH  38  39
ENDBRANCH  32  38
ENDBRANCH  30  32
ENDBRANCH  26  28
ENDBRANCH  25  26
ENDBRANCH  24  25
ENDBRANCH   1  24
TORSDOF 14
