REMARK VINA RESULT:    -7.377      2.694      4.716
REMARK INTER + INTRA:         -15.182
REMARK INTER:                 -12.249
REMARK INTRA:                  -2.933
REMARK UNBOUND:                -1.120
REMARK  Name = lig_assembled_76.pdb
REMARK  16 active torsions:
REMARK  status: ('A' for Active; 'I' for Inactive)
REMARK    1  A    between atoms: _2  and  _8
REMARK    2  A    between atoms: _5  and  _6
REMARK    3  A    between atoms: _5  and  _18
REMARK    4  A    between atoms: _8  and  _9
REMARK    5  A    between atoms: _9  and  _10
REMARK    6  A    between atoms: _9  and  _17
REMARK    7  A    between atoms: _10  and  _11
REMARK    8  A    between atoms: _11  and  _12
REMARK    9  A    between atoms: _18  and  _20
REMARK   10  A    between atoms: _19  and  _24
REMARK   11  A    between atoms: _20  and  _23
REMARK   12  A    between atoms: _28  and  _38
REMARK   13  A    between atoms: _30  and  _31
REMARK   14  A    between atoms: _32  and  _34
REMARK   15  A    between atoms: _34  and  _36
REMARK   16  A    between atoms: _36  and  _38
REMARK                            x       y       z     vdW  Elec       q    Type
REMARK                         _______ _______ _______ _____ _____    ______ ____
ROOT
ATOM      1  C   UNL     1      28.091  13.099   2.807  0.00  0.00    +0.400 C 
ATOM      2  N   UNL     1      29.319  12.877   3.384  0.00  0.00    -0.278 N 
ATOM      3  H   UNL     1      29.979  13.482   2.800  0.00  0.00    +0.152 HD
ATOM      4  O   UNL     1      27.998  13.990   1.967  0.00  0.00    -0.226 OA
ENDROOT
BRANCH   1   5
ATOM      5  O   UNL     1      27.142  12.309   3.190  0.00  0.00    -0.450 OA
BRANCH   5   6
ATOM      6  C   UNL     1      25.937  11.770   2.699  0.00  0.00    +0.240 C 
BRANCH   6   7
ATOM      7  C   UNL     1      26.035  10.689   1.606  0.00  0.00    +0.100 C 
BRANCH   7   9
ATOM      8  N   UNL     1      25.917  10.587  -0.868  0.00  0.00    -0.134 NA
ATOM      9  C   UNL     1      25.626  11.238   0.302  0.00  0.00    +0.086 A 
ATOM     10  C   UNL     1      24.952  12.404   0.016  0.00  0.00    +0.133 A 
ATOM     11  N   UNL     1      24.859  12.399  -1.343  0.00  0.00    -0.249 N 
ATOM     12  N   UNL     1      25.448  11.315  -1.874  0.00  0.00    -0.065 NA
BRANCH  11  13
ATOM     13  C   UNL     1      24.350  13.448  -2.197  0.00  0.00    +0.176 C 
BRANCH  13  14
ATOM     14  C   UNL     1      23.261  14.289  -1.524  0.00  0.00    +0.136 C 
BRANCH  14  15
ATOM     15  O   UNL     1      23.434  15.676  -1.851  0.00  0.00    -0.390 OA
ATOM     16  H   UNL     1      22.611  16.016  -2.242  0.00  0.00    +0.210 HD
ENDBRANCH  14  15
BRANCH  14  17
ATOM     17  C   UNL     1      21.847  13.886  -1.972  0.00  0.00    +0.038 C 
BRANCH  17  18
ATOM     18  C   UNL     1      20.932  13.488  -0.813  0.00  0.00    +0.038 C 
BRANCH  18  19
ATOM     19  C   UNL     1      21.340  12.178  -0.192  0.00  0.00    -0.047 A 
ATOM     20  C   UNL     1      21.610  11.065  -1.000  0.00  0.00    +0.003 A 
ATOM     21  C   UNL     1      22.005   9.855  -0.428  0.00  0.00    +0.000 A 
ATOM     22  C   UNL     1      22.129   9.746   0.955  0.00  0.00    +0.000 A 
ATOM     23  C   UNL     1      21.852  10.844   1.768  0.00  0.00    +0.000 A 
ATOM     24  C   UNL     1      21.455  12.054   1.199  0.00  0.00    +0.003 A 
ENDBRANCH  18  19
ENDBRANCH  17  18
ENDBRANCH  14  17
ENDBRANCH  13  14
ENDBRANCH  11  13
ENDBRANCH   7   9
ENDBRANCH   6   7
ENDBRANCH   5   6
ENDBRANCH   1   5
BRANCH   2  25
ATOM     25  C   UNL     1      30.105  12.214   4.421  0.00  0.00    +0.152 C 
BRANCH  25  26
ATOM     26  C   UNL     1      31.625  12.473   4.392  0.00  0.00    +0.193 C 
ATOM     27  O   UNL     1      32.213  11.608   5.389  0.00  0.00    -0.219 OA
BRANCH  26  28
ATOM     28  C   UNL     1      32.384  12.132   3.090  0.00  0.00    +0.212 C 
ATOM     29  O   UNL     1      31.736  11.051   2.400  0.00  0.00    -0.218 OA
BRANCH  28  30
ATOM     30  C   UNL     1      32.512  13.354   2.103  0.00  0.00    +0.171 C 
ATOM     31  O   UNL     1      31.361  13.516   1.280  0.00  0.00    -0.343 OA
ATOM     32  C   UNL     1      31.303  14.355   0.164  0.00  0.00    +0.220 C 
ATOM     33  C   UNL     1      32.484  14.115  -0.792  0.00  0.00    +0.076 C 
ATOM     34  C   UNL     1      33.777  14.226   0.033  0.00  0.00    +0.177 C 
ATOM     35  O   UNL     1      34.905  14.051  -0.813  0.00  0.00    -0.221 OA
ATOM     36  C   UNL     1      33.768  13.177   1.189  0.00  0.00    +0.155 C 
BRANCH  36  37
ATOM     37  N   UNL     1      34.998  13.274   1.971  0.00  0.00    -0.202 NA
ATOM     38  C   UNL     1      35.953  12.339   2.205  0.00  0.00    +0.242 C 
ATOM     39  C   UNL     1      37.263  12.787   2.799  0.00  0.00    +0.096 C 
ATOM     40  O   UNL     1      35.731  11.161   1.929  0.00  0.00    -0.273 OA
ENDBRANCH  36  37
BRANCH  32  41
ATOM     41  C   UNL     1      31.151  15.927   0.544  0.00  0.00    +0.391 C 
ATOM     42  O   UNL     1      30.723  16.518  -0.589  0.00  0.00    -0.243 OA
ATOM     43  O   UNL     1      31.212  15.993   1.880  0.00  0.00    -0.243 OA
ENDBRANCH  32  41
ENDBRANCH  28  30
ENDBRANCH  26  28
ENDBRANCH  25  26
ENDBRANCH   2  25
TORSDOF 16
