REMARK VINA RESULT:    -6.758      1.796      3.914
REMARK INTER + INTRA:         -13.987
REMARK INTER:                 -12.798
REMARK INTRA:                  -1.189
REMARK UNBOUND:                -2.094
REMARK  Name = lig_assembled_24.pdb
REMARK  14 active torsions:
REMARK  status: ('A' for Active; 'I' for Inactive)
REMARK    1  A    between atoms: _2  and  _8
REMARK    2  A    between atoms: _5  and  _6
REMARK    3  A    between atoms: _5  and  _16
REMARK    4  A    between atoms: _8  and  _9
REMARK    5  A    between atoms: _12  and  _15
REMARK    6  A    between atoms: _13  and  _15
REMARK    7  A    between atoms: _16  and  _18
REMARK    8  A    between atoms: _17  and  _22
REMARK    9  A    between atoms: _18  and  _21
REMARK   10  A    between atoms: _26  and  _36
REMARK   11  A    between atoms: _28  and  _29
REMARK   12  A    between atoms: _30  and  _32
REMARK   13  A    between atoms: _32  and  _34
REMARK   14  A    between atoms: _34  and  _36
REMARK                            x       y       z     vdW  Elec       q    Type
REMARK                         _______ _______ _______ _____ _____    ______ ____
ROOT
ATOM      1  C   UNL     1      27.716  14.122  -1.994  0.00  0.00    +0.400 C 
ATOM      2  N   UNL     1      28.415  14.869  -1.075  0.00  0.00    -0.278 N 
ATOM      3  H   UNL     1      29.087  14.160  -0.640  0.00  0.00    +0.152 HD
ATOM      4  O   UNL     1      28.104  12.980  -2.227  0.00  0.00    -0.226 OA
ENDROOT
BRANCH   1   5
ATOM      5  O   UNL     1      26.680  14.696  -2.510  0.00  0.00    -0.450 OA
BRANCH   5   6
ATOM      6  C   UNL     1      25.433  14.350  -3.067  0.00  0.00    +0.240 C 
BRANCH   6   7
ATOM      7  C   UNL     1      24.423  15.488  -3.310  0.00  0.00    +0.100 C 
BRANCH   7   9
ATOM      8  N   UNL     1      21.950  15.619  -3.318  0.00  0.00    -0.134 NA
ATOM      9  C   UNL     1      23.102  15.126  -2.764  0.00  0.00    +0.086 A 
ATOM     10  C   UNL     1      22.777  14.295  -1.715  0.00  0.00    +0.134 A 
ATOM     11  N   UNL     1      21.413  14.265  -1.723  0.00  0.00    -0.247 N 
ATOM     12  N   UNL     1      20.923  15.094  -2.668  0.00  0.00    -0.065 NA
BRANCH  11  13
ATOM     13  C   UNL     1      20.476  13.471  -0.945  0.00  0.00    +0.180 C 
BRANCH  13  14
ATOM     14  C   UNL     1      21.090  12.296  -0.222  0.00  0.00    -0.026 A 
ATOM     15  C   UNL     1      21.486  11.153  -0.929  0.00  0.00    +0.009 A 
ATOM     16  C   UNL     1      22.055  10.071  -0.252  0.00  0.00    +0.046 A 
ATOM     17  C   UNL     1      22.255  10.120   1.128  0.00  0.00    +0.120 A 
ATOM     18  C   UNL     1      21.842  11.242   1.841  0.00  0.00    +0.046 A 
ATOM     19  C   UNL     1      21.264  12.327   1.170  0.00  0.00    +0.009 A 
BRANCH  17  20
ATOM     20  O   UNL     1      22.802   8.995   1.681  0.00  0.00    -0.495 OA
ATOM     21  C   UNL     1      22.274   8.618   2.949  0.00  0.00    +0.277 C 
ENDBRANCH  17  20
ENDBRANCH  13  14
ENDBRANCH  11  13
ENDBRANCH   7   9
ENDBRANCH   6   7
ENDBRANCH   5   6
ENDBRANCH   1   5
BRANCH   2  22
ATOM     22  C   UNL     1      28.655  16.168  -0.452  0.00  0.00    +0.152 C 
BRANCH  22  23
ATOM     23  C   UNL     1      30.131  16.533  -0.191  0.00  0.00    +0.193 C 
ATOM     24  O   UNL     1      30.128  17.796   0.512  0.00  0.00    -0.219 OA
BRANCH  23  25
ATOM     25  C   UNL     1      30.952  15.590   0.716  0.00  0.00    +0.212 C 
ATOM     26  O   UNL     1      30.082  14.693   1.425  0.00  0.00    -0.218 OA
BRANCH  25  27
ATOM     27  C   UNL     1      32.019  14.738  -0.073  0.00  0.00    +0.171 C 
ATOM     28  O   UNL     1      31.497  14.185  -1.276  0.00  0.00    -0.343 OA
ATOM     29  C   UNL     1      32.138  13.203  -2.035  0.00  0.00    +0.220 C 
ATOM     30  C   UNL     1      32.577  12.009  -1.170  0.00  0.00    +0.076 C 
ATOM     31  C   UNL     1      33.404  12.565   0.001  0.00  0.00    +0.177 C 
ATOM     32  O   UNL     1      33.869  11.497   0.813  0.00  0.00    -0.221 OA
ATOM     33  C   UNL     1      32.551  13.577   0.829  0.00  0.00    +0.155 C 
BRANCH  33  34
ATOM     34  N   UNL     1      33.332  14.102   1.946  0.00  0.00    -0.202 NA
ATOM     35  C   UNL     1      33.190  13.891   3.279  0.00  0.00    +0.242 C 
ATOM     36  C   UNL     1      34.308  14.317   4.194  0.00  0.00    +0.096 C 
ATOM     37  O   UNL     1      32.165  13.362   3.705  0.00  0.00    -0.273 OA
ENDBRANCH  33  34
BRANCH  29  38
ATOM     38  C   UNL     1      33.368  13.776  -2.929  0.00  0.00    +0.391 C 
ATOM     39  O   UNL     1      34.476  13.486  -2.221  0.00  0.00    -0.243 OA
ATOM     40  O   UNL     1      32.855  14.039  -4.138  0.00  0.00    -0.243 OA
ENDBRANCH  29  38
ENDBRANCH  25  27
ENDBRANCH  23  25
ENDBRANCH  22  23
ENDBRANCH   2  22
TORSDOF 13
