REMARK VINA RESULT:    -7.254      1.417      1.887
REMARK INTER + INTRA:         -14.184
REMARK INTER:                 -12.218
REMARK INTRA:                  -1.966
REMARK UNBOUND:                -1.841
REMARK  Name = lig_assembled_39.pdb
REMARK  12 active torsions:
REMARK  status: ('A' for Active; 'I' for Inactive)
REMARK    1  A    between atoms: _2  and  _8
REMARK    2  A    between atoms: _5  and  _6
REMARK    3  A    between atoms: _5  and  _14
REMARK    4  A    between atoms: _8  and  _9
REMARK    5  A    between atoms: _14  and  _16
REMARK    6  A    between atoms: _15  and  _20
REMARK    7  A    between atoms: _16  and  _19
REMARK    8  A    between atoms: _24  and  _34
REMARK    9  A    between atoms: _26  and  _27
REMARK   10  A    between atoms: _28  and  _30
REMARK   11  A    between atoms: _30  and  _32
REMARK   12  A    between atoms: _32  and  _34
REMARK                            x       y       z     vdW  Elec       q    Type
REMARK                         _______ _______ _______ _____ _____    ______ ____
ROOT
ATOM      1  C   UNL     1      27.712  17.358  -1.390  0.00  0.00    +0.400 C 
ATOM      2  N   UNL     1      28.174  16.248  -0.724  0.00  0.00    -0.278 N 
ATOM      3  H   UNL     1      28.438  16.629   0.239  0.00  0.00    +0.152 HD
ATOM      4  O   UNL     1      27.539  18.390  -0.746  0.00  0.00    -0.226 OA
ENDROOT
BRANCH   2   5
ATOM      5  C   UNL     1      28.446  14.813  -0.737  0.00  0.00    +0.152 C 
BRANCH   5   6
ATOM      6  C   UNL     1      29.450  14.302   0.317  0.00  0.00    +0.193 C 
ATOM      7  O   UNL     1      29.655  12.898   0.049  0.00  0.00    -0.219 OA
BRANCH   6   8
ATOM      8  C   UNL     1      30.870  14.909   0.305  0.00  0.00    +0.212 C 
ATOM      9  O   UNL     1      30.841  16.263   0.784  0.00  0.00    -0.218 OA
BRANCH   8  10
ATOM     10  C   UNL     1      31.906  14.091   1.168  0.00  0.00    +0.171 C 
ATOM     11  O   UNL     1      32.212  14.728   2.404  0.00  0.00    -0.343 OA
ATOM     12  C   UNL     1      33.265  14.356   3.243  0.00  0.00    +0.220 C 
ATOM     13  C   UNL     1      34.595  14.248   2.475  0.00  0.00    +0.076 C 
ATOM     14  C   UNL     1      34.362  13.315   1.275  0.00  0.00    +0.177 C 
ATOM     15  O   UNL     1      35.573  13.149   0.552  0.00  0.00    -0.221 OA
ATOM     16  C   UNL     1      33.231  13.884   0.364  0.00  0.00    +0.155 C 
BRANCH  16  17
ATOM     17  N   UNL     1      33.011  13.004  -0.781  0.00  0.00    -0.202 NA
ATOM     18  C   UNL     1      33.040  13.285  -2.109  0.00  0.00    +0.242 C 
ATOM     19  C   UNL     1      33.071  12.135  -3.082  0.00  0.00    +0.096 C 
ATOM     20  O   UNL     1      33.041  14.456  -2.483  0.00  0.00    -0.273 OA
ENDBRANCH  16  17
BRANCH  12  21
ATOM     21  C   UNL     1      32.963  13.012   4.105  0.00  0.00    +0.391 C 
ATOM     22  O   UNL     1      31.698  12.673   3.788  0.00  0.00    -0.243 OA
ATOM     23  O   UNL     1      34.150  12.587   4.556  0.00  0.00    -0.243 OA
ENDBRANCH  12  21
ENDBRANCH   8  10
ENDBRANCH   6   8
ENDBRANCH   5   6
ENDBRANCH   2   5
BRANCH   1  24
ATOM     24  O   UNL     1      27.530  17.213  -2.662  0.00  0.00    -0.450 OA
BRANCH  24  25
ATOM     25  C   UNL     1      26.492  17.301  -3.609  0.00  0.00    +0.240 C 
BRANCH  25  26
ATOM     26  C   UNL     1      26.065  16.002  -4.319  0.00  0.00    +0.100 C 
BRANCH  26  28
ATOM     27  N   UNL     1      24.257  15.525  -2.698  0.00  0.00    -0.134 NA
ATOM     28  C   UNL     1      25.371  15.106  -3.377  0.00  0.00    +0.086 A 
ATOM     29  C   UNL     1      25.646  13.801  -3.033  0.00  0.00    +0.134 A 
ATOM     30  N   UNL     1      24.616  13.460  -2.206  0.00  0.00    -0.247 N 
ATOM     31  N   UNL     1      23.818  14.515  -1.958  0.00  0.00    -0.065 NA
BRANCH  30  32
ATOM     32  C   UNL     1      24.292  12.142  -1.676  0.00  0.00    +0.181 C 
BRANCH  32  33
ATOM     33  C   UNL     1      24.660  11.978  -0.213  0.00  0.00    -0.012 A 
ATOM     34  C   UNL     1      25.986  12.169   0.229  0.00  0.00    +0.006 A 
ATOM     35  C   UNL     1      26.339  12.016   1.573  0.00  0.00    +0.000 A 
ATOM     36  C   UNL     1      25.379  11.644   2.505  0.00  0.00    +0.001 A 
ATOM     37  C   UNL     1      24.071  11.407   2.090  0.00  0.00    +0.015 A 
ATOM     38  C   UNL     1      23.715  11.561   0.743  0.00  0.00    +0.023 A 
ATOM     39 BR   UNL     1      21.914  11.153   0.286  0.00  0.00    -0.050 Br
ENDBRANCH  32  33
ENDBRANCH  30  32
ENDBRANCH  26  28
ENDBRANCH  25  26
ENDBRANCH  24  25
ENDBRANCH   1  24
TORSDOF 12
