REMARK VINA RESULT:    -6.578      1.968      3.046
REMARK INTER + INTRA:         -12.353
REMARK INTER:                 -10.601
REMARK INTRA:                  -1.753
REMARK UNBOUND:                -1.545
REMARK  Name = lig_assembled_48.pdb
REMARK  11 active torsions:
REMARK  status: ('A' for Active; 'I' for Inactive)
REMARK    1  A    between atoms: _2  and  _8
REMARK    2  A    between atoms: _5  and  _6
REMARK    3  A    between atoms: _5  and  _13
REMARK    4  A    between atoms: _13  and  _15
REMARK    5  A    between atoms: _14  and  _19
REMARK    6  A    between atoms: _15  and  _18
REMARK    7  A    between atoms: _23  and  _33
REMARK    8  A    between atoms: _25  and  _26
REMARK    9  A    between atoms: _27  and  _29
REMARK   10  A    between atoms: _29  and  _31
REMARK   11  A    between atoms: _31  and  _33
REMARK                            x       y       z     vdW  Elec       q    Type
REMARK                         _______ _______ _______ _____ _____    ______ ____
ROOT
ATOM      1  C   UNL     1      30.273  13.134  -1.768  0.00  0.00    +0.152 C 
ENDROOT
BRANCH   1   3
ATOM      2  C   UNL     1      28.992  14.620   0.129  0.00  0.00    +0.400 C 
ATOM      3  N   UNL     1      29.634  13.606  -0.542  0.00  0.00    -0.278 N 
ATOM      4  H   UNL     1      29.651  12.810   0.171  0.00  0.00    +0.152 HD
ATOM      5  O   UNL     1      28.467  14.359   1.208  0.00  0.00    -0.226 OA
BRANCH   2   6
ATOM      6  O   UNL     1      29.033  15.780  -0.440  0.00  0.00    -0.450 OA
BRANCH   6   7
ATOM      7  C   UNL     1      28.393  17.032  -0.360  0.00  0.00    +0.240 C 
BRANCH   7   8
ATOM      8  C   UNL     1      28.081  17.757  -1.683  0.00  0.00    +0.100 C 
BRANCH   8  10
ATOM      9  N   UNL     1      26.812  17.326  -3.758  0.00  0.00    -0.134 NA
ATOM     10  C   UNL     1      27.112  16.976  -2.471  0.00  0.00    +0.086 A 
ATOM     11  C   UNL     1      26.401  15.844  -2.136  0.00  0.00    +0.134 A 
ATOM     12  N   UNL     1      25.760  15.497  -3.287  0.00  0.00    -0.248 N 
ATOM     13  N   UNL     1      25.953  16.437  -4.237  0.00  0.00    -0.065 NA
BRANCH  12  14
ATOM     14  C   UNL     1      24.996  14.303  -3.628  0.00  0.00    +0.109 C 
ATOM     15  C   UNL     1      24.469  13.602  -2.361  0.00  0.00    +0.027 C 
ATOM     16  C   UNL     1      23.334  14.393  -1.716  0.00  0.00    +0.002 C 
ATOM     17  C   UNL     1      22.169  14.559  -2.683  0.00  0.00    +0.000 C 
ATOM     18  C   UNL     1      22.596  15.177  -4.012  0.00  0.00    +0.002 C 
ATOM     19  C   UNL     1      23.835  14.510  -4.621  0.00  0.00    +0.027 C 
ENDBRANCH  12  14
ENDBRANCH   8  10
ENDBRANCH   7   8
ENDBRANCH   6   7
ENDBRANCH   2   6
ENDBRANCH   1   3
BRANCH   1  20
ATOM     20  C   UNL     1      31.732  12.653  -1.632  0.00  0.00    +0.193 C 
ATOM     21  O   UNL     1      32.253  12.521  -2.973  0.00  0.00    -0.219 OA
BRANCH  20  22
ATOM     22  C   UNL     1      32.731  13.593  -0.921  0.00  0.00    +0.212 C 
ATOM     23  O   UNL     1      32.327  14.963  -1.074  0.00  0.00    -0.218 OA
BRANCH  22  24
ATOM     24  C   UNL     1      32.895  13.283   0.616  0.00  0.00    +0.171 C 
ATOM     25  O   UNL     1      32.013  14.053   1.426  0.00  0.00    -0.343 OA
ATOM     26  C   UNL     1      32.111  14.160   2.816  0.00  0.00    +0.220 C 
ATOM     27  C   UNL     1      33.536  14.531   3.261  0.00  0.00    +0.076 C 
ATOM     28  C   UNL     1      34.499  13.518   2.620  0.00  0.00    +0.177 C 
ATOM     29  O   UNL     1      35.831  13.792   3.032  0.00  0.00    -0.221 OA
ATOM     30  C   UNL     1      34.367  13.560   1.066  0.00  0.00    +0.155 C 
BRANCH  30  31
ATOM     31  N   UNL     1      35.285  12.604   0.453  0.00  0.00    -0.202 NA
ATOM     32  C   UNL     1      36.237  12.800  -0.495  0.00  0.00    +0.242 C 
ATOM     33  C   UNL     1      37.243  11.704  -0.736  0.00  0.00    +0.096 C 
ATOM     34  O   UNL     1      36.258  13.855  -1.126  0.00  0.00    -0.273 OA
ENDBRANCH  30  31
BRANCH  26  35
ATOM     35  C   UNL     1      31.560  12.851   3.605  0.00  0.00    +0.391 C 
ATOM     36  O   UNL     1      32.169  12.889   4.807  0.00  0.00    -0.243 OA
ATOM     37  O   UNL     1      30.510  12.410   2.903  0.00  0.00    -0.243 OA
ENDBRANCH  26  35
ENDBRANCH  22  24
ENDBRANCH  20  22
ENDBRANCH   1  20
TORSDOF 11
