REMARK VINA RESULT:    -7.060      3.050      5.588
REMARK INTER + INTRA:         -13.208
REMARK INTER:                 -11.151
REMARK INTRA:                  -2.058
REMARK UNBOUND:                -1.609
REMARK  Name = lig_assembled_87.pdb
REMARK  12 active torsions:
REMARK  status: ('A' for Active; 'I' for Inactive)
REMARK    1  A    between atoms: _2  and  _9
REMARK    2  A    between atoms: _3  and  _12
REMARK    3  A    between atoms: _6  and  _7
REMARK    4  A    between atoms: _6  and  _16
REMARK    5  A    between atoms: _16  and  _18
REMARK    6  A    between atoms: _17  and  _22
REMARK    7  A    between atoms: _18  and  _21
REMARK    8  A    between atoms: _26  and  _36
REMARK    9  A    between atoms: _28  and  _29
REMARK   10  A    between atoms: _30  and  _32
REMARK   11  A    between atoms: _32  and  _34
REMARK   12  A    between atoms: _34  and  _36
REMARK                            x       y       z     vdW  Elec       q    Type
REMARK                         _______ _______ _______ _____ _____    ______ ____
ROOT
ATOM      1  C   UNL     1      24.441   9.826   2.405  0.00  0.00    +0.400 C 
ATOM      2  N   UNL     1      25.425  10.687   2.831  0.00  0.00    -0.278 N 
ATOM      3  H   UNL     1      25.982  10.099   3.528  0.00  0.00    +0.152 HD
ATOM      4  O   UNL     1      24.523   8.645   2.733  0.00  0.00    -0.226 OA
ENDROOT
BRANCH   1   5
ATOM      5  O   UNL     1      23.490  10.361   1.712  0.00  0.00    -0.450 OA
BRANCH   5   6
ATOM      6  C   UNL     1      22.516  11.371   1.836  0.00  0.00    +0.240 C 
BRANCH   6   7
ATOM      7  C   UNL     1      21.480  11.503   0.704  0.00  0.00    +0.100 C 
BRANCH   7   9
ATOM      8  N   UNL     1      21.071  13.479  -0.720  0.00  0.00    -0.134 NA
ATOM      9  C   UNL     1      21.925  12.510  -0.275  0.00  0.00    +0.086 A 
ATOM     10  C   UNL     1      23.155  12.686  -0.869  0.00  0.00    +0.134 A 
ATOM     11  N   UNL     1      23.027  13.853  -1.573  0.00  0.00    -0.248 N 
ATOM     12  N   UNL     1      21.737  14.248  -1.565  0.00  0.00    -0.065 NA
BRANCH  11  13
ATOM     13  C   UNL     1      24.026  14.665  -2.294  0.00  0.00    +0.112 C 
ATOM     14  C   UNL     1      23.553  15.209  -3.671  0.00  0.00    +0.045 C 
ATOM     15  C   UNL     1      24.387  14.767  -4.885  0.00  0.00    +0.059 C 
ATOM     16  C   UNL     1      25.694  15.566  -5.006  0.00  0.00    +0.020 C 
ATOM     17  C   UNL     1      26.746  14.690  -4.328  0.00  0.00    +0.020 C 
ATOM     18  C   UNL     1      25.934  13.549  -3.714  0.00  0.00    +0.059 C 
ATOM     19  N   UNL     1      24.909  13.414  -4.744  0.00  0.00    -0.299 NA
ATOM     20  C   UNL     1      23.952  12.339  -4.602  0.00  0.00    +0.105 C 
ATOM     21  C   UNL     1      25.408  13.946  -2.333  0.00  0.00    +0.045 C 
ENDBRANCH  11  13
ENDBRANCH   7   9
ENDBRANCH   6   7
ENDBRANCH   5   6
ENDBRANCH   1   5
BRANCH   2  22
ATOM     22  C   UNL     1      26.044  12.007   2.749  0.00  0.00    +0.152 C 
BRANCH  22  23
ATOM     23  C   UNL     1      27.107  12.192   1.647  0.00  0.00    +0.193 C 
ATOM     24  O   UNL     1      26.410  12.130   0.383  0.00  0.00    -0.219 OA
BRANCH  23  25
ATOM     25  C   UNL     1      27.865  13.537   1.603  0.00  0.00    +0.212 C 
ATOM     26  O   UNL     1      28.150  13.996   2.934  0.00  0.00    -0.218 OA
BRANCH  25  27
ATOM     27  C   UNL     1      29.216  13.466   0.794  0.00  0.00    +0.171 C 
ATOM     28  O   UNL     1      30.265  12.847   1.533  0.00  0.00    -0.343 OA
ATOM     29  C   UNL     1      31.611  12.870   1.161  0.00  0.00    +0.220 C 
ATOM     30  C   UNL     1      32.092  14.298   0.847  0.00  0.00    +0.076 C 
ATOM     31  C   UNL     1      31.124  14.896  -0.187  0.00  0.00    +0.177 C 
ATOM     32  O   UNL     1      31.547  16.204  -0.543  0.00  0.00    -0.221 OA
ATOM     33  C   UNL     1      29.670  14.904   0.379  0.00  0.00    +0.155 C 
BRANCH  33  34
ATOM     34  N   UNL     1      28.748  15.478  -0.598  0.00  0.00    -0.202 NA
ATOM     35  C   UNL     1      28.291  16.750  -0.716  0.00  0.00    +0.242 C 
ATOM     36  C   UNL     1      27.582  17.140  -1.987  0.00  0.00    +0.096 C 
ATOM     37  O   UNL     1      28.464  17.546   0.204  0.00  0.00    -0.273 OA
ENDBRANCH  33  34
BRANCH  29  38
ATOM     38  C   UNL     1      31.966  11.842  -0.046  0.00  0.00    +0.391 C 
ATOM     39  O   UNL     1      33.041  12.380  -0.656  0.00  0.00    -0.243 OA
ATOM     40  O   UNL     1      31.268  10.727   0.201  0.00  0.00    -0.243 OA
ENDBRANCH  29  38
ENDBRANCH  25  27
ENDBRANCH  23  25
ENDBRANCH  22  23
ENDBRANCH   2  22
TORSDOF 11
