REMARK VINA RESULT:    -7.140     22.565     25.821
REMARK INTER + INTRA:         -16.006
REMARK INTER:                 -11.800
REMARK INTRA:                  -4.206
REMARK UNBOUND:                -3.231
REMARK  Name = lig_assembled_34.pdb
REMARK  14 active torsions:
REMARK  status: ('A' for Active; 'I' for Inactive)
REMARK    1  A    between atoms: _2  and  _8
REMARK    2  A    between atoms: _5  and  _6
REMARK    3  A    between atoms: _5  and  _32
REMARK    4  A    between atoms: _10  and  _11
REMARK    5  A    between atoms: _12  and  _13
REMARK    6  A    between atoms: _17  and  _30
REMARK    7  A    between atoms: _32  and  _34
REMARK    8  A    between atoms: _33  and  _38
REMARK    9  A    between atoms: _34  and  _37
REMARK   10  A    between atoms: _42  and  _52
REMARK   11  A    between atoms: _44  and  _45
REMARK   12  A    between atoms: _46  and  _48
REMARK   13  A    between atoms: _48  and  _50
REMARK   14  A    between atoms: _50  and  _52
REMARK                            x       y       z     vdW  Elec       q    Type
REMARK                         _______ _______ _______ _____ _____    ______ ____
ROOT
ATOM      1  N   UNL     1      29.539  34.424  16.350  0.00  0.00    -0.134 NA
ATOM      2  C   UNL     1      29.959  33.323  15.660  0.00  0.00    +0.086 A 
ATOM      3  C   UNL     1      29.534  33.426  14.358  0.00  0.00    +0.139 A 
ATOM      4  N   UNL     1      28.873  34.633  14.279  0.00  0.00    -0.220 N 
ATOM      5  N   UNL     1      28.868  35.210  15.511  0.00  0.00    -0.061 NA
ENDROOT
BRANCH   4   6
ATOM      6  C   UNL     1      28.314  35.251  13.130  0.00  0.00    +0.068 A 
ATOM      7  C   UNL     1      28.224  34.531  11.932  0.00  0.00    +0.038 A 
ATOM      8  C   UNL     1      27.798  35.121  10.718  0.00  0.00    +0.007 A 
ATOM      9  C   UNL     1      27.376  36.465  10.733  0.00  0.00    -0.008 A 
ATOM     10  C   UNL     1      27.424  37.173  11.959  0.00  0.00    +0.011 A 
ATOM     11  C   UNL     1      27.902  36.583  13.142  0.00  0.00    +0.028 A 
BRANCH   9  12
ATOM     12  C   UNL     1      26.952  37.241   9.521  0.00  0.00    +0.004 A 
ATOM     13  C   UNL     1      27.850  37.809   8.668  0.00  0.00    +0.026 A 
ATOM     14  C   UNL     1      29.300  37.765   8.896  0.00  0.00    +0.016 A 
ATOM     15  C   UNL     1      30.150  38.487   8.152  0.00  0.00    +0.051 A 
ATOM     16  C   UNL     1      29.650  39.335   7.043  0.00  0.00    +0.183 A 
ATOM     17  O   UNL     1      30.410  40.051   6.394  0.00  0.00    -0.288 OA
ATOM     18  C   UNL     1      28.219  39.228   6.696  0.00  0.00    +0.097 A 
ATOM     19  C   UNL     1      27.390  38.486   7.440  0.00  0.00    +0.140 A 
ATOM     20  O   UNL     1      26.088  38.306   6.994  0.00  0.00    -0.455 OA
ATOM     21  C   UNL     1      25.170  37.770   7.858  0.00  0.00    +0.140 A 
ATOM     22  C   UNL     1      23.856  37.696   7.393  0.00  0.00    +0.092 A 
ATOM     23  C   UNL     1      22.864  37.219   8.234  0.00  0.00    +0.120 A 
ATOM     24  C   UNL     1      23.156  36.892   9.555  0.00  0.00    +0.046 A 
ATOM     25  C   UNL     1      24.479  36.959  10.002  0.00  0.00    +0.016 A 
ATOM     26  C   UNL     1      25.516  37.340   9.137  0.00  0.00    +0.026 A 
BRANCH  23  27
ATOM     27  O   UNL     1      21.605  37.070   7.731  0.00  0.00    -0.507 OA
ATOM     28  H   UNL     1      21.199  37.950   7.692  0.00  0.00    +0.292 HD
ENDBRANCH  23  27
ENDBRANCH   9  12
BRANCH   8  29
ATOM     29  C   UNL     1      27.907  34.260   9.474  0.00  0.00    +0.072 C 
ATOM     30  O   UNL     1      26.816  34.026   8.859  0.00  0.00    -0.545 OA
ATOM     31  O   UNL     1      29.038  33.773   9.177  0.00  0.00    -0.545 OA
ENDBRANCH   8  29
ENDBRANCH   4   6
BRANCH   2  32
ATOM     32  C   UNL     1      30.742  32.243  16.291  0.00  0.00    +0.100 C 
BRANCH  32  33
ATOM     33  C   UNL     1      29.825  31.300  17.092  0.00  0.00    +0.240 C 
BRANCH  33  34
ATOM     34  O   UNL     1      28.919  30.503  16.366  0.00  0.00    -0.450 OA
BRANCH  34  35
ATOM     35  C   UNL     1      27.667  30.182  16.379  0.00  0.00    +0.400 C 
ATOM     36  N   UNL     1      26.783  31.234  16.434  0.00  0.00    -0.278 N 
ATOM     37  H   UNL     1      25.838  30.774  16.239  0.00  0.00    +0.152 HD
ATOM     38  O   UNL     1      27.209  29.044  16.318  0.00  0.00    -0.226 OA
BRANCH  36  39
ATOM     39  C   UNL     1      26.560  32.662  16.649  0.00  0.00    +0.152 C 
BRANCH  39  40
ATOM     40  C   UNL     1      25.194  33.213  16.189  0.00  0.00    +0.193 C 
ATOM     41  O   UNL     1      25.272  34.652  16.291  0.00  0.00    -0.219 OA
BRANCH  40  42
ATOM     42  C   UNL     1      24.775  32.952  14.725  0.00  0.00    +0.212 C 
ATOM     43  O   UNL     1      25.931  32.704  13.908  0.00  0.00    -0.218 OA
BRANCH  42  44
ATOM     44  C   UNL     1      23.777  31.742  14.567  0.00  0.00    +0.171 C 
ATOM     45  O   UNL     1      24.446  30.510  14.317  0.00  0.00    -0.343 OA
ATOM     46  C   UNL     1      23.810  29.338  13.900  0.00  0.00    +0.220 C 
ATOM     47  C   UNL     1      22.898  29.585  12.686  0.00  0.00    +0.076 C 
ATOM     48  C   UNL     1      21.952  30.743  13.046  0.00  0.00    +0.177 C 
ATOM     49  O   UNL     1      21.058  30.986  11.969  0.00  0.00    -0.221 OA
ATOM     50  C   UNL     1      22.775  32.020  13.399  0.00  0.00    +0.155 C 
BRANCH  50  51
ATOM     51  N   UNL     1      21.880  33.124  13.735  0.00  0.00    -0.202 NA
ATOM     52  C   UNL     1      21.748  34.343  13.152  0.00  0.00    +0.242 C 
ATOM     53  C   UNL     1      20.547  35.179  13.507  0.00  0.00    +0.096 C 
ATOM     54  O   UNL     1      22.601  34.731  12.356  0.00  0.00    -0.273 OA
ENDBRANCH  50  51
BRANCH  46  55
ATOM     55  C   UNL     1      23.020  28.571  15.094  0.00  0.00    +0.391 C 
ATOM     56  O   UNL     1      22.058  27.860  14.474  0.00  0.00    -0.243 OA
ATOM     57  O   UNL     1      23.790  28.689  16.183  0.00  0.00    -0.243 OA
ENDBRANCH  46  55
ENDBRANCH  42  44
ENDBRANCH  40  42
ENDBRANCH  39  40
ENDBRANCH  36  39
ENDBRANCH  34  35
ENDBRANCH  33  34
ENDBRANCH  32  33
ENDBRANCH   2  32
TORSDOF 14
