REMARK VINA RESULT:    -5.413      2.482      3.784
REMARK INTER + INTRA:         -12.403
REMARK INTER:                  -9.932
REMARK INTRA:                  -2.471
REMARK UNBOUND:                -3.035
REMARK  Name = lig_assembled_22.pdb
REMARK  15 active torsions:
REMARK  status: ('A' for Active; 'I' for Inactive)
REMARK    1  A    between atoms: _2  and  _8
REMARK    2  A    between atoms: _4  and  _8
REMARK    3  A    between atoms: _4  and  _11
REMARK    4  A    between atoms: _5  and  _6
REMARK    5  A    between atoms: _5  and  _13
REMARK    6  A    between atoms: _8  and  _9
REMARK    7  A    between atoms: _8  and  _10
REMARK    8  A    between atoms: _13  and  _15
REMARK    9  A    between atoms: _14  and  _19
REMARK   10  A    between atoms: _15  and  _18
REMARK   11  A    between atoms: _23  and  _33
REMARK   12  A    between atoms: _25  and  _26
REMARK   13  A    between atoms: _27  and  _29
REMARK   14  A    between atoms: _29  and  _31
REMARK   15  A    between atoms: _31  and  _33
REMARK                            x       y       z     vdW  Elec       q    Type
REMARK                         _______ _______ _______ _____ _____    ______ ____
ROOT
ATOM      1  C   UNL     1      27.503  17.366  -1.492  0.00  0.00    +0.400 C 
ATOM      2  N   UNL     1      28.201  16.355  -0.872  0.00  0.00    -0.278 N 
ATOM      3  H   UNL     1      28.900  16.879  -0.256  0.00  0.00    +0.152 HD
ATOM      4  O   UNL     1      27.682  18.517  -1.101  0.00  0.00    -0.226 OA
ENDROOT
BRANCH   1   5
ATOM      5  O   UNL     1      26.735  17.001  -2.465  0.00  0.00    -0.450 OA
BRANCH   5   6
ATOM      6  C   UNL     1      26.741  16.957  -3.873  0.00  0.00    +0.240 C 
BRANCH   6   7
ATOM      7  C   UNL     1      25.878  15.879  -4.555  0.00  0.00    +0.100 C 
BRANCH   7   9
ATOM      8  N   UNL     1      25.611  14.043  -2.925  0.00  0.00    -0.134 NA
ATOM      9  C   UNL     1      26.227  14.543  -4.038  0.00  0.00    +0.086 A 
ATOM     10  C   UNL     1      27.137  13.617  -4.500  0.00  0.00    +0.135 A 
ATOM     11  N   UNL     1      27.029  12.572  -3.626  0.00  0.00    -0.235 N 
ATOM     12  N   UNL     1      26.109  12.842  -2.680  0.00  0.00    -0.064 NA
BRANCH  11  13
ATOM     13  C   UNL     1      27.762  11.305  -3.596  0.00  0.00    +0.155 C 
ATOM     14  C   UNL     1      28.635  11.108  -4.855  0.00  0.00    +0.048 C 
ATOM     15  C   UNL     1      26.747  10.149  -3.522  0.00  0.00    +0.048 C 
BRANCH  13  16
ATOM     16  C   UNL     1      28.689  11.256  -2.379  0.00  0.00    +0.332 C 
ATOM     17  O   UNL     1      29.904  11.403  -2.432  0.00  0.00    -0.248 OA
BRANCH  16  18
ATOM     18  O   UNL     1      28.074  11.035  -1.191  0.00  0.00    -0.479 OA
ATOM     19  H   UNL     1      27.334  11.633  -0.967  0.00  0.00    +0.295 HD
ENDBRANCH  16  18
ENDBRANCH  13  16
ENDBRANCH  11  13
ENDBRANCH   7   9
ENDBRANCH   6   7
ENDBRANCH   5   6
ENDBRANCH   1   5
BRANCH   2  20
ATOM     20  C   UNL     1      28.400  14.922  -0.672  0.00  0.00    +0.152 C 
BRANCH  20  21
ATOM     21  C   UNL     1      29.351  14.522   0.474  0.00  0.00    +0.193 C 
ATOM     22  O   UNL     1      29.448  13.081   0.449  0.00  0.00    -0.219 OA
BRANCH  21  23
ATOM     23  C   UNL     1      30.815  15.008   0.391  0.00  0.00    +0.212 C 
ATOM     24  O   UNL     1      30.925  16.357   0.874  0.00  0.00    -0.218 OA
BRANCH  23  25
ATOM     25  C   UNL     1      31.821  14.101   1.197  0.00  0.00    +0.171 C 
ATOM     26  O   UNL     1      32.105  14.616   2.494  0.00  0.00    -0.343 OA
ATOM     27  C   UNL     1      33.134  14.154   3.318  0.00  0.00    +0.220 C 
ATOM     28  C   UNL     1      34.480  14.101   2.574  0.00  0.00    +0.076 C 
ATOM     29  C   UNL     1      34.265  13.286   1.287  0.00  0.00    +0.177 C 
ATOM     30  O   UNL     1      35.492  13.172   0.580  0.00  0.00    -0.221 OA
ATOM     31  C   UNL     1      33.163  13.952   0.407  0.00  0.00    +0.155 C 
BRANCH  31  32
ATOM     32  N   UNL     1      32.961  13.186  -0.820  0.00  0.00    -0.202 NA
ATOM     33  C   UNL     1      33.156  13.550  -2.113  0.00  0.00    +0.242 C 
ATOM     34  C   UNL     1      33.154  12.473  -3.167  0.00  0.00    +0.096 C 
ATOM     35  O   UNL     1      33.330  14.734  -2.391  0.00  0.00    -0.273 OA
ENDBRANCH  31  32
BRANCH  27  36
ATOM     36  C   UNL     1      32.796  12.740   4.043  0.00  0.00    +0.391 C 
ATOM     37  O   UNL     1      31.536  12.448   3.668  0.00  0.00    -0.243 OA
ATOM     38  O   UNL     1      33.968  12.259   4.479  0.00  0.00    -0.243 OA
ENDBRANCH  27  36
ENDBRANCH  23  25
ENDBRANCH  21  23
ENDBRANCH  20  21
ENDBRANCH   2  20
TORSDOF 13
