REMARK VINA RESULT:    -6.242      2.171      2.790
REMARK INTER + INTRA:         -12.460
REMARK INTER:                 -11.026
REMARK INTRA:                  -1.434
REMARK UNBOUND:                -1.839
REMARK  Name = lig_assembled_61.pdb
REMARK  12 active torsions:
REMARK  status: ('A' for Active; 'I' for Inactive)
REMARK    1  A    between atoms: _2  and  _8
REMARK    2  A    between atoms: _5  and  _6
REMARK    3  A    between atoms: _5  and  _12
REMARK    4  A    between atoms: _8  and  _9
REMARK    5  A    between atoms: _12  and  _14
REMARK    6  A    between atoms: _13  and  _18
REMARK    7  A    between atoms: _14  and  _17
REMARK    8  A    between atoms: _22  and  _32
REMARK    9  A    between atoms: _24  and  _25
REMARK   10  A    between atoms: _26  and  _28
REMARK   11  A    between atoms: _28  and  _30
REMARK   12  A    between atoms: _30  and  _32
REMARK                            x       y       z     vdW  Elec       q    Type
REMARK                         _______ _______ _______ _____ _____    ______ ____
ROOT
ATOM      1  C   UNL     1      27.127  13.078  -0.148  0.00  0.00    +0.152 C 
ENDROOT
BRANCH   1   3
ATOM      2  C   UNL     1      27.811  15.432  -1.346  0.00  0.00    +0.400 C 
ATOM      3  N   UNL     1      27.815  14.293  -0.576  0.00  0.00    -0.278 N 
ATOM      4  H   UNL     1      28.749  14.347  -0.059  0.00  0.00    +0.152 HD
ATOM      5  O   UNL     1      28.690  16.267  -1.150  0.00  0.00    -0.226 OA
BRANCH   2   6
ATOM      6  O   UNL     1      26.881  15.499  -2.241  0.00  0.00    -0.450 OA
BRANCH   6   7
ATOM      7  C   UNL     1      25.720  14.803  -2.629  0.00  0.00    +0.240 C 
BRANCH   7   8
ATOM      8  C   UNL     1      24.572  15.624  -3.248  0.00  0.00    +0.100 C 
BRANCH   8  10
ATOM      9  N   UNL     1      22.122  15.364  -3.488  0.00  0.00    -0.134 NA
ATOM     10  C   UNL     1      23.268  15.124  -2.775  0.00  0.00    +0.086 A 
ATOM     11  C   UNL     1      22.954  14.392  -1.649  0.00  0.00    +0.134 A 
ATOM     12  N   UNL     1      21.597  14.273  -1.706  0.00  0.00    -0.247 N 
ATOM     13  N   UNL     1      21.105  14.821  -2.833  0.00  0.00    -0.065 NA
BRANCH  12  14
ATOM     14  C   UNL     1      20.711  13.624  -0.756  0.00  0.00    +0.180 C 
BRANCH  14  15
ATOM     15  C   UNL     1      21.210  12.258  -0.373  0.00  0.00    -0.019 A 
ATOM     16  C   UNL     1      21.480  11.838   0.975  0.00  0.00    +0.013 A 
ATOM     17  C   UNL     1      21.966  10.551   1.046  0.00  0.00    +0.045 A 
ATOM     18  S   UNL     1      22.091   9.828  -0.495  0.00  0.00    -0.105 S 
ATOM     19  C   UNL     1      21.508  11.239  -1.263  0.00  0.00    +0.050 A 
ENDBRANCH  14  15
ENDBRANCH  12  14
ENDBRANCH   8  10
ENDBRANCH   7   8
ENDBRANCH   6   7
ENDBRANCH   2   6
ENDBRANCH   1   3
BRANCH   1  20
ATOM     20  C   UNL     1      27.403  12.614   1.297  0.00  0.00    +0.193 C 
ATOM     21  O   UNL     1      28.037  11.319   1.203  0.00  0.00    -0.219 OA
BRANCH  20  22
ATOM     22  C   UNL     1      28.378  13.460   2.146  0.00  0.00    +0.212 C 
ATOM     23  O   UNL     1      27.737  13.906   3.352  0.00  0.00    -0.218 OA
BRANCH  22  24
ATOM     24  C   UNL     1      29.698  12.690   2.532  0.00  0.00    +0.171 C 
ATOM     25  O   UNL     1      29.998  12.780   3.922  0.00  0.00    -0.343 OA
ATOM     26  C   UNL     1      31.217  12.405   4.491  0.00  0.00    +0.220 C 
ATOM     27  C   UNL     1      32.410  13.038   3.753  0.00  0.00    +0.076 C 
ATOM     28  C   UNL     1      32.262  12.702   2.260  0.00  0.00    +0.177 C 
ATOM     29  O   UNL     1      33.363  13.231   1.536  0.00  0.00    -0.221 OA
ATOM     30  C   UNL     1      30.907  13.254   1.716  0.00  0.00    +0.155 C 
BRANCH  30  31
ATOM     31  N   UNL     1      30.766  12.942   0.296  0.00  0.00    -0.202 NA
ATOM     32  C   UNL     1      31.170  13.647  -0.791  0.00  0.00    +0.242 C 
ATOM     33  C   UNL     1      31.163  12.960  -2.132  0.00  0.00    +0.096 C 
ATOM     34  O   UNL     1      31.530  14.815  -0.659  0.00  0.00    -0.273 OA
ENDBRANCH  30  31
BRANCH  26  35
ATOM     35  C   UNL     1      31.394  10.797   4.641  0.00  0.00    +0.391 C 
ATOM     36  O   UNL     1      32.672  10.623   5.029  0.00  0.00    -0.243 OA
ATOM     37  O   UNL     1      30.157  10.286   4.622  0.00  0.00    -0.243 OA
ENDBRANCH  26  35
ENDBRANCH  22  24
ENDBRANCH  20  22
ENDBRANCH   1  20
TORSDOF 12
