REMARK VINA RESULT:    -7.451      1.510      2.094
REMARK INTER + INTRA:         -15.883
REMARK INTER:                 -13.316
REMARK INTRA:                  -2.567
REMARK UNBOUND:                -2.551
REMARK  Name = lig_assembled_64.pdb
REMARK  14 active torsions:
REMARK  status: ('A' for Active; 'I' for Inactive)
REMARK    1  A    between atoms: _2  and  _9
REMARK    2  A    between atoms: _6  and  _7
REMARK    3  A    between atoms: _6  and  _22
REMARK    4  A    between atoms: _11  and  _12
REMARK    5  A    between atoms: _12  and  _20
REMARK    6  A    between atoms: _13  and  _14
REMARK    7  A    between atoms: _22  and  _24
REMARK    8  A    between atoms: _23  and  _28
REMARK    9  A    between atoms: _24  and  _27
REMARK   10  A    between atoms: _32  and  _42
REMARK   11  A    between atoms: _34  and  _35
REMARK   12  A    between atoms: _36  and  _38
REMARK   13  A    between atoms: _38  and  _40
REMARK   14  A    between atoms: _40  and  _42
REMARK                            x       y       z     vdW  Elec       q    Type
REMARK                         _______ _______ _______ _____ _____    ______ ____
ROOT
ATOM      1  O   UNL     1      32.281  12.419  -4.814  0.00  0.00    -0.450 OA
ENDROOT
BRANCH   1   2
ATOM      2  C   UNL     1      33.088  13.371  -4.478  0.00  0.00    +0.400 C 
ATOM      3  N   UNL     1      33.715  13.219  -3.263  0.00  0.00    -0.278 N 
ATOM      4  H   UNL     1      34.460  13.985  -3.272  0.00  0.00    +0.152 HD
ATOM      5  O   UNL     1      33.359  14.364  -5.149  0.00  0.00    -0.226 OA
BRANCH   3   6
ATOM      6  C   UNL     1      33.807  12.507  -1.992  0.00  0.00    +0.152 C 
BRANCH   6   7
ATOM      7  C   UNL     1      33.601  13.356  -0.721  0.00  0.00    +0.193 C 
ATOM      8  O   UNL     1      34.622  14.378  -0.734  0.00  0.00    -0.219 OA
BRANCH   7   9
ATOM      9  C   UNL     1      32.276  14.138  -0.590  0.00  0.00    +0.212 C 
ATOM     10  O   UNL     1      31.339  13.708  -1.591  0.00  0.00    -0.218 OA
BRANCH   9  11
ATOM     11  C   UNL     1      31.601  13.990   0.828  0.00  0.00    +0.171 C 
ATOM     12  O   UNL     1      31.806  12.703   1.400  0.00  0.00    -0.343 OA
ATOM     13  C   UNL     1      31.126  12.222   2.522  0.00  0.00    +0.220 C 
ATOM     14  C   UNL     1      29.603  12.390   2.380  0.00  0.00    +0.076 C 
ATOM     15  C   UNL     1      29.331  13.865   2.042  0.00  0.00    +0.177 C 
ATOM     16  O   UNL     1      27.931  14.085   1.939  0.00  0.00    -0.221 OA
ATOM     17  C   UNL     1      30.064  14.258   0.721  0.00  0.00    +0.155 C 
BRANCH  17  18
ATOM     18  N   UNL     1      29.802  15.656   0.392  0.00  0.00    -0.202 NA
ATOM     19  C   UNL     1      28.930  16.189  -0.501  0.00  0.00    +0.242 C 
ATOM     20  C   UNL     1      28.648  17.667  -0.432  0.00  0.00    +0.096 C 
ATOM     21  O   UNL     1      28.395  15.461  -1.335  0.00  0.00    -0.273 OA
ENDBRANCH  17  18
BRANCH  13  22
ATOM     22  C   UNL     1      31.668  12.840   3.922  0.00  0.00    +0.391 C 
ATOM     23  O   UNL     1      30.759  12.464   4.843  0.00  0.00    -0.243 OA
ATOM     24  O   UNL     1      32.932  13.218   3.695  0.00  0.00    -0.243 OA
ENDBRANCH  13  22
ENDBRANCH   9  11
ENDBRANCH   7   9
ENDBRANCH   6   7
ENDBRANCH   3   6
ENDBRANCH   1   2
BRANCH   1  25
ATOM     25  C   UNL     1      30.929  12.240  -5.168  0.00  0.00    +0.240 C 
BRANCH  25  26
ATOM     26  C   UNL     1      30.000  11.592  -4.123  0.00  0.00    +0.100 C 
BRANCH  26  28
ATOM     27  N   UNL     1      28.225  12.844  -5.322  0.00  0.00    -0.134 NA
ATOM     28  C   UNL     1      28.642  12.160  -4.216  0.00  0.00    +0.086 A 
ATOM     29  C   UNL     1      27.617  12.122  -3.300  0.00  0.00    +0.139 A 
ATOM     30  N   UNL     1      26.584  12.809  -3.892  0.00  0.00    -0.220 N 
ATOM     31  N   UNL     1      26.972  13.234  -5.119  0.00  0.00    -0.061 NA
BRANCH  30  32
ATOM     32  C   UNL     1      25.292  13.073  -3.377  0.00  0.00    +0.071 A 
ATOM     33  C   UNL     1      24.433  13.939  -4.045  0.00  0.00    +0.063 A 
ATOM     34  CA  UNL     1      23.187  14.154  -3.491  0.00  0.00    +0.150 A 
ATOM     35  N   UNL     1      22.740  13.586  -2.334  0.00  0.00    -0.240 NA
ATOM     36  C   UNL     1      23.592  12.749  -1.680  0.00  0.00    +0.074 A 
ATOM     37  C   UNL     1      24.865  12.467  -2.185  0.00  0.00    +0.056 A 
BRANCH  36  38
ATOM     38  C   UNL     1      23.086  12.193  -0.402  0.00  0.00    +0.000 A 
ATOM     39  C   UNL     1      23.916  11.478   0.483  0.00  0.00    +0.010 A 
ATOM     40  C   UNL     1      23.437  10.989   1.705  0.00  0.00    +0.001 A 
ATOM     41  C   UNL     1      22.113  11.205   2.073  0.00  0.00    +0.000 A 
ATOM     42  C   UNL     1      21.268  11.902   1.217  0.00  0.00    +0.001 A 
ATOM     43  C   UNL     1      21.749  12.387  -0.004  0.00  0.00    +0.010 A 
ENDBRANCH  36  38
BRANCH  34  44
ATOM     44  C   UNL     1      22.233  15.076  -4.172  0.00  0.00    +0.355 C 
ATOM     45  OXT UNL     1      21.501  15.861  -3.596  0.00  0.00    -0.243 OA
BRANCH  44  46
ATOM     46  O   UNL     1      22.291  14.917  -5.515  0.00  0.00    -0.476 OA
ATOM     47  H   UNL     1      23.191  14.605  -5.762  0.00  0.00    +0.295 HD
ENDBRANCH  44  46
ENDBRANCH  34  44
ENDBRANCH  30  32
ENDBRANCH  26  28
ENDBRANCH  25  26
ENDBRANCH   1  25
TORSDOF 14
