REMARK VINA RESULT:    -6.665      1.395      1.922
REMARK INTER + INTRA:         -12.576
REMARK INTER:                 -11.619
REMARK INTRA:                  -0.957
REMARK UNBOUND:                -1.624
REMARK  Name = lig_assembled_3.pdb
REMARK  11 active torsions:
REMARK  status: ('A' for Active; 'I' for Inactive)
REMARK    1  A    between atoms: _2  and  _8
REMARK    2  A    between atoms: _5  and  _6
REMARK    3  A    between atoms: _5  and  _13
REMARK    4  A    between atoms: _13  and  _15
REMARK    5  A    between atoms: _14  and  _19
REMARK    6  A    between atoms: _15  and  _18
REMARK    7  A    between atoms: _23  and  _33
REMARK    8  A    between atoms: _25  and  _26
REMARK    9  A    between atoms: _27  and  _29
REMARK   10  A    between atoms: _29  and  _31
REMARK   11  A    between atoms: _31  and  _33
REMARK                            x       y       z     vdW  Elec       q    Type
REMARK                         _______ _______ _______ _____ _____    ______ ____
ROOT
ATOM      1  C   UNL     1      28.825  15.036   0.243  0.00  0.00    +0.152 C 
ENDROOT
BRANCH   1   3
ATOM      2  C   UNL     1      27.916  17.192  -1.160  0.00  0.00    +0.400 C 
ATOM      3  N   UNL     1      28.444  16.379  -0.185  0.00  0.00    -0.278 N 
ATOM      4  H   UNL     1      28.655  17.057   0.615  0.00  0.00    +0.152 HD
ATOM      5  O   UNL     1      27.649  18.354  -0.864  0.00  0.00    -0.226 OA
BRANCH   2   6
ATOM      6  O   UNL     1      27.777  16.650  -2.325  0.00  0.00    -0.450 OA
BRANCH   6   7
ATOM      7  C   UNL     1      27.219  16.951  -3.583  0.00  0.00    +0.240 C 
BRANCH   7   8
ATOM      8  C   UNL     1      25.683  16.999  -3.687  0.00  0.00    +0.100 C 
BRANCH   8  10
ATOM      9  N   UNL     1      25.655  14.536  -3.457  0.00  0.00    -0.134 NA
ATOM     10  C   UNL     1      25.096  15.747  -3.172  0.00  0.00    +0.086 A 
ATOM     11  C   UNL     1      23.990  15.557  -2.378  0.00  0.00    +0.139 A 
ATOM     12  N   UNL     1      23.925  14.196  -2.177  0.00  0.00    -0.220 N 
ATOM     13  N   UNL     1      24.936  13.598  -2.855  0.00  0.00    -0.061 NA
BRANCH  12  14
ATOM     14  C   UNL     1      23.003  13.457  -1.391  0.00  0.00    +0.067 A 
ATOM     15  C   UNL     1      21.639  13.782  -1.385  0.00  0.00    +0.028 A 
ATOM     16  C   UNL     1      20.752  13.060  -0.581  0.00  0.00    +0.002 A 
ATOM     17  C   UNL     1      21.217  12.015   0.214  0.00  0.00    +0.000 A 
ATOM     18  C   UNL     1      22.570  11.681   0.205  0.00  0.00    +0.002 A 
ATOM     19  C   UNL     1      23.464  12.396  -0.595  0.00  0.00    +0.028 A 
ENDBRANCH  12  14
ENDBRANCH   8  10
ENDBRANCH   7   8
ENDBRANCH   6   7
ENDBRANCH   2   6
ENDBRANCH   1   3
BRANCH   1  20
ATOM     20  C   UNL     1      30.253  14.881   0.806  0.00  0.00    +0.193 C 
ATOM     21  O   UNL     1      30.831  16.204   0.842  0.00  0.00    -0.219 OA
BRANCH  20  22
ATOM     22  C   UNL     1      30.398  14.357   2.252  0.00  0.00    +0.212 C 
ATOM     23  O   UNL     1      29.334  13.444   2.565  0.00  0.00    -0.218 OA
BRANCH  22  24
ATOM     24  C   UNL     1      31.775  13.638   2.520  0.00  0.00    +0.171 C 
ATOM     25  O   UNL     1      32.792  14.542   2.941  0.00  0.00    -0.343 OA
ATOM     26  C   UNL     1      34.150  14.222   3.012  0.00  0.00    +0.220 C 
ATOM     27  C   UNL     1      34.655  13.587   1.704  0.00  0.00    +0.076 C 
ATOM     28  C   UNL     1      33.728  12.404   1.377  0.00  0.00    +0.177 C 
ATOM     29  O   UNL     1      34.176  11.755   0.195  0.00  0.00    -0.221 OA
ATOM     30  C   UNL     1      32.256  12.901   1.228  0.00  0.00    +0.155 C 
BRANCH  30  31
ATOM     31  N   UNL     1      31.374  11.781   0.910  0.00  0.00    -0.202 NA
ATOM     32  C   UNL     1      30.821  11.422  -0.277  0.00  0.00    +0.242 C 
ATOM     33  C   UNL     1      30.189  10.059  -0.389  0.00  0.00    +0.096 C 
ATOM     34  O   UNL     1      30.850  12.207  -1.223  0.00  0.00    -0.273 OA
ENDBRANCH  30  31
BRANCH  26  35
ATOM     35  C   UNL     1      34.536  13.316   4.304  0.00  0.00    +0.391 C 
ATOM     36  O   UNL     1      33.404  13.250   5.032  0.00  0.00    -0.243 OA
ATOM     37  O   UNL     1      35.709  12.740   4.015  0.00  0.00    -0.243 OA
ENDBRANCH  26  35
ENDBRANCH  22  24
ENDBRANCH  20  22
ENDBRANCH   1  20
TORSDOF 11
