REMARK VINA RESULT:    -5.850      1.976      3.434
REMARK INTER + INTRA:         -12.590
REMARK INTER:                 -10.970
REMARK INTRA:                  -1.620
REMARK UNBOUND:                -1.953
REMARK  Name = lig_assembled_13.pdb
REMARK  15 active torsions:
REMARK  status: ('A' for Active; 'I' for Inactive)
REMARK    1  A    between atoms: _2  and  _8
REMARK    2  A    between atoms: _4  and  _10
REMARK    3  A    between atoms: _5  and  _6
REMARK    4  A    between atoms: _5  and  _13
REMARK    5  A    between atoms: _8  and  _9
REMARK    6  A    between atoms: _9  and  _11
REMARK    7  A    between atoms: _10  and  _11
REMARK    8  A    between atoms: _13  and  _15
REMARK    9  A    between atoms: _14  and  _19
REMARK   10  A    between atoms: _15  and  _18
REMARK   11  A    between atoms: _23  and  _33
REMARK   12  A    between atoms: _25  and  _26
REMARK   13  A    between atoms: _27  and  _29
REMARK   14  A    between atoms: _29  and  _31
REMARK   15  A    between atoms: _31  and  _33
REMARK                            x       y       z     vdW  Elec       q    Type
REMARK                         _______ _______ _______ _____ _____    ______ ____
ROOT
ATOM      1  C   UNL     1      29.169  15.182   0.184  0.00  0.00    +0.152 C 
ENDROOT
BRANCH   1   3
ATOM      2  C   UNL     1      27.995  17.461  -0.751  0.00  0.00    +0.400 C 
ATOM      3  N   UNL     1      28.574  16.510   0.056  0.00  0.00    -0.278 N 
ATOM      4  H   UNL     1      28.565  16.966   1.022  0.00  0.00    +0.152 HD
ATOM      5  O   UNL     1      27.476  18.437  -0.215  0.00  0.00    -0.226 OA
BRANCH   2   6
ATOM      6  O   UNL     1      28.084  17.246  -2.022  0.00  0.00    -0.450 OA
BRANCH   6   7
ATOM      7  C   UNL     1      27.358  16.615  -3.052  0.00  0.00    +0.240 C 
BRANCH   7   8
ATOM      8  C   UNL     1      25.836  16.849  -3.096  0.00  0.00    +0.100 C 
BRANCH   8  10
ATOM      9  N   UNL     1      25.790  14.394  -2.789  0.00  0.00    -0.134 NA
ATOM     10  C   UNL     1      25.115  15.579  -2.906  0.00  0.00    +0.086 A 
ATOM     11  C   UNL     1      23.765  15.337  -2.827  0.00  0.00    +0.134 A 
ATOM     12  N   UNL     1      23.679  13.979  -2.728  0.00  0.00    -0.241 N 
ATOM     13  N   UNL     1      24.898  13.420  -2.658  0.00  0.00    -0.065 NA
BRANCH  12  14
ATOM     14  C   UNL     1      22.494  13.162  -2.595  0.00  0.00    +0.265 C 
BRANCH  14  15
ATOM     15  C   UNL     1      21.759  13.441  -1.314  0.00  0.00    +0.329 C 
ATOM     16  O   UNL     1      20.856  14.248  -1.154  0.00  0.00    -0.249 OA
BRANCH  15  17
ATOM     17  O   UNL     1      22.334  12.716  -0.307  0.00  0.00    -0.464 OA
BRANCH  17  18
ATOM     18  C   UNL     1      21.530  11.638   0.196  0.00  0.00    +0.229 C 
ATOM     19  C   UNL     1      21.557  11.708   1.713  0.00  0.00    +0.048 C 
ENDBRANCH  17  18
ENDBRANCH  15  17
ENDBRANCH  14  15
ENDBRANCH  12  14
ENDBRANCH   8  10
ENDBRANCH   7   8
ENDBRANCH   6   7
ENDBRANCH   2   6
ENDBRANCH   1   3
BRANCH   1  20
ATOM     20  C   UNL     1      30.710  15.126   0.195  0.00  0.00    +0.193 C 
ATOM     21  O   UNL     1      31.140  15.747   1.426  0.00  0.00    -0.219 OA
BRANCH  20  22
ATOM     22  C   UNL     1      31.375  13.732   0.214  0.00  0.00    +0.212 C 
ATOM     23  O   UNL     1      32.309  13.605  -0.871  0.00  0.00    -0.218 OA
BRANCH  22  24
ATOM     24  C   UNL     1      32.125  13.416   1.564  0.00  0.00    +0.171 C 
ATOM     25  O   UNL     1      33.446  12.927   1.355  0.00  0.00    -0.343 OA
ATOM     26  C   UNL     1      34.238  12.346   2.349  0.00  0.00    +0.220 C 
ATOM     27  C   UNL     1      33.484  11.237   3.103  0.00  0.00    +0.076 C 
ATOM     28  C   UNL     1      32.157  11.835   3.600  0.00  0.00    +0.177 C 
ATOM     29  O   UNL     1      31.437  10.860   4.340  0.00  0.00    -0.221 OA
ATOM     30  C   UNL     1      31.320  12.363   2.393  0.00  0.00    +0.155 C 
BRANCH  30  31
ATOM     31  N   UNL     1      30.056  12.925   2.860  0.00  0.00    -0.202 NA
ATOM     32  C   UNL     1      28.785  12.496   2.650  0.00  0.00    +0.242 C 
ATOM     33  C   UNL     1      27.683  13.088   3.489  0.00  0.00    +0.096 C 
ATOM     34  O   UNL     1      28.566  11.643   1.793  0.00  0.00    -0.273 OA
ENDBRANCH  30  31
BRANCH  26  35
ATOM     35  C   UNL     1      34.889  13.428   3.372  0.00  0.00    +0.391 C 
ATOM     36  O   UNL     1      35.564  12.690   4.274  0.00  0.00    -0.243 OA
ATOM     37  O   UNL     1      34.768  14.620   2.775  0.00  0.00    -0.243 OA
ENDBRANCH  26  35
ENDBRANCH  22  24
ENDBRANCH  20  22
ENDBRANCH   1  20
TORSDOF 14
