REMARK VINA RESULT:    -6.854      1.571      1.999
REMARK INTER + INTRA:         -14.590
REMARK INTER:                 -12.894
REMARK INTRA:                  -1.696
REMARK UNBOUND:                -2.327
REMARK  Name = lig_assembled_68.pdb
REMARK  14 active torsions:
REMARK  status: ('A' for Active; 'I' for Inactive)
REMARK    1  A    between atoms: _2  and  _8
REMARK    2  A    between atoms: _5  and  _6
REMARK    3  A    between atoms: _5  and  _16
REMARK    4  A    between atoms: _8  and  _9
REMARK    5  A    between atoms: _9  and  _10
REMARK    6  A    between atoms: _9  and  _15
REMARK    7  A    between atoms: _16  and  _18
REMARK    8  A    between atoms: _17  and  _22
REMARK    9  A    between atoms: _18  and  _21
REMARK   10  A    between atoms: _26  and  _36
REMARK   11  A    between atoms: _28  and  _29
REMARK   12  A    between atoms: _30  and  _32
REMARK   13  A    between atoms: _32  and  _34
REMARK   14  A    between atoms: _34  and  _36
REMARK                            x       y       z     vdW  Elec       q    Type
REMARK                         _______ _______ _______ _____ _____    ______ ____
ROOT
ATOM      1  C   UNL     1      29.211  17.152  -0.310  0.00  0.00    +0.400 C 
ATOM      2  N   UNL     1      29.281  15.926   0.310  0.00  0.00    -0.278 N 
ATOM      3  H   UNL     1      29.972  16.092   1.108  0.00  0.00    +0.152 HD
ATOM      4  O   UNL     1      29.745  18.111   0.242  0.00  0.00    -0.226 OA
ENDROOT
BRANCH   2   5
ATOM      5  C   UNL     1      28.834  14.537   0.373  0.00  0.00    +0.152 C 
BRANCH   5   6
ATOM      6  C   UNL     1      29.548  13.550  -0.573  0.00  0.00    +0.193 C 
ATOM      7  O   UNL     1      29.142  13.895  -1.916  0.00  0.00    -0.219 OA
BRANCH   6   8
ATOM      8  C   UNL     1      31.091  13.588  -0.614  0.00  0.00    +0.212 C 
ATOM      9  O   UNL     1      31.551  14.901  -0.976  0.00  0.00    -0.218 OA
BRANCH   8  10
ATOM     10  C   UNL     1      31.763  13.178   0.751  0.00  0.00    +0.171 C 
ATOM     11  O   UNL     1      31.384  14.032   1.826  0.00  0.00    -0.343 OA
ATOM     12  C   UNL     1      32.008  14.050   3.076  0.00  0.00    +0.220 C 
ATOM     13  C   UNL     1      33.536  14.173   2.949  0.00  0.00    +0.076 C 
ATOM     14  C   UNL     1      34.014  13.059   2.003  0.00  0.00    +0.177 C 
ATOM     15  O   UNL     1      35.428  13.103   1.881  0.00  0.00    -0.221 OA
ATOM     16  C   UNL     1      33.320  13.201   0.612  0.00  0.00    +0.155 C 
BRANCH  16  17
ATOM     17  N   UNL     1      33.776  12.147  -0.292  0.00  0.00    -0.202 NA
ATOM     18  C   UNL     1      34.444  12.244  -1.469  0.00  0.00    +0.242 C 
ATOM     19  C   UNL     1      35.052  10.994  -2.051  0.00  0.00    +0.096 C 
ATOM     20  O   UNL     1      34.538  13.335  -2.027  0.00  0.00    -0.273 OA
ENDBRANCH  16  17
BRANCH  12  21
ATOM     21  C   UNL     1      31.587  12.802   4.027  0.00  0.00    +0.391 C 
ATOM     22  O   UNL     1      30.369  12.427   3.591  0.00  0.00    -0.243 OA
ATOM     23  O   UNL     1      32.704  12.430   4.666  0.00  0.00    -0.243 OA
ENDBRANCH  12  21
ENDBRANCH   8  10
ENDBRANCH   6   8
ENDBRANCH   5   6
ENDBRANCH   2   5
BRANCH   1  24
ATOM     24  O   UNL     1      28.604  17.169  -1.451  0.00  0.00    -0.450 OA
BRANCH  24  25
ATOM     25  C   UNL     1      27.293  17.242  -1.962  0.00  0.00    +0.240 C 
BRANCH  25  26
ATOM     26  C   UNL     1      27.131  17.326  -3.492  0.00  0.00    +0.100 C 
BRANCH  26  28
ATOM     27  N   UNL     1      26.204  15.708  -5.125  0.00  0.00    -0.134 NA
ATOM     28  C   UNL     1      26.078  16.405  -3.951  0.00  0.00    +0.086 A 
ATOM     29  C   UNL     1      24.872  16.088  -3.370  0.00  0.00    +0.133 A 
ATOM     30  N   UNL     1      24.315  15.190  -4.232  0.00  0.00    -0.249 N 
ATOM     31  N   UNL     1      25.113  14.972  -5.292  0.00  0.00    -0.065 NA
BRANCH  30  32
ATOM     32  C   UNL     1      23.001  14.588  -4.159  0.00  0.00    +0.181 C 
BRANCH  32  33
ATOM     33  C   UNL     1      23.046  13.167  -3.581  0.00  0.00    +0.166 C 
BRANCH  33  34
ATOM     34  C   UNL     1      22.307  13.003  -2.261  0.00  0.00    -0.017 A 
ATOM     35  C   UNL     1      21.202  13.831  -1.995  0.00  0.00    +0.006 A 
ATOM     36  C   UNL     1      20.479  13.697  -0.807  0.00  0.00    +0.000 A 
ATOM     37  C   UNL     1      20.844  12.733   0.127  0.00  0.00    +0.000 A 
ATOM     38  C   UNL     1      21.922  11.893  -0.129  0.00  0.00    +0.000 A 
ATOM     39  C   UNL     1      22.647  12.023  -1.317  0.00  0.00    +0.006 A 
ENDBRANCH  33  34
BRANCH  33  40
ATOM     40  O   UNL     1      24.413  12.791  -3.372  0.00  0.00    -0.385 OA
ATOM     41  H   UNL     1      24.523  11.872  -3.669  0.00  0.00    +0.210 HD
ENDBRANCH  33  40
ENDBRANCH  32  33
ENDBRANCH  30  32
ENDBRANCH  26  28
ENDBRANCH  25  26
ENDBRANCH  24  25
ENDBRANCH   1  24
TORSDOF 14
