REMARK VINA RESULT:    -6.708      2.881      4.760
REMARK INTER + INTRA:         -13.928
REMARK INTER:                 -11.257
REMARK INTRA:                  -2.671
REMARK UNBOUND:                -2.513
REMARK  Name = lig_assembled_28.pdb
REMARK  12 active torsions:
REMARK  status: ('A' for Active; 'I' for Inactive)
REMARK    1  A    between atoms: _2  and  _8
REMARK    2  A    between atoms: _5  and  _6
REMARK    3  A    between atoms: _5  and  _17
REMARK    4  A    between atoms: _8  and  _9
REMARK    5  A    between atoms: _17  and  _19
REMARK    6  A    between atoms: _18  and  _23
REMARK    7  A    between atoms: _19  and  _22
REMARK    8  A    between atoms: _27  and  _37
REMARK    9  A    between atoms: _29  and  _30
REMARK   10  A    between atoms: _31  and  _33
REMARK   11  A    between atoms: _33  and  _35
REMARK   12  A    between atoms: _35  and  _37
REMARK                            x       y       z     vdW  Elec       q    Type
REMARK                         _______ _______ _______ _____ _____    ______ ____
ROOT
ATOM      1  C   UNL     1      28.272  17.669  -0.494  0.00  0.00    +0.400 C 
ATOM      2  N   UNL     1      29.428  17.317   0.162  0.00  0.00    -0.278 N 
ATOM      3  H   UNL     1      29.435  17.962   1.014  0.00  0.00    +0.152 HD
ATOM      4  O   UNL     1      27.489  18.424   0.077  0.00  0.00    -0.226 OA
ENDROOT
BRANCH   2   5
ATOM      5  C   UNL     1      30.615  16.468   0.222  0.00  0.00    +0.152 C 
BRANCH   5   6
ATOM      6  C   UNL     1      30.405  14.981  -0.129  0.00  0.00    +0.193 C 
ATOM      7  O   UNL     1      31.705  14.353  -0.074  0.00  0.00    -0.219 OA
BRANCH   6   8
ATOM      8  C   UNL     1      29.529  14.138   0.823  0.00  0.00    +0.212 C 
ATOM      9  O   UNL     1      28.286  14.809   1.088  0.00  0.00    -0.218 OA
BRANCH   8  10
ATOM     10  C   UNL     1      29.215  12.695   0.270  0.00  0.00    +0.171 C 
ATOM     11  O   UNL     1      28.859  12.703  -1.108  0.00  0.00    -0.343 OA
ATOM     12  C   UNL     1      28.303  11.614  -1.785  0.00  0.00    +0.220 C 
ATOM     13  C   UNL     1      27.092  11.034  -1.033  0.00  0.00    +0.076 C 
ATOM     14  C   UNL     1      27.540  10.740   0.409  0.00  0.00    +0.177 C 
ATOM     15  O   UNL     1      26.467  10.163   1.138  0.00  0.00    -0.221 OA
ATOM     16  C   UNL     1      28.050  12.048   1.090  0.00  0.00    +0.155 C 
BRANCH  16  17
ATOM     17  N   UNL     1      28.470  11.774   2.462  0.00  0.00    -0.202 NA
ATOM     18  C   UNL     1      27.962  12.235   3.633  0.00  0.00    +0.242 C 
ATOM     19  C   UNL     1      28.393  11.566   4.912  0.00  0.00    +0.096 C 
ATOM     20  O   UNL     1      27.170  13.175   3.624  0.00  0.00    -0.273 OA
ENDBRANCH  16  17
BRANCH  12  21
ATOM     21  C   UNL     1      29.385  10.461  -2.155  0.00  0.00    +0.391 C 
ATOM     22  O   UNL     1      28.646   9.377  -2.462  0.00  0.00    -0.243 OA
ATOM     23  O   UNL     1      30.558  11.088  -2.307  0.00  0.00    -0.243 OA
ENDBRANCH  12  21
ENDBRANCH   8  10
ENDBRANCH   6   8
ENDBRANCH   5   6
ENDBRANCH   2   5
BRANCH   1  24
ATOM     24  O   UNL     1      28.134  17.186  -1.685  0.00  0.00    -0.450 OA
BRANCH  24  25
ATOM     25  C   UNL     1      27.140  16.597  -2.490  0.00  0.00    +0.240 C 
BRANCH  25  26
ATOM     26  C   UNL     1      26.910  15.081  -2.342  0.00  0.00    +0.100 C 
BRANCH  26  28
ATOM     27  N   UNL     1      24.811  15.396  -3.621  0.00  0.00    -0.134 NA
ATOM     28  C   UNL     1      25.506  14.743  -2.640  0.00  0.00    +0.086 A 
ATOM     29  C   UNL     1      24.696  13.782  -2.079  0.00  0.00    +0.134 A 
ATOM     30  N   UNL     1      23.555  13.830  -2.827  0.00  0.00    -0.247 N 
ATOM     31  N   UNL     1      23.611  14.837  -3.720  0.00  0.00    -0.065 NA
BRANCH  30  32
ATOM     32  C   UNL     1      22.403  12.938  -2.850  0.00  0.00    +0.180 C 
BRANCH  32  33
ATOM     33  C   UNL     1      22.138  12.255  -1.528  0.00  0.00    -0.022 A 
ATOM     34  C   UNL     1      22.802  11.059  -1.206  0.00  0.00    +0.055 A 
ATOM     35  C   UNL     1      22.616  10.535   0.056  0.00  0.00    +0.167 A 
ATOM     36  O   UNL     1      23.223   9.422   0.549  0.00  0.00    -0.453 OA
ATOM     37  C   UNL     1      22.755   9.445   1.915  0.00  0.00    +0.466 C 
ATOM     38  O   UNL     1      21.771  10.472   2.165  0.00  0.00    -0.453 OA
ATOM     39  C   UNL     1      21.789  11.131   0.976  0.00  0.00    +0.166 A 
ATOM     40  C   UNL     1      21.092  12.284   0.683  0.00  0.00    +0.050 A 
ATOM     41  C   UNL     1      21.277  12.854  -0.580  0.00  0.00    +0.009 A 
ENDBRANCH  32  33
ENDBRANCH  30  32
ENDBRANCH  26  28
ENDBRANCH  25  26
ENDBRANCH  24  25
ENDBRANCH   1  24
TORSDOF 12
