REMARK VINA RESULT:    -7.762      1.490      2.128
REMARK INTER + INTRA:         -14.615
REMARK INTER:                 -12.501
REMARK INTRA:                  -2.114
REMARK UNBOUND:                -1.407
REMARK  Name = lig_assembled_82.pdb
REMARK  14 active torsions:
REMARK  status: ('A' for Active; 'I' for Inactive)
REMARK    1  A    between atoms: _2  and  _8
REMARK    2  A    between atoms: _4  and  _15
REMARK    3  A    between atoms: _5  and  _6
REMARK    4  A    between atoms: _5  and  _17
REMARK    5  A    between atoms: _8  and  _9
REMARK    6  A    between atoms: _15  and  _16
REMARK    7  A    between atoms: _17  and  _19
REMARK    8  A    between atoms: _18  and  _23
REMARK    9  A    between atoms: _19  and  _22
REMARK   10  A    between atoms: _27  and  _37
REMARK   11  A    between atoms: _29  and  _30
REMARK   12  A    between atoms: _31  and  _33
REMARK   13  A    between atoms: _33  and  _35
REMARK   14  A    between atoms: _35  and  _37
REMARK                            x       y       z     vdW  Elec       q    Type
REMARK                         _______ _______ _______ _____ _____    ______ ____
ROOT
ATOM      1  C   UNL     1      28.182  17.088  -0.904  0.00  0.00    +0.400 C 
ATOM      2  N   UNL     1      28.378  15.784  -0.514  0.00  0.00    -0.278 N 
ATOM      3  H   UNL     1      28.774  15.877   0.474  0.00  0.00    +0.152 HD
ATOM      4  O   UNL     1      28.307  17.970  -0.058  0.00  0.00    -0.226 OA
ENDROOT
BRANCH   2   5
ATOM      5  C   UNL     1      28.276  14.362  -0.832  0.00  0.00    +0.152 C 
BRANCH   5   6
ATOM      6  C   UNL     1      28.247  13.397   0.371  0.00  0.00    +0.193 C 
ATOM      7  O   UNL     1      29.083  12.271   0.020  0.00  0.00    -0.219 OA
BRANCH   6   8
ATOM      8  C   UNL     1      28.828  13.905   1.709  0.00  0.00    +0.212 C 
ATOM      9  O   UNL     1      27.786  14.040   2.689  0.00  0.00    -0.218 OA
BRANCH   8  10
ATOM     10  C   UNL     1      29.954  12.971   2.296  0.00  0.00    +0.171 C 
ATOM     11  O   UNL     1      29.681  12.556   3.631  0.00  0.00    -0.343 OA
ATOM     12  C   UNL     1      30.610  11.935   4.468  0.00  0.00    +0.220 C 
ATOM     13  C   UNL     1      31.937  12.711   4.524  0.00  0.00    +0.076 C 
ATOM     14  C   UNL     1      32.410  12.922   3.076  0.00  0.00    +0.177 C 
ATOM     15  O   UNL     1      33.657  13.603   3.072  0.00  0.00    -0.221 OA
ATOM     16  C   UNL     1      31.332  13.709   2.268  0.00  0.00    +0.155 C 
BRANCH  16  17
ATOM     17  N   UNL     1      31.782  13.918   0.893  0.00  0.00    -0.202 NA
ATOM     18  C   UNL     1      31.840  15.061   0.164  0.00  0.00    +0.242 C 
ATOM     19  C   UNL     1      32.619  15.047  -1.126  0.00  0.00    +0.096 C 
ATOM     20  O   UNL     1      31.264  16.069   0.567  0.00  0.00    -0.273 OA
ENDBRANCH  16  17
BRANCH  12  21
ATOM     21  C   UNL     1      30.850  10.367   4.118  0.00  0.00    +0.391 C 
ATOM     22  O   UNL     1      31.978  10.033   4.773  0.00  0.00    -0.243 OA
ATOM     23  O   UNL     1      29.706   9.930   3.576  0.00  0.00    -0.243 OA
ENDBRANCH  12  21
ENDBRANCH   8  10
ENDBRANCH   6   8
ENDBRANCH   5   6
ENDBRANCH   2   5
BRANCH   1  24
ATOM     24  O   UNL     1      27.910  17.264  -2.155  0.00  0.00    -0.450 OA
BRANCH  24  25
ATOM     25  C   UNL     1      26.790  17.328  -3.006  0.00  0.00    +0.240 C 
BRANCH  25  26
ATOM     26  C   UNL     1      26.747  16.356  -4.201  0.00  0.00    +0.100 C 
BRANCH  26  28
ATOM     27  N   UNL     1      25.100  14.928  -5.370  0.00  0.00    -0.134 NA
ATOM     28  C   UNL     1      25.459  15.660  -4.263  0.00  0.00    +0.086 A 
ATOM     29  C   UNL     1      24.428  15.596  -3.343  0.00  0.00    +0.134 A 
ATOM     30  N   UNL     1      23.434  14.927  -4.001  0.00  0.00    -0.247 N 
ATOM     31  N   UNL     1      23.878  14.453  -5.181  0.00  0.00    -0.065 NA
BRANCH  30  32
ATOM     32  C   UNL     1      22.027  14.777  -3.620  0.00  0.00    +0.176 C 
BRANCH  32  33
ATOM     33  C   UNL     1      21.838  13.824  -2.466  0.00  0.00    -0.049 C 
ATOM     34  C   UNL     1      22.279  12.407  -2.654  0.00  0.00    +0.023 C 
ATOM     35  C   UNL     1      22.912  11.639  -1.407  0.00  0.00    -0.025 C 
ATOM     36  C   UNL     1      23.770  12.143  -0.240  0.00  0.00    +0.012 C 
ATOM     37  C   UNL     1      21.380  11.575  -0.950  0.00  0.00    -0.000 C 
ATOM     38  C   UNL     1      20.812  12.916  -0.390  0.00  0.00    +0.031 C 
ATOM     39  C   UNL     1      23.712  10.479  -2.053  0.00  0.00    +0.012 C 
ATOM     40  C   UNL     1      21.039  11.445  -2.458  0.00  0.00    +0.012 C 
ATOM     41  C   UNL     1      21.147  14.060  -1.334  0.00  0.00    -0.025 C 
ENDBRANCH  32  33
ENDBRANCH  30  32
ENDBRANCH  26  28
ENDBRANCH  25  26
ENDBRANCH  24  25
ENDBRANCH   1  24
TORSDOF 12
