REMARK VINA RESULT:    -5.921      2.927     10.135
REMARK INTER + INTRA:         -12.310
REMARK INTER:                 -10.594
REMARK INTRA:                  -1.716
REMARK UNBOUND:                -1.716
REMARK  Name = lig_assembled_32.pdb
REMARK  14 active torsions:
REMARK  status: ('A' for Active; 'I' for Inactive)
REMARK    1  A    between atoms: _2  and  _8
REMARK    2  A    between atoms: _4  and  _9
REMARK    3  A    between atoms: _4  and  _10
REMARK    4  A    between atoms: _5  and  _6
REMARK    5  A    between atoms: _5  and  _12
REMARK    6  A    between atoms: _8  and  _9
REMARK    7  A    between atoms: _12  and  _14
REMARK    8  A    between atoms: _13  and  _18
REMARK    9  A    between atoms: _14  and  _17
REMARK   10  A    between atoms: _22  and  _32
REMARK   11  A    between atoms: _24  and  _25
REMARK   12  A    between atoms: _26  and  _28
REMARK   13  A    between atoms: _28  and  _30
REMARK   14  A    between atoms: _30  and  _32
REMARK                            x       y       z     vdW  Elec       q    Type
REMARK                         _______ _______ _______ _____ _____    ______ ____
ROOT
ATOM      1  C   UNL     1      27.145  17.153  -3.495  0.00  0.00    +0.152 C 
ENDROOT
BRANCH   1   3
ATOM      2  C   UNL     1      28.010  17.784  -0.985  0.00  0.00    +0.400 C 
ATOM      3  N   UNL     1      27.234  17.585  -2.102  0.00  0.00    -0.278 N 
ATOM      4  H   UNL     1      26.265  17.910  -1.791  0.00  0.00    +0.152 HD
ATOM      5  O   UNL     1      27.521  18.402  -0.042  0.00  0.00    -0.226 OA
BRANCH   2   6
ATOM      6  O   UNL     1      29.192  17.262  -1.024  0.00  0.00    -0.450 OA
BRANCH   6   7
ATOM      7  C   UNL     1      29.848  16.073  -0.652  0.00  0.00    +0.240 C 
BRANCH   7   8
ATOM      8  C   UNL     1      29.568  15.517   0.757  0.00  0.00    +0.100 C 
BRANCH   8  10
ATOM      9  N   UNL     1      31.207  13.759   0.171  0.00  0.00    -0.134 NA
ATOM     10  C   UNL     1      30.589  14.519   1.127  0.00  0.00    +0.086 A 
ATOM     11  C   UNL     1      31.081  14.171   2.366  0.00  0.00    +0.133 A 
ATOM     12  N   UNL     1      31.982  13.189   2.095  0.00  0.00    -0.251 N 
ATOM     13  N   UNL     1      32.059  12.943   0.776  0.00  0.00    -0.065 NA
BRANCH  12  14
ATOM     14  C   UNL     1      32.806  12.446   3.024  0.00  0.00    +0.156 C 
BRANCH  14  15
ATOM     15  C   UNL     1      34.284  12.771   2.860  0.00  0.00    +0.143 C 
BRANCH  15  16
ATOM     16  C   UNL     1      34.611  14.059   3.560  0.00  0.00    +0.306 C 
ATOM     17  O   UNL     1      34.429  14.272   4.748  0.00  0.00    -0.251 OA
BRANCH  16  18
ATOM     18  O   UNL     1      35.127  14.988   2.726  0.00  0.00    -0.481 OA
ATOM     19  H   UNL     1      34.551  15.764   2.581  0.00  0.00    +0.295 HD
ENDBRANCH  16  18
ENDBRANCH  15  16
ENDBRANCH  14  15
ENDBRANCH  12  14
ENDBRANCH   8  10
ENDBRANCH   7   8
ENDBRANCH   6   7
ENDBRANCH   2   6
ENDBRANCH   1   3
BRANCH   1  20
ATOM     20  C   UNL     1      26.006  16.169  -3.830  0.00  0.00    +0.193 C 
ATOM     21  O   UNL     1      26.039  15.967  -5.260  0.00  0.00    -0.219 OA
BRANCH  20  22
ATOM     22  C   UNL     1      26.094  14.745  -3.238  0.00  0.00    +0.212 C 
ATOM     23  O   UNL     1      26.813  14.762  -1.993  0.00  0.00    -0.218 OA
BRANCH  22  24
ATOM     24  C   UNL     1      24.685  14.081  -2.996  0.00  0.00    +0.171 C 
ATOM     25  O   UNL     1      23.958  14.706  -1.944  0.00  0.00    -0.343 OA
ATOM     26  C   UNL     1      22.802  14.178  -1.363  0.00  0.00    +0.220 C 
ATOM     27  C   UNL     1      22.997  12.713  -0.937  0.00  0.00    +0.076 C 
ATOM     28  C   UNL     1      23.516  11.940  -2.161  0.00  0.00    +0.177 C 
ATOM     29  O   UNL     1      23.675  10.568  -1.833  0.00  0.00    -0.221 OA
ATOM     30  C   UNL     1      24.857  12.563  -2.660  0.00  0.00    +0.155 C 
BRANCH  30  31
ATOM     31  N   UNL     1      25.357  11.828  -3.819  0.00  0.00    -0.202 NA
ATOM     32  C   UNL     1      26.559  11.228  -4.014  0.00  0.00    +0.242 C 
ATOM     33  C   UNL     1      26.708  10.287  -5.181  0.00  0.00    +0.096 C 
ATOM     34  O   UNL     1      27.486  11.461  -3.241  0.00  0.00    -0.273 OA
ENDBRANCH  30  31
BRANCH  26  35
ATOM     35  C   UNL     1      21.474  14.363  -2.279  0.00  0.00    +0.391 C 
ATOM     36  O   UNL     1      20.565  13.523  -1.747  0.00  0.00    -0.243 OA
ATOM     37  O   UNL     1      21.676  15.469  -3.006  0.00  0.00    -0.243 OA
ENDBRANCH  26  35
ENDBRANCH  22  24
ENDBRANCH  20  22
ENDBRANCH   1  20
TORSDOF 14
