REMARK VINA RESULT:    -7.369      1.648      3.089
REMARK INTER + INTRA:         -13.965
REMARK INTER:                 -11.750
REMARK INTRA:                  -2.215
REMARK UNBOUND:                -1.427
REMARK  Name = lig_assembled_6.pdb
REMARK  12 active torsions:
REMARK  status: ('A' for Active; 'I' for Inactive)
REMARK    1  A    between atoms: _2  and  _9
REMARK    2  A    between atoms: _3  and  _12
REMARK    3  A    between atoms: _6  and  _7
REMARK    4  A    between atoms: _6  and  _16
REMARK    5  A    between atoms: _16  and  _18
REMARK    6  A    between atoms: _17  and  _22
REMARK    7  A    between atoms: _18  and  _21
REMARK    8  A    between atoms: _26  and  _36
REMARK    9  A    between atoms: _28  and  _29
REMARK   10  A    between atoms: _30  and  _32
REMARK   11  A    between atoms: _32  and  _34
REMARK   12  A    between atoms: _34  and  _36
REMARK                            x       y       z     vdW  Elec       q    Type
REMARK                         _______ _______ _______ _____ _____    ______ ____
ROOT
ATOM      1  C   UNL     1      27.904  17.389  -0.763  0.00  0.00    +0.400 C 
ATOM      2  N   UNL     1      28.548  16.443  -0.001  0.00  0.00    -0.278 N 
ATOM      3  H   UNL     1      28.696  16.938   0.935  0.00  0.00    +0.152 HD
ATOM      4  O   UNL     1      27.510  18.411  -0.207  0.00  0.00    -0.226 OA
ENDROOT
BRANCH   2   5
ATOM      5  C   UNL     1      29.093  15.092   0.106  0.00  0.00    +0.152 C 
BRANCH   5   6
ATOM      6  C   UNL     1      30.630  14.984   0.174  0.00  0.00    +0.193 C 
ATOM      7  O   UNL     1      31.046  15.708   1.353  0.00  0.00    -0.219 OA
BRANCH   6   8
ATOM      8  C   UNL     1      31.241  13.576   0.351  0.00  0.00    +0.212 C 
ATOM      9  O   UNL     1      32.195  13.308  -0.689  0.00  0.00    -0.218 OA
BRANCH   8  10
ATOM     10  C   UNL     1      31.945  13.372   1.747  0.00  0.00    +0.171 C 
ATOM     11  O   UNL     1      33.284  12.904   1.621  0.00  0.00    -0.343 OA
ATOM     12  C   UNL     1      34.050  12.412   2.681  0.00  0.00    +0.220 C 
ATOM     13  C   UNL     1      33.293  11.338   3.481  0.00  0.00    +0.076 C 
ATOM     14  C   UNL     1      31.934  11.933   3.885  0.00  0.00    +0.177 C 
ATOM     15  O   UNL     1      31.209  10.992   4.664  0.00  0.00    -0.221 OA
ATOM     16  C   UNL     1      31.133  12.356   2.615  0.00  0.00    +0.155 C 
BRANCH  16  17
ATOM     17  N   UNL     1      29.839  12.916   2.995  0.00  0.00    -0.202 NA
ATOM     18  C   UNL     1      28.591  12.408   2.827  0.00  0.00    +0.242 C 
ATOM     19  C   UNL     1      27.451  13.051   3.574  0.00  0.00    +0.096 C 
ATOM     20  O   UNL     1      28.421  11.447   2.081  0.00  0.00    -0.273 OA
ENDBRANCH  16  17
BRANCH  12  21
ATOM     21  C   UNL     1      34.635  13.577   3.651  0.00  0.00    +0.391 C 
ATOM     22  O   UNL     1      34.868  12.964   4.828  0.00  0.00    -0.243 OA
ATOM     23  O   UNL     1      34.945  14.604   2.850  0.00  0.00    -0.243 OA
ENDBRANCH  12  21
ENDBRANCH   8  10
ENDBRANCH   6   8
ENDBRANCH   5   6
ENDBRANCH   2   5
BRANCH   1  24
ATOM     24  O   UNL     1      27.802  17.119  -2.023  0.00  0.00    -0.450 OA
BRANCH  24  25
ATOM     25  C   UNL     1      26.957  17.406  -3.112  0.00  0.00    +0.240 C 
BRANCH  25  26
ATOM     26  C   UNL     1      26.551  16.235  -4.026  0.00  0.00    +0.100 C 
BRANCH  26  28
ATOM     27  N   UNL     1      27.164  13.959  -3.268  0.00  0.00    -0.134 NA
ATOM     28  C   UNL     1      26.306  15.021  -3.226  0.00  0.00    +0.086 A 
ATOM     29  C   UNL     1      25.281  14.736  -2.354  0.00  0.00    +0.139 A 
ATOM     30  N   UNL     1      25.575  13.487  -1.856  0.00  0.00    -0.220 N 
ATOM     31  N   UNL     1      26.708  13.029  -2.439  0.00  0.00    -0.061 NA
BRANCH  30  32
ATOM     32  C   UNL     1      24.886  12.742  -0.862  0.00  0.00    +0.067 A 
ATOM     33  C   UNL     1      23.484  12.654  -0.876  0.00  0.00    +0.034 A 
ATOM     34  C   UNL     1      22.813  11.970   0.143  0.00  0.00    +0.086 A 
ATOM     35  C   UNL     1      23.543  11.369   1.176  0.00  0.00    +0.273 A 
ATOM     36  C   UNL     1      24.942  11.429   1.185  0.00  0.00    +0.086 A 
ATOM     37  C   UNL     1      25.610  12.113   0.165  0.00  0.00    +0.034 A 
BRANCH  35  38
ATOM     38  N   UNL     1      22.832  10.689   2.266  0.00  0.00    +0.080 N 
ATOM     39  O   UNL     1      23.509  10.049   3.084  0.00  0.00    +0.041 OA
ATOM     40  O   UNL     1      21.598  10.789   2.301  0.00  0.00    -0.576 OA
ENDBRANCH  35  38
ENDBRANCH  30  32
ENDBRANCH  26  28
ENDBRANCH  25  26
ENDBRANCH  24  25
ENDBRANCH   1  24
TORSDOF 12
