REMARK VINA RESULT:    -6.241      2.673      5.790
REMARK INTER + INTRA:         -14.466
REMARK INTER:                 -12.233
REMARK INTRA:                  -2.233
REMARK UNBOUND:                -3.117
REMARK  Name = lig_assembled_9.pdb
REMARK  15 active torsions:
REMARK  status: ('A' for Active; 'I' for Inactive)
REMARK    1  A    between atoms: _2  and  _8
REMARK    2  A    between atoms: _5  and  _6
REMARK    3  A    between atoms: _5  and  _18
REMARK    4  A    between atoms: _10  and  _11
REMARK    5  A    between atoms: _11  and  _16
REMARK    6  A    between atoms: _12  and  _13
REMARK    7  A    between atoms: _12  and  _16
REMARK    8  A    between atoms: _18  and  _20
REMARK    9  A    between atoms: _19  and  _24
REMARK   10  A    between atoms: _20  and  _23
REMARK   11  A    between atoms: _28  and  _38
REMARK   12  A    between atoms: _30  and  _31
REMARK   13  A    between atoms: _32  and  _34
REMARK   14  A    between atoms: _34  and  _36
REMARK   15  A    between atoms: _36  and  _38
REMARK                            x       y       z     vdW  Elec       q    Type
REMARK                         _______ _______ _______ _____ _____    ______ ____
ROOT
ATOM      1  C   UNL     1      31.650  14.217  -0.830  0.00  0.00    +0.400 C 
ATOM      2  N   UNL     1      32.665  13.657  -0.090  0.00  0.00    -0.278 N 
ATOM      3  H   UNL     1      32.740  12.666  -0.484  0.00  0.00    +0.152 HD
ATOM      4  O   UNL     1      31.230  13.595  -1.802  0.00  0.00    -0.226 OA
ENDROOT
BRANCH   2   5
ATOM      5  C   UNL     1      33.672  13.810   0.956  0.00  0.00    +0.152 C 
BRANCH   5   6
ATOM      6  C   UNL     1      33.393  13.070   2.281  0.00  0.00    +0.193 C 
ATOM      7  O   UNL     1      34.568  13.238   3.105  0.00  0.00    -0.219 OA
BRANCH   6   8
ATOM      8  C   UNL     1      32.231  13.587   3.157  0.00  0.00    +0.212 C 
ATOM      9  O   UNL     1      31.932  14.956   2.838  0.00  0.00    -0.218 OA
BRANCH   8  10
ATOM     10  C   UNL     1      30.912  12.736   3.009  0.00  0.00    +0.171 C 
ATOM     11  O   UNL     1      29.878  13.442   2.330  0.00  0.00    -0.343 OA
ATOM     12  C   UNL     1      28.545  13.027   2.275  0.00  0.00    +0.220 C 
ATOM     13  C   UNL     1      27.993  12.698   3.673  0.00  0.00    +0.076 C 
ATOM     14  C   UNL     1      28.956  11.694   4.327  0.00  0.00    +0.177 C 
ATOM     15  O   UNL     1      28.470  11.325   5.609  0.00  0.00    -0.221 OA
ATOM     16  C   UNL     1      30.389  12.306   4.419  0.00  0.00    +0.155 C 
BRANCH  16  17
ATOM     17  N   UNL     1      31.306  11.358   5.046  0.00  0.00    -0.202 NA
ATOM     18  C   UNL     1      31.936  11.425   6.246  0.00  0.00    +0.242 C 
ATOM     19  C   UNL     1      32.594  10.179   6.780  0.00  0.00    +0.096 C 
ATOM     20  O   UNL     1      31.955  12.488   6.864  0.00  0.00    -0.273 OA
ENDBRANCH  16  17
BRANCH  12  21
ATOM     21  C   UNL     1      28.288  11.810   1.230  0.00  0.00    +0.391 C 
ATOM     22  O   UNL     1      27.072  11.328   1.550  0.00  0.00    -0.243 OA
ATOM     23  O   UNL     1      29.220  11.938   0.277  0.00  0.00    -0.243 OA
ENDBRANCH  12  21
ENDBRANCH   8  10
ENDBRANCH   6   8
ENDBRANCH   5   6
ENDBRANCH   2   5
BRANCH   1  24
ATOM     24  O   UNL     1      31.208  15.354  -0.402  0.00  0.00    -0.450 OA
BRANCH  24  25
ATOM     25  C   UNL     1      30.075  15.885   0.245  0.00  0.00    +0.240 C 
BRANCH  25  26
ATOM     26  C   UNL     1      29.636  17.310  -0.144  0.00  0.00    +0.100 C 
BRANCH  26  28
ATOM     27  N   UNL     1      27.854  18.393  -1.477  0.00  0.00    -0.134 NA
ATOM     28  C   UNL     1      28.485  17.255  -1.063  0.00  0.00    +0.086 A 
ATOM     29  C   UNL     1      27.875  16.167  -1.643  0.00  0.00    +0.139 A 
ATOM     30  N   UNL     1      26.888  16.697  -2.444  0.00  0.00    -0.220 N 
ATOM     31  N   UNL     1      26.881  18.045  -2.310  0.00  0.00    -0.061 NA
BRANCH  30  32
ATOM     32  C   UNL     1      26.003  16.023  -3.323  0.00  0.00    +0.068 A 
ATOM     33  C   UNL     1      24.716  15.666  -2.901  0.00  0.00    +0.042 A 
ATOM     34  C   UNL     1      23.854  14.971  -3.763  0.00  0.00    +0.061 A 
ATOM     35  C   UNL     1      24.285  14.638  -5.053  0.00  0.00    +0.015 A 
ATOM     36  C   UNL     1      25.563  15.003  -5.481  0.00  0.00    +0.003 A 
ATOM     37  C   UNL     1      26.420  15.694  -4.622  0.00  0.00    +0.028 A 
BRANCH  34  38
ATOM     38  C   UNL     1      22.461  14.628  -3.375  0.00  0.00    +0.339 C 
ATOM     39  O   UNL     1      21.502  14.737  -4.122  0.00  0.00    -0.245 OA
BRANCH  38  40
ATOM     40  O   UNL     1      22.422  14.280  -2.065  0.00  0.00    -0.461 OA
BRANCH  40  41
ATOM     41  C   UNL     1      21.847  12.998  -1.782  0.00  0.00    +0.229 C 
ATOM     42  C   UNL     1      20.868  13.165  -0.634  0.00  0.00    +0.048 C 
ENDBRANCH  40  41
ENDBRANCH  38  40
ENDBRANCH  34  38
ENDBRANCH  30  32
ENDBRANCH  26  28
ENDBRANCH  25  26
ENDBRANCH  24  25
ENDBRANCH   1  24
TORSDOF 14
