REMARK VINA RESULT:    -6.176      2.010      2.630
REMARK INTER + INTRA:         -12.567
REMARK INTER:                 -11.113
REMARK INTRA:                  -1.455
REMARK UNBOUND:                -1.336
REMARK  Name = lig_assembled_19.pdb
REMARK  15 active torsions:
REMARK  status: ('A' for Active; 'I' for Inactive)
REMARK    1  A    between atoms: _2  and  _8
REMARK    2  A    between atoms: _4  and  _10
REMARK    3  A    between atoms: _5  and  _6
REMARK    4  A    between atoms: _5  and  _13
REMARK    5  A    between atoms: _8  and  _9
REMARK    6  A    between atoms: _9  and  _12
REMARK    7  A    between atoms: _10  and  _12
REMARK    8  A    between atoms: _13  and  _15
REMARK    9  A    between atoms: _14  and  _19
REMARK   10  A    between atoms: _15  and  _18
REMARK   11  A    between atoms: _23  and  _33
REMARK   12  A    between atoms: _25  and  _26
REMARK   13  A    between atoms: _27  and  _29
REMARK   14  A    between atoms: _29  and  _31
REMARK   15  A    between atoms: _31  and  _33
REMARK                            x       y       z     vdW  Elec       q    Type
REMARK                         _______ _______ _______ _____ _____    ______ ____
ROOT
ATOM      1  C   UNL     1      29.268  15.245  -0.217  0.00  0.00    +0.152 C 
ENDROOT
BRANCH   1   3
ATOM      2  C   UNL     1      27.898  17.470  -1.005  0.00  0.00    +0.400 C 
ATOM      3  N   UNL     1      28.629  16.557  -0.281  0.00  0.00    -0.278 N 
ATOM      4  H   UNL     1      28.774  17.046   0.658  0.00  0.00    +0.152 HD
ATOM      5  O   UNL     1      27.455  18.453  -0.418  0.00  0.00    -0.226 OA
BRANCH   2   6
ATOM      6  O   UNL     1      27.773  17.213  -2.266  0.00  0.00    -0.450 OA
BRANCH   6   7
ATOM      7  C   UNL     1      26.795  17.279  -3.277  0.00  0.00    +0.240 C 
BRANCH   7   8
ATOM      8  C   UNL     1      26.375  15.957  -3.947  0.00  0.00    +0.100 C 
BRANCH   8  10
ATOM      9  N   UNL     1      24.221  15.698  -2.750  0.00  0.00    -0.134 NA
ATOM     10  C   UNL     1      25.459  15.205  -3.070  0.00  0.00    +0.086 A 
ATOM     11  C   UNL     1      25.630  13.987  -2.452  0.00  0.00    +0.133 A 
ATOM     12  N   UNL     1      24.468  13.802  -1.767  0.00  0.00    -0.248 N 
ATOM     13  N   UNL     1      23.620  14.827  -1.949  0.00  0.00    -0.065 NA
BRANCH  12  14
ATOM     14  C   UNL     1      24.096  12.678  -0.936  0.00  0.00    +0.186 C 
BRANCH  14  15
ATOM     15  C   UNL     1      25.318  11.911  -0.441  0.00  0.00    +0.255 C 
BRANCH  15  16
ATOM     16  O   UNL     1      25.929  12.537   0.704  0.00  0.00    -0.463 OA
BRANCH  16  17
ATOM     17  C   UNL     1      25.964  11.794   1.841  0.00  0.00    +0.304 C 
ATOM     18  O   UNL     1      26.312  12.210   2.937  0.00  0.00    -0.251 OA
ATOM     19  C   UNL     1      25.483  10.399   1.584  0.00  0.00    +0.136 C 
ENDBRANCH  16  17
ENDBRANCH  15  16
ENDBRANCH  14  15
ENDBRANCH  12  14
ENDBRANCH   8  10
ENDBRANCH   7   8
ENDBRANCH   6   7
ENDBRANCH   2   6
ENDBRANCH   1   3
BRANCH   1  20
ATOM     20  C   UNL     1      30.566  15.162   0.612  0.00  0.00    +0.193 C 
ATOM     21  O   UNL     1      30.884  16.510   1.022  0.00  0.00    -0.219 OA
BRANCH  20  22
ATOM     22  C   UNL     1      30.522  14.358   1.931  0.00  0.00    +0.212 C 
ATOM     23  O   UNL     1      29.495  13.355   1.873  0.00  0.00    -0.218 OA
BRANCH  22  24
ATOM     24  C   UNL     1      31.890  13.659   2.282  0.00  0.00    +0.171 C 
ATOM     25  O   UNL     1      32.651  14.393   3.236  0.00  0.00    -0.343 OA
ATOM     26  C   UNL     1      33.990  14.136   3.542  0.00  0.00    +0.220 C 
ATOM     27  C   UNL     1      34.858  14.052   2.275  0.00  0.00    +0.076 C 
ATOM     28  C   UNL     1      34.203  13.030   1.331  0.00  0.00    +0.177 C 
ATOM     29  O   UNL     1      34.989  12.884   0.158  0.00  0.00    -0.221 OA
ATOM     30  C   UNL     1      32.747  13.474   0.987  0.00  0.00    +0.155 C 
BRANCH  30  31
ATOM     31  N   UNL     1      32.123  12.509   0.085  0.00  0.00    -0.202 NA
ATOM     32  C   UNL     1      31.969  12.554  -1.263  0.00  0.00    +0.242 C 
ATOM     33  C   UNL     1      31.555  11.295  -1.978  0.00  0.00    +0.096 C 
ATOM     34  O   UNL     1      32.171  13.608  -1.862  0.00  0.00    -0.273 OA
ENDBRANCH  30  31
BRANCH  26  35
ATOM     35  C   UNL     1      34.199  12.838   4.496  0.00  0.00    +0.391 C 
ATOM     36  O   UNL     1      35.496  12.505   4.350  0.00  0.00    -0.243 OA
ATOM     37  O   UNL     1      33.115  12.777   5.279  0.00  0.00    -0.243 OA
ENDBRANCH  26  35
ENDBRANCH  22  24
ENDBRANCH  20  22
ENDBRANCH   1  20
TORSDOF 14
