REMARK VINA RESULT:    -6.999      2.092      3.142
REMARK INTER + INTRA:         -14.996
REMARK INTER:                 -11.915
REMARK INTRA:                  -3.082
REMARK UNBOUND:                -1.860
REMARK  Name = lig_assembled_37.pdb
REMARK  16 active torsions:
REMARK  status: ('A' for Active; 'I' for Inactive)
REMARK    1  A    between atoms: _2  and  _8
REMARK    2  A    between atoms: _5  and  _6
REMARK    3  A    between atoms: _5  and  _19
REMARK    4  A    between atoms: _8  and  _9
REMARK    5  A    between atoms: _8  and  _10
REMARK    6  A    between atoms: _10  and  _17
REMARK    7  A    between atoms: _11  and  _12
REMARK    8  A    between atoms: _11  and  _17
REMARK    9  A    between atoms: _19  and  _21
REMARK   10  A    between atoms: _20  and  _25
REMARK   11  A    between atoms: _21  and  _24
REMARK   12  A    between atoms: _29  and  _39
REMARK   13  A    between atoms: _31  and  _32
REMARK   14  A    between atoms: _33  and  _35
REMARK   15  A    between atoms: _35  and  _37
REMARK   16  A    between atoms: _37  and  _39
REMARK                            x       y       z     vdW  Elec       q    Type
REMARK                         _______ _______ _______ _____ _____    ______ ____
ROOT
ATOM      1  C   UNL     1      27.710  13.259   2.401  0.00  0.00    +0.400 C 
ATOM      2  N   UNL     1      27.973  14.228   1.461  0.00  0.00    -0.278 N 
ATOM      3  H   UNL     1      27.922  15.137   2.022  0.00  0.00    +0.152 HD
ATOM      4  O   UNL     1      27.672  13.593   3.582  0.00  0.00    -0.226 OA
ENDROOT
BRANCH   2   5
ATOM      5  C   UNL     1      28.296  14.564   0.077  0.00  0.00    +0.152 C 
BRANCH   5   6
ATOM      6  C   UNL     1      29.307  13.637  -0.629  0.00  0.00    +0.193 C 
ATOM      7  O   UNL     1      28.940  13.610  -2.026  0.00  0.00    -0.219 OA
BRANCH   6   8
ATOM      8  C   UNL     1      30.791  14.064  -0.628  0.00  0.00    +0.212 C 
ATOM      9  O   UNL     1      30.902  15.493  -0.529  0.00  0.00    -0.218 OA
BRANCH   8  10
ATOM     10  C   UNL     1      31.628  13.412   0.537  0.00  0.00    +0.171 C 
ATOM     11  O   UNL     1      31.217  13.860   1.824  0.00  0.00    -0.343 OA
ATOM     12  C   UNL     1      31.933  13.637   3.003  0.00  0.00    +0.220 C 
ATOM     13  C   UNL     1      33.410  14.044   2.859  0.00  0.00    +0.076 C 
ATOM     14  C   UNL     1      33.968  13.330   1.616  0.00  0.00    +0.177 C 
ATOM     15  O   UNL     1      35.345  13.642   1.459  0.00  0.00    -0.221 OA
ATOM     16  C   UNL     1      33.148  13.732   0.351  0.00  0.00    +0.155 C 
BRANCH  16  17
ATOM     17  N   UNL     1      33.679  13.061  -0.832  0.00  0.00    -0.202 NA
ATOM     18  C   UNL     1      33.963  13.563  -2.061  0.00  0.00    +0.242 C 
ATOM     19  C   UNL     1      34.777  12.721  -3.008  0.00  0.00    +0.096 C 
ATOM     20  O   UNL     1      33.555  14.681  -2.369  0.00  0.00    -0.273 OA
ENDBRANCH  16  17
BRANCH  12  21
ATOM     21  C   UNL     1      31.785  12.123   3.573  0.00  0.00    +0.391 C 
ATOM     22  O   UNL     1      32.668  12.046   4.588  0.00  0.00    -0.243 OA
ATOM     23  O   UNL     1      30.660  11.634   3.037  0.00  0.00    -0.243 OA
ENDBRANCH  12  21
ENDBRANCH   8  10
ENDBRANCH   6   8
ENDBRANCH   5   6
ENDBRANCH   2   5
BRANCH   1  24
ATOM     24  O   UNL     1      27.495  12.072   1.936  0.00  0.00    -0.450 OA
BRANCH  24  25
ATOM     25  C   UNL     1      26.535  11.046   2.029  0.00  0.00    +0.240 C 
BRANCH  25  26
ATOM     26  C   UNL     1      26.020  10.432   0.714  0.00  0.00    +0.100 C 
BRANCH  26  28
ATOM     27  N   UNL     1      26.244  11.608  -1.456  0.00  0.00    -0.134 NA
ATOM     28  C   UNL     1      25.637  11.494  -0.234  0.00  0.00    +0.086 A 
ATOM     29  C   UNL     1      24.690  12.486  -0.109  0.00  0.00    +0.134 A 
ATOM     30  N   UNL     1      24.788  13.188  -1.274  0.00  0.00    -0.238 N 
ATOM     31  N   UNL     1      25.711  12.644  -2.089  0.00  0.00    -0.065 NA
BRANCH  30  32
ATOM     32  C   UNL     1      24.015  14.328  -1.728  0.00  0.00    +0.214 C 
ATOM     33  C   UNL     1      24.750  15.100  -2.823  0.00  0.00    +0.045 C 
BRANCH  32  34
ATOM     34  C   UNL     1      22.648  13.902  -2.216  0.00  0.00    +0.332 C 
ATOM     35  O   UNL     1      22.435  13.417  -3.322  0.00  0.00    -0.248 OA
BRANCH  34  36
ATOM     36  O   UNL     1      21.696  14.132  -1.272  0.00  0.00    -0.458 OA
BRANCH  36  37
ATOM     37  C   UNL     1      20.712  13.100  -1.102  0.00  0.00    +0.267 C 
BRANCH  37  38
ATOM     38  C   UNL     1      21.233  12.044  -0.162  0.00  0.00    -0.010 A 
ATOM     39  C   UNL     1      21.307  12.293   1.216  0.00  0.00    +0.007 A 
ATOM     40  C   UNL     1      21.763  11.305   2.091  0.00  0.00    +0.000 A 
ATOM     41  C   UNL     1      22.153  10.061   1.599  0.00  0.00    +0.000 A 
ATOM     42  C   UNL     1      22.090   9.804   0.230  0.00  0.00    +0.000 A 
ATOM     43  C   UNL     1      21.635  10.791  -0.647  0.00  0.00    +0.007 A 
ENDBRANCH  37  38
ENDBRANCH  36  37
ENDBRANCH  34  36
ENDBRANCH  32  34
ENDBRANCH  30  32
ENDBRANCH  26  28
ENDBRANCH  25  26
ENDBRANCH  24  25
ENDBRANCH   1  24
TORSDOF 15
