REMARK VINA RESULT:    -7.626      2.045      2.720
REMARK INTER + INTRA:         -14.298
REMARK INTER:                 -11.802
REMARK INTRA:                  -2.496
REMARK UNBOUND:                -1.768
REMARK  Name = lig_assembled_91.pdb
REMARK  11 active torsions:
REMARK  status: ('A' for Active; 'I' for Inactive)
REMARK    1  A    between atoms: _2  and  _9
REMARK    2  A    between atoms: _6  and  _7
REMARK    3  A    between atoms: _6  and  _21
REMARK    4  A    between atoms: _21  and  _23
REMARK    5  A    between atoms: _22  and  _27
REMARK    6  A    between atoms: _23  and  _26
REMARK    7  A    between atoms: _31  and  _41
REMARK    8  A    between atoms: _33  and  _34
REMARK    9  A    between atoms: _35  and  _37
REMARK   10  A    between atoms: _37  and  _39
REMARK   11  A    between atoms: _39  and  _41
REMARK                            x       y       z     vdW  Elec       q    Type
REMARK                         _______ _______ _______ _____ _____    ______ ____
ROOT
ATOM      1  C   UNL     1      29.127  12.098  -4.471  0.00  0.00    +0.400 C 
ATOM      2  N   UNL     1      29.162  12.058  -3.097  0.00  0.00    -0.278 N 
ATOM      3  H   UNL     1      30.199  11.916  -2.880  0.00  0.00    +0.152 HD
ATOM      4  O   UNL     1      30.195  12.151  -5.077  0.00  0.00    -0.226 OA
ENDROOT
BRANCH   1   5
ATOM      5  O   UNL     1      27.950  12.044  -5.003  0.00  0.00    -0.450 OA
BRANCH   5   6
ATOM      6  C   UNL     1      27.013  12.901  -5.611  0.00  0.00    +0.240 C 
BRANCH   6   7
ATOM      7  C   UNL     1      26.957  14.360  -5.117  0.00  0.00    +0.100 C 
BRANCH   7   9
ATOM      8  N   UNL     1      25.803  15.586  -3.312  0.00  0.00    -0.134 NA
ATOM      9  C   UNL     1      25.820  14.552  -4.198  0.00  0.00    +0.086 A 
ATOM     10  C   UNL     1      24.655  13.831  -4.062  0.00  0.00    +0.139 A 
ATOM     11  N   UNL     1      23.962  14.438  -3.034  0.00  0.00    -0.219 N 
ATOM     12  N   UNL     1      24.679  15.513  -2.616  0.00  0.00    -0.060 NA
BRANCH  11  13
ATOM     13  C   UNL     1      22.714  14.076  -2.437  0.00  0.00    +0.085 A 
ATOM     14  C   UNL     1      22.681  13.158  -1.327  0.00  0.00    +0.026 A 
ATOM     15  C   UNL     1      21.399  12.850  -0.831  0.00  0.00    +0.074 A 
ATOM     16  C   UNL     1      21.240  11.978   0.235  0.00  0.00    +0.028 A 
ATOM     17  C   UNL     1      22.322  11.375   0.869  0.00  0.00    +0.002 A 
ATOM     18  C   UNL     1      23.599  11.675   0.440  0.00  0.00    +0.001 A 
ATOM     19  N   UNL     1      20.272  13.370  -1.312  0.00  0.00    -0.247 NA
ATOM     20  C   UNL     1      20.309  14.239  -2.321  0.00  0.00    +0.074 A 
ATOM     21  C   UNL     1      19.074  14.718  -2.746  0.00  0.00    +0.028 A 
ATOM     22  C   UNL     1      18.947  15.603  -3.812  0.00  0.00    +0.002 A 
ATOM     23  C   UNL     1      20.084  16.013  -4.480  0.00  0.00    +0.001 A 
ATOM     24  C   UNL     1      21.332  15.537  -4.068  0.00  0.00    +0.012 A 
ATOM     25  C   UNL     1      23.778  12.567  -0.623  0.00  0.00    +0.012 A 
ATOM     26  C   UNL     1      21.493  14.646  -2.958  0.00  0.00    +0.026 A 
ENDBRANCH  11  13
ENDBRANCH   7   9
ENDBRANCH   6   7
ENDBRANCH   5   6
ENDBRANCH   1   5
BRANCH   2  27
ATOM     27  C   UNL     1      28.438  12.136  -1.831  0.00  0.00    +0.152 C 
BRANCH  27  28
ATOM     28  C   UNL     1      28.054  13.552  -1.354  0.00  0.00    +0.193 C 
ATOM     29  O   UNL     1      27.208  13.384  -0.195  0.00  0.00    -0.219 OA
BRANCH  28  30
ATOM     30  C   UNL     1      29.193  14.476  -0.869  0.00  0.00    +0.212 C 
ATOM     31  O   UNL     1      28.660  15.721  -0.390  0.00  0.00    -0.218 OA
BRANCH  30  32
ATOM     32  C   UNL     1      30.076  13.835   0.269  0.00  0.00    +0.171 C 
ATOM     33  O   UNL     1      29.897  14.476   1.528  0.00  0.00    -0.343 OA
ATOM     34  C   UNL     1      30.721  14.277   2.638  0.00  0.00    +0.220 C 
ATOM     35  C   UNL     1      32.209  14.440   2.281  0.00  0.00    +0.076 C 
ATOM     36  C   UNL     1      32.501  13.519   1.084  0.00  0.00    +0.177 C 
ATOM     37  O   UNL     1      33.876  13.601   0.738  0.00  0.00    -0.221 OA
ATOM     38  C   UNL     1      31.588  13.901  -0.123  0.00  0.00    +0.155 C 
BRANCH  38  39
ATOM     39  N   UNL     1      31.867  13.033  -1.264  0.00  0.00    -0.202 NA
ATOM     40  C   UNL     1      32.662  13.247  -2.343  0.00  0.00    +0.242 C 
ATOM     41  C   UNL     1      33.005  12.074  -3.224  0.00  0.00    +0.096 C 
ATOM     42  O   UNL     1      33.080  14.380  -2.574  0.00  0.00    -0.273 OA
ENDBRANCH  38  39
BRANCH  34  43
ATOM     43  C   UNL     1      30.442  12.873   3.407  0.00  0.00    +0.391 C 
ATOM     44  O   UNL     1      31.541  12.663   4.157  0.00  0.00    -0.243 OA
ATOM     45  O   UNL     1      29.138  12.618   3.248  0.00  0.00    -0.243 OA
ENDBRANCH  34  43
ENDBRANCH  30  32
ENDBRANCH  28  30
ENDBRANCH  27  28
ENDBRANCH   2  27
TORSDOF 11
