REMARK VINA RESULT:    -5.465      2.327      3.539
REMARK INTER + INTRA:         -11.882
REMARK INTER:                 -10.066
REMARK INTRA:                  -1.815
REMARK UNBOUND:                -2.422
REMARK  Name = lig_assembled_53.pdb
REMARK  13 active torsions:
REMARK  status: ('A' for Active; 'I' for Inactive)
REMARK    1  A    between atoms: _2  and  _8
REMARK    2  A    between atoms: _4  and  _8
REMARK    3  A    between atoms: _4  and  _9
REMARK    4  A    between atoms: _5  and  _6
REMARK    5  A    between atoms: _5  and  _11
REMARK    6  A    between atoms: _11  and  _13
REMARK    7  A    between atoms: _12  and  _17
REMARK    8  A    between atoms: _13  and  _16
REMARK    9  A    between atoms: _21  and  _31
REMARK   10  A    between atoms: _23  and  _24
REMARK   11  A    between atoms: _25  and  _27
REMARK   12  A    between atoms: _27  and  _29
REMARK   13  A    between atoms: _29  and  _31
REMARK                            x       y       z     vdW  Elec       q    Type
REMARK                         _______ _______ _______ _____ _____    ______ ____
ROOT
ATOM      1  C   UNL     1      28.551  14.351   0.847  0.00  0.00    +0.152 C 
ENDROOT
BRANCH   1   3
ATOM      2  C   UNL     1      28.108  11.682   1.205  0.00  0.00    +0.400 C 
ATOM      3  N   UNL     1      28.621  12.956   1.275  0.00  0.00    -0.278 N 
ATOM      4  H   UNL     1      29.450  12.852   1.942  0.00  0.00    +0.152 HD
ATOM      5  O   UNL     1      28.756  10.768   1.710  0.00  0.00    -0.226 OA
BRANCH   2   6
ATOM      6  O   UNL     1      26.956  11.573   0.628  0.00  0.00    -0.450 OA
BRANCH   6   7
ATOM      7  C   UNL     1      25.660  12.117   0.720  0.00  0.00    +0.240 C 
BRANCH   7   8
ATOM      8  C   UNL     1      24.776  12.065  -0.540  0.00  0.00    +0.100 C 
BRANCH   8  10
ATOM      9  N   UNL     1      26.470  13.139  -1.993  0.00  0.00    -0.134 NA
ATOM     10  C   UNL     1      25.193  13.100  -1.505  0.00  0.00    +0.086 A 
ATOM     11  C   UNL     1      24.468  14.131  -2.058  0.00  0.00    +0.134 A 
ATOM     12  N   UNL     1      25.374  14.803  -2.822  0.00  0.00    -0.241 N 
ATOM     13  N   UNL     1      26.566  14.174  -2.817  0.00  0.00    -0.065 NA
BRANCH  12  14
ATOM     14  C   UNL     1      25.195  15.932  -3.711  0.00  0.00    +0.265 C 
BRANCH  14  15
ATOM     15  C   UNL     1      26.456  16.669  -4.076  0.00  0.00    +0.326 C 
ATOM     16  O   UNL     1      26.943  17.622  -3.486  0.00  0.00    -0.249 OA
BRANCH  15  17
ATOM     17  O   UNL     1      27.044  16.170  -5.197  0.00  0.00    -0.479 OA
ATOM     18  H   UNL     1      27.838  16.644  -5.509  0.00  0.00    +0.295 HD
ENDBRANCH  15  17
ENDBRANCH  14  15
ENDBRANCH  12  14
ENDBRANCH   8  10
ENDBRANCH   7   8
ENDBRANCH   6   7
ENDBRANCH   2   6
ENDBRANCH   1   3
BRANCH   1  19
ATOM     19  C   UNL     1      29.481  14.752  -0.316  0.00  0.00    +0.193 C 
ATOM     20  O   UNL     1      28.872  15.892  -0.961  0.00  0.00    -0.219 OA
BRANCH  19  21
ATOM     21  C   UNL     1      30.908  15.226   0.040  0.00  0.00    +0.212 C 
ATOM     22  O   UNL     1      30.861  16.494   0.714  0.00  0.00    -0.218 OA
BRANCH  21  23
ATOM     23  C   UNL     1      31.699  14.205   0.942  0.00  0.00    +0.171 C 
ATOM     24  O   UNL     1      31.939  14.704   2.254  0.00  0.00    -0.343 OA
ATOM     25  C   UNL     1      32.816  14.120   3.171  0.00  0.00    +0.220 C 
ATOM     26  C   UNL     1      34.200  13.860   2.551  0.00  0.00    +0.076 C 
ATOM     27  C   UNL     1      33.984  13.054   1.259  0.00  0.00    +0.177 C 
ATOM     28  O   UNL     1      35.238  12.751   0.666  0.00  0.00    -0.221 OA
ATOM     29  C   UNL     1      33.069  13.849   0.277  0.00  0.00    +0.155 C 
BRANCH  29  30
ATOM     30  N   UNL     1      32.867  13.091  -0.955  0.00  0.00    -0.202 NA
ATOM     31  C   UNL     1      33.123  13.440  -2.241  0.00  0.00    +0.242 C 
ATOM     32  C   UNL     1      33.099  12.363  -3.294  0.00  0.00    +0.096 C 
ATOM     33  O   UNL     1      33.367  14.614  -2.515  0.00  0.00    -0.273 OA
ENDBRANCH  29  30
BRANCH  25  34
ATOM     34  C   UNL     1      32.218  12.786   3.879  0.00  0.00    +0.391 C 
ATOM     35  O   UNL     1      30.925  12.743   3.503  0.00  0.00    -0.243 OA
ATOM     36  O   UNL     1      33.277  12.087   4.305  0.00  0.00    -0.243 OA
ENDBRANCH  25  34
ENDBRANCH  21  23
ENDBRANCH  19  21
ENDBRANCH   1  19
TORSDOF 13
