REMARK VINA RESULT:    -6.142      2.688      5.140
REMARK INTER + INTRA:         -13.403
REMARK INTER:                 -11.147
REMARK INTRA:                  -2.256
REMARK UNBOUND:                -2.235
REMARK  Name = lig_assembled_50.pdb
REMARK  15 active torsions:
REMARK  status: ('A' for Active; 'I' for Inactive)
REMARK    1  A    between atoms: _2  and  _8
REMARK    2  A    between atoms: _4  and  _9
REMARK    3  A    between atoms: _4  and  _10
REMARK    4  A    between atoms: _5  and  _6
REMARK    5  A    between atoms: _5  and  _12
REMARK    6  A    between atoms: _8  and  _9
REMARK    7  A    between atoms: _9  and  _11
REMARK    8  A    between atoms: _12  and  _14
REMARK    9  A    between atoms: _13  and  _18
REMARK   10  A    between atoms: _14  and  _17
REMARK   11  A    between atoms: _22  and  _32
REMARK   12  A    between atoms: _24  and  _25
REMARK   13  A    between atoms: _26  and  _28
REMARK   14  A    between atoms: _28  and  _30
REMARK   15  A    between atoms: _30  and  _32
REMARK                            x       y       z     vdW  Elec       q    Type
REMARK                         _______ _______ _______ _____ _____    ______ ____
ROOT
ATOM      1  C   UNL     1      31.161  14.841  -0.115  0.00  0.00    +0.400 C 
ATOM      2  N   UNL     1      30.310  13.924   0.457  0.00  0.00    -0.278 N 
ATOM      3  H   UNL     1      30.876  13.018   0.441  0.00  0.00    +0.152 HD
ATOM      4  O   UNL     1      32.325  14.502  -0.318  0.00  0.00    -0.226 OA
ENDROOT
BRANCH   2   5
ATOM      5  C   UNL     1      29.016  13.644   1.074  0.00  0.00    +0.152 C 
BRANCH   5   6
ATOM      6  C   UNL     1      28.981  13.661   2.616  0.00  0.00    +0.193 C 
ATOM      7  O   UNL     1      27.591  13.579   3.000  0.00  0.00    -0.219 OA
BRANCH   6   8
ATOM      8  C   UNL     1      29.657  12.488   3.360  0.00  0.00    +0.212 C 
ATOM      9  O   UNL     1      29.702  11.322   2.521  0.00  0.00    -0.218 OA
BRANCH   8  10
ATOM     10  C   UNL     1      31.120  12.817   3.846  0.00  0.00    +0.171 C 
ATOM     11  O   UNL     1      32.055  12.867   2.774  0.00  0.00    -0.343 OA
ATOM     12  C   UNL     1      33.442  12.895   2.939  0.00  0.00    +0.220 C 
ATOM     13  C   UNL     1      33.928  11.780   3.880  0.00  0.00    +0.076 C 
ATOM     14  C   UNL     1      33.119  11.889   5.183  0.00  0.00    +0.177 C 
ATOM     15  O   UNL     1      33.557  10.902   6.106  0.00  0.00    -0.221 OA
ATOM     16  C   UNL     1      31.594  11.746   4.883  0.00  0.00    +0.155 C 
BRANCH  16  17
ATOM     17  N   UNL     1      30.822  11.842   6.119  0.00  0.00    -0.202 NA
ATOM     18  C   UNL     1      30.036  10.917   6.725  0.00  0.00    +0.242 C 
ATOM     19  C   UNL     1      29.591  11.173   8.142  0.00  0.00    +0.096 C 
ATOM     20  O   UNL     1      29.709   9.902   6.112  0.00  0.00    -0.273 OA
ENDBRANCH  16  17
BRANCH  12  21
ATOM     21  C   UNL     1      34.010  14.349   3.392  0.00  0.00    +0.391 C 
ATOM     22  O   UNL     1      35.338  14.175   3.532  0.00  0.00    -0.243 OA
ATOM     23  O   UNL     1      33.018  15.220   3.166  0.00  0.00    -0.243 OA
ENDBRANCH  12  21
ENDBRANCH   8  10
ENDBRANCH   6   8
ENDBRANCH   5   6
ENDBRANCH   2   5
BRANCH   1  24
ATOM     24  O   UNL     1      30.635  15.982  -0.417  0.00  0.00    -0.450 OA
BRANCH  24  25
ATOM     25  C   UNL     1      29.671  16.879   0.082  0.00  0.00    +0.240 C 
BRANCH  25  26
ATOM     26  C   UNL     1      28.977  17.812  -0.928  0.00  0.00    +0.100 C 
BRANCH  26  28
ATOM     27  N   UNL     1      27.137  17.724  -2.585  0.00  0.00    -0.134 NA
ATOM     28  C   UNL     1      27.926  17.083  -1.664  0.00  0.00    +0.086 A 
ATOM     29  C   UNL     1      27.557  15.754  -1.603  0.00  0.00    +0.133 A 
ATOM     30  N   UNL     1      26.541  15.656  -2.500  0.00  0.00    -0.249 N 
ATOM     31  N   UNL     1      26.301  16.836  -3.101  0.00  0.00    -0.065 NA
BRANCH  30  32
ATOM     32  C   UNL     1      25.749  14.495  -2.835  0.00  0.00    +0.178 C 
BRANCH  32  33
ATOM     33  C   UNL     1      24.246  14.674  -2.594  0.00  0.00    +0.161 C 
BRANCH  33  34
ATOM     34  O   UNL     1      23.957  15.712  -1.652  0.00  0.00    -0.388 OA
ATOM     35  H   UNL     1      23.066  16.067  -1.845  0.00  0.00    +0.210 HD
ENDBRANCH  33  34
BRANCH  33  36
ATOM     36  C   UNL     1      23.441  14.903  -3.880  0.00  0.00    +0.189 C 
BRANCH  36  37
ATOM     37  O   UNL     1      24.296  15.232  -4.975  0.00  0.00    -0.392 OA
ATOM     38  H   UNL     1      24.008  16.092  -5.338  0.00  0.00    +0.210 HD
ENDBRANCH  36  37
ENDBRANCH  33  36
ENDBRANCH  32  33
ENDBRANCH  30  32
ENDBRANCH  26  28
ENDBRANCH  25  26
ENDBRANCH  24  25
ENDBRANCH   1  24
TORSDOF 15
