REMARK VINA RESULT:    -7.002      1.165      1.476
REMARK INTER + INTRA:         -13.194
REMARK INTER:                 -11.888
REMARK INTRA:                  -1.307
REMARK UNBOUND:                -1.689
REMARK  Name = lig_assembled_49.pdb
REMARK  11 active torsions:
REMARK  status: ('A' for Active; 'I' for Inactive)
REMARK    1  A    between atoms: _2  and  _8
REMARK    2  A    between atoms: _5  and  _6
REMARK    3  A    between atoms: _5  and  _12
REMARK    4  A    between atoms: _12  and  _14
REMARK    5  A    between atoms: _13  and  _18
REMARK    6  A    between atoms: _14  and  _17
REMARK    7  A    between atoms: _22  and  _32
REMARK    8  A    between atoms: _24  and  _25
REMARK    9  A    between atoms: _26  and  _28
REMARK   10  A    between atoms: _28  and  _30
REMARK   11  A    between atoms: _30  and  _32
REMARK                            x       y       z     vdW  Elec       q    Type
REMARK                         _______ _______ _______ _____ _____    ______ ____
ROOT
ATOM      1  C   UNL     1      29.208  14.687   0.292  0.00  0.00    +0.152 C 
ENDROOT
BRANCH   1   3
ATOM      2  C   UNL     1      28.157  17.062  -0.545  0.00  0.00    +0.400 C 
ATOM      3  N   UNL     1      28.746  16.070   0.202  0.00  0.00    -0.278 N 
ATOM      4  H   UNL     1      28.934  16.546   1.141  0.00  0.00    +0.152 HD
ATOM      5  O   UNL     1      27.832  18.101   0.024  0.00  0.00    -0.226 OA
BRANCH   2   6
ATOM      6  O   UNL     1      28.026  16.810  -1.806  0.00  0.00    -0.450 OA
BRANCH   6   7
ATOM      7  C   UNL     1      27.010  16.531  -2.741  0.00  0.00    +0.240 C 
BRANCH   7   8
ATOM      8  C   UNL     1      26.761  15.053  -3.100  0.00  0.00    +0.100 C 
BRANCH   8  10
ATOM      9  N   UNL     1      24.397  15.515  -2.537  0.00  0.00    -0.134 NA
ATOM     10  C   UNL     1      25.434  14.625  -2.619  0.00  0.00    +0.086 A 
ATOM     11  C   UNL     1      25.002  13.388  -2.193  0.00  0.00    +0.134 A 
ATOM     12  N   UNL     1      23.695  13.595  -1.859  0.00  0.00    -0.248 N 
ATOM     13  N   UNL     1      23.336  14.872  -2.069  0.00  0.00    -0.065 NA
BRANCH  12  14
ATOM     14  C   UNL     1      22.761  12.635  -1.320  0.00  0.00    +0.109 C 
ATOM     15  C   UNL     1      23.239  11.959  -0.034  0.00  0.00    +0.027 C 
ATOM     16  C   UNL     1      21.958  11.377   0.539  0.00  0.00    +0.002 C 
ATOM     17  C   UNL     1      20.909  12.448   0.271  0.00  0.00    +0.002 C 
ATOM     18  C   UNL     1      21.387  13.218  -0.963  0.00  0.00    +0.027 C 
ENDBRANCH  12  14
ENDBRANCH   8  10
ENDBRANCH   7   8
ENDBRANCH   6   7
ENDBRANCH   2   6
ENDBRANCH   1   3
BRANCH   1  19
ATOM     19  C   UNL     1      30.082  14.340   1.514  0.00  0.00    +0.193 C 
ATOM     20  O   UNL     1      30.308  12.914   1.472  0.00  0.00    -0.219 OA
BRANCH  19  21
ATOM     21  C   UNL     1      31.499  14.952   1.577  0.00  0.00    +0.212 C 
ATOM     22  O   UNL     1      31.509  16.107   2.432  0.00  0.00    -0.218 OA
BRANCH  21  23
ATOM     23  C   UNL     1      32.595  13.940   2.085  0.00  0.00    +0.171 C 
ATOM     24  O   UNL     1      33.127  14.300   3.355  0.00  0.00    -0.343 OA
ATOM     25  C   UNL     1      34.268  13.727   3.923  0.00  0.00    +0.220 C 
ATOM     26  C   UNL     1      35.455  13.730   2.944  0.00  0.00    +0.076 C 
ATOM     27  C   UNL     1      34.980  13.069   1.640  0.00  0.00    +0.177 C 
ATOM     28  O   UNL     1      36.054  13.010   0.711  0.00  0.00    -0.221 OA
ATOM     29  C   UNL     1      33.766  13.853   1.052  0.00  0.00    +0.155 C 
BRANCH  29  30
ATOM     30  N   UNL     1      33.316  13.233  -0.192  0.00  0.00    -0.202 NA
ATOM     31  C   UNL     1      33.112  13.787  -1.414  0.00  0.00    +0.242 C 
ATOM     32  C   UNL     1      32.932  12.869  -2.595  0.00  0.00    +0.096 C 
ATOM     33  O   UNL     1      33.081  15.011  -1.528  0.00  0.00    -0.273 OA
ENDBRANCH  29  30
BRANCH  25  34
ATOM     34  C   UNL     1      34.008  12.248   4.544  0.00  0.00    +0.391 C 
ATOM     35  O   UNL     1      35.238  11.743   4.763  0.00  0.00    -0.243 OA
ATOM     36  O   UNL     1      32.713  12.210   4.879  0.00  0.00    -0.243 OA
ENDBRANCH  25  34
ENDBRANCH  21  23
ENDBRANCH  19  21
ENDBRANCH   1  19
TORSDOF 11
