REMARK VINA RESULT:    -7.701      1.604      2.256
REMARK INTER + INTRA:         -15.232
REMARK INTER:                 -13.215
REMARK INTRA:                  -2.017
REMARK UNBOUND:                -2.128
REMARK  Name = lig_assembled_0.pdb
REMARK  12 active torsions:
REMARK  status: ('A' for Active; 'I' for Inactive)
REMARK    1  A    between atoms: _2  and  _9
REMARK    2  A    between atoms: _6  and  _7
REMARK    3  A    between atoms: _6  and  _16
REMARK    4  A    between atoms: _10  and  _11
REMARK    5  A    between atoms: _16  and  _18
REMARK    6  A    between atoms: _17  and  _22
REMARK    7  A    between atoms: _18  and  _21
REMARK    8  A    between atoms: _26  and  _36
REMARK    9  A    between atoms: _28  and  _29
REMARK   10  A    between atoms: _30  and  _32
REMARK   11  A    between atoms: _32  and  _34
REMARK   12  A    between atoms: _34  and  _36
REMARK                            x       y       z     vdW  Elec       q    Type
REMARK                         _______ _______ _______ _____ _____    ______ ____
ROOT
ATOM      1  C   UNL     1      28.185  17.004  -0.950  0.00  0.00    +0.400 C 
ATOM      2  N   UNL     1      28.268  15.685  -0.568  0.00  0.00    -0.278 N 
ATOM      3  H   UNL     1      28.647  15.740   0.430  0.00  0.00    +0.152 HD
ATOM      4  O   UNL     1      28.358  17.867  -0.093  0.00  0.00    -0.226 OA
ENDROOT
BRANCH   2   5
ATOM      5  C   UNL     1      28.062  14.278  -0.902  0.00  0.00    +0.152 C 
BRANCH   5   6
ATOM      6  C   UNL     1      28.252  13.272   0.252  0.00  0.00    +0.193 C 
ATOM      7  O   UNL     1      29.247  12.321  -0.187  0.00  0.00    -0.219 OA
BRANCH   6   8
ATOM      8  C   UNL     1      28.801  13.813   1.590  0.00  0.00    +0.212 C 
ATOM      9  O   UNL     1      27.739  13.954   2.548  0.00  0.00    -0.218 OA
BRANCH   8  10
ATOM     10  C   UNL     1      29.927  12.905   2.216  0.00  0.00    +0.171 C 
ATOM     11  O   UNL     1      29.612  12.473   3.535  0.00  0.00    -0.343 OA
ATOM     12  C   UNL     1      30.523  11.870   4.406  0.00  0.00    +0.220 C 
ATOM     13  C   UNL     1      31.825  12.681   4.521  0.00  0.00    +0.076 C 
ATOM     14  C   UNL     1      32.351  12.916   3.095  0.00  0.00    +0.177 C 
ATOM     15  O   UNL     1      33.578  13.630   3.146  0.00  0.00    -0.221 OA
ATOM     16  C   UNL     1      31.286  13.680   2.249  0.00  0.00    +0.155 C 
BRANCH  16  17
ATOM     17  N   UNL     1      31.784  13.912   0.895  0.00  0.00    -0.202 NA
ATOM     18  C   UNL     1      31.820  15.057   0.168  0.00  0.00    +0.242 C 
ATOM     19  C   UNL     1      32.655  15.082  -1.086  0.00  0.00    +0.096 C 
ATOM     20  O   UNL     1      31.180  16.037   0.545  0.00  0.00    -0.273 OA
ENDBRANCH  16  17
BRANCH  12  21
ATOM     21  C   UNL     1      30.819  10.311   4.055  0.00  0.00    +0.391 C 
ATOM     22  O   UNL     1      31.906   9.991   4.784  0.00  0.00    -0.243 OA
ATOM     23  O   UNL     1      29.726   9.859   3.429  0.00  0.00    -0.243 OA
ENDBRANCH  12  21
ENDBRANCH   8  10
ENDBRANCH   6   8
ENDBRANCH   5   6
ENDBRANCH   2   5
BRANCH   1  24
ATOM     24  O   UNL     1      27.958  17.210  -2.206  0.00  0.00    -0.450 OA
BRANCH  24  25
ATOM     25  C   UNL     1      26.874  17.468  -3.067  0.00  0.00    +0.240 C 
BRANCH  25  26
ATOM     26  C   UNL     1      26.624  16.471  -4.215  0.00  0.00    +0.100 C 
BRANCH  26  28
ATOM     27  N   UNL     1      24.955  14.771  -4.855  0.00  0.00    -0.134 NA
ATOM     28  C   UNL     1      25.445  15.635  -3.921  0.00  0.00    +0.086 A 
ATOM     29  C   UNL     1      24.690  15.537  -2.774  0.00  0.00    +0.139 A 
ATOM     30  N   UNL     1      23.678  14.659  -3.085  0.00  0.00    -0.219 N 
ATOM     31  N   UNL     1      23.915  14.146  -4.325  0.00  0.00    -0.061 NA
BRANCH  30  32
ATOM     32  C   UNL     1      22.591  14.176  -2.303  0.00  0.00    +0.079 A 
ATOM     33  C   UNL     1      21.290  14.719  -2.311  0.00  0.00    +0.062 A 
ATOM     34  C   UNL     1      20.316  14.164  -1.451  0.00  0.00    +0.015 A 
ATOM     35  C   UNL     1      20.622  13.108  -0.591  0.00  0.00    +0.001 A 
ATOM     36  C   UNL     1      21.898  12.565  -0.595  0.00  0.00    +0.002 A 
ATOM     37  C   UNL     1      22.870  13.084  -1.449  0.00  0.00    +0.028 A 
BRANCH  33  38
ATOM     38  C   UNL     1      20.810  15.723  -3.302  0.00  0.00    +0.244 C 
ATOM     39  O   UNL     1      19.941  15.467  -4.121  0.00  0.00    -0.270 OA
ATOM     40  N   UNL     1      21.352  16.979  -3.245  0.00  0.00    -0.325 N 
ATOM     41  H   UNL     1      20.982  17.669  -3.888  0.00  0.00    +0.145 HD
ATOM     42  H   UNL     1      22.062  17.273  -2.590  0.00  0.00    +0.145 HD
ENDBRANCH  33  38
ENDBRANCH  30  32
ENDBRANCH  26  28
ENDBRANCH  25  26
ENDBRANCH  24  25
ENDBRANCH   1  24
TORSDOF 12
