REMARK VINA RESULT:    -7.362      1.607      2.290
REMARK INTER + INTRA:         -13.720
REMARK INTER:                 -11.952
REMARK INTRA:                  -1.768
REMARK UNBOUND:                -1.624
REMARK  Name = lig_assembled_3.pdb
REMARK  11 active torsions:
REMARK  status: ('A' for Active; 'I' for Inactive)
REMARK    1  A    between atoms: _2  and  _8
REMARK    2  A    between atoms: _5  and  _6
REMARK    3  A    between atoms: _5  and  _13
REMARK    4  A    between atoms: _13  and  _15
REMARK    5  A    between atoms: _14  and  _19
REMARK    6  A    between atoms: _15  and  _18
REMARK    7  A    between atoms: _23  and  _33
REMARK    8  A    between atoms: _25  and  _26
REMARK    9  A    between atoms: _27  and  _29
REMARK   10  A    between atoms: _29  and  _31
REMARK   11  A    between atoms: _31  and  _33
REMARK                            x       y       z     vdW  Elec       q    Type
REMARK                         _______ _______ _______ _____ _____    ______ ____
ROOT
ATOM      1  C   UNL     1      27.847  14.082  -0.550  0.00  0.00    +0.152 C 
ENDROOT
BRANCH   1   3
ATOM      2  C   UNL     1      28.204  16.768  -0.875  0.00  0.00    +0.400 C 
ATOM      3  N   UNL     1      28.205  15.487  -0.374  0.00  0.00    -0.278 N 
ATOM      4  H   UNL     1      28.674  15.595   0.580  0.00  0.00    +0.152 HD
ATOM      5  O   UNL     1      28.529  17.684  -0.124  0.00  0.00    -0.226 OA
BRANCH   2   6
ATOM      6  O   UNL     1      27.885  16.881  -2.123  0.00  0.00    -0.450 OA
BRANCH   6   7
ATOM      7  C   UNL     1      26.868  17.443  -2.918  0.00  0.00    +0.240 C 
BRANCH   7   8
ATOM      8  C   UNL     1      26.250  16.555  -4.015  0.00  0.00    +0.100 C 
BRANCH   8  10
ATOM      9  N   UNL     1      25.931  14.151  -3.525  0.00  0.00    -0.134 NA
ATOM     10  C   UNL     1      25.499  15.439  -3.408  0.00  0.00    +0.086 A 
ATOM     11  C   UNL     1      24.338  15.460  -2.670  0.00  0.00    +0.139 A 
ATOM     12  N   UNL     1      24.109  14.146  -2.329  0.00  0.00    -0.220 N 
ATOM     13  N   UNL     1      25.080  13.370  -2.873  0.00  0.00    -0.061 NA
BRANCH  12  14
ATOM     14  C   UNL     1      23.070  13.603  -1.529  0.00  0.00    +0.067 A 
ATOM     15  C   UNL     1      23.304  12.497  -0.700  0.00  0.00    +0.028 A 
ATOM     16  C   UNL     1      22.259  11.958   0.057  0.00  0.00    +0.002 A 
ATOM     17  C   UNL     1      20.985  12.519  -0.005  0.00  0.00    +0.000 A 
ATOM     18  C   UNL     1      20.750  13.624  -0.821  0.00  0.00    +0.002 A 
ATOM     19  C   UNL     1      21.787  14.170  -1.581  0.00  0.00    +0.028 A 
ENDBRANCH  12  14
ENDBRANCH   8  10
ENDBRANCH   7   8
ENDBRANCH   6   7
ENDBRANCH   2   6
ENDBRANCH   1   3
BRANCH   1  20
ATOM     20  C   UNL     1      28.318  13.117   0.557  0.00  0.00    +0.193 C 
ATOM     21  O   UNL     1      29.385  12.324  -0.010  0.00  0.00    -0.219 OA
BRANCH  20  22
ATOM     22  C   UNL     1      28.932  13.736   1.831  0.00  0.00    +0.212 C 
ATOM     23  O   UNL     1      27.908  14.006   2.802  0.00  0.00    -0.218 OA
BRANCH  22  24
ATOM     24  C   UNL     1      30.033  12.826   2.499  0.00  0.00    +0.171 C 
ATOM     25  O   UNL     1      29.706  12.464   3.837  0.00  0.00    -0.343 OA
ATOM     26  C   UNL     1      30.600  11.876   4.735  0.00  0.00    +0.220 C 
ATOM     27  C   UNL     1      31.926  12.654   4.812  0.00  0.00    +0.076 C 
ATOM     28  C   UNL     1      32.456  12.808   3.377  0.00  0.00    +0.177 C 
ATOM     29  O   UNL     1      33.704  13.487   3.396  0.00  0.00    -0.221 OA
ATOM     30  C   UNL     1      31.413  13.562   2.496  0.00  0.00    +0.155 C 
BRANCH  30  31
ATOM     31  N   UNL     1      31.916  13.716   1.134  0.00  0.00    -0.202 NA
ATOM     32  C   UNL     1      31.898  14.802   0.319  0.00  0.00    +0.242 C 
ATOM     33  C   UNL     1      32.747  14.777  -0.925  0.00  0.00    +0.096 C 
ATOM     34  O   UNL     1      31.198  15.769   0.613  0.00  0.00    -0.273 OA
ENDBRANCH  30  31
BRANCH  26  35
ATOM     35  C   UNL     1      30.851  10.295   4.456  0.00  0.00    +0.391 C 
ATOM     36  O   UNL     1      31.946   9.985   5.178  0.00  0.00    -0.243 OA
ATOM     37  O   UNL     1      29.734   9.840   3.877  0.00  0.00    -0.243 OA
ENDBRANCH  26  35
ENDBRANCH  22  24
ENDBRANCH  20  22
ENDBRANCH   1  20
TORSDOF 11
