REMARK VINA RESULT:    -7.008      1.442      1.657
REMARK INTER + INTRA:         -13.060
REMARK INTER:                 -11.512
REMARK INTRA:                  -1.548
REMARK UNBOUND:                -1.545
REMARK  Name = lig_assembled_48.pdb
REMARK  11 active torsions:
REMARK  status: ('A' for Active; 'I' for Inactive)
REMARK    1  A    between atoms: _2  and  _8
REMARK    2  A    between atoms: _5  and  _6
REMARK    3  A    between atoms: _5  and  _13
REMARK    4  A    between atoms: _13  and  _15
REMARK    5  A    between atoms: _14  and  _19
REMARK    6  A    between atoms: _15  and  _18
REMARK    7  A    between atoms: _23  and  _33
REMARK    8  A    between atoms: _25  and  _26
REMARK    9  A    between atoms: _27  and  _29
REMARK   10  A    between atoms: _29  and  _31
REMARK   11  A    between atoms: _31  and  _33
REMARK                            x       y       z     vdW  Elec       q    Type
REMARK                         _______ _______ _______ _____ _____    ______ ____
ROOT
ATOM      1  C   UNL     1      27.960  14.765  -1.242  0.00  0.00    +0.152 C 
ENDROOT
BRANCH   1   3
ATOM      2  C   UNL     1      27.490  17.410  -1.719  0.00  0.00    +0.400 C 
ATOM      3  N   UNL     1      27.898  16.221  -1.161  0.00  0.00    -0.278 N 
ATOM      4  H   UNL     1      28.373  16.525  -0.252  0.00  0.00    +0.152 HD
ATOM      5  O   UNL     1      27.576  18.429  -1.039  0.00  0.00    -0.226 OA
BRANCH   2   6
ATOM      6  O   UNL     1      27.077  17.341  -2.942  0.00  0.00    -0.450 OA
BRANCH   6   7
ATOM      7  C   UNL     1      25.917  16.986  -3.659  0.00  0.00    +0.240 C 
BRANCH   7   8
ATOM      8  C   UNL     1      26.040  15.852  -4.694  0.00  0.00    +0.100 C 
BRANCH   8  10
ATOM      9  N   UNL     1      25.542  13.668  -3.653  0.00  0.00    -0.134 NA
ATOM     10  C   UNL     1      25.113  14.757  -4.358  0.00  0.00    +0.086 A 
ATOM     11  C   UNL     1      23.768  14.619  -4.624  0.00  0.00    +0.134 A 
ATOM     12  N   UNL     1      23.414  13.474  -3.975  0.00  0.00    -0.248 N 
ATOM     13  N   UNL     1      24.504  12.869  -3.457  0.00  0.00    -0.065 NA
BRANCH  12  14
ATOM     14  C   UNL     1      22.102  12.886  -3.731  0.00  0.00    +0.109 C 
ATOM     15  C   UNL     1      22.079  12.118  -2.396  0.00  0.00    +0.027 C 
ATOM     16  C   UNL     1      22.101  13.070  -1.203  0.00  0.00    +0.002 C 
ATOM     17  C   UNL     1      20.897  14.004  -1.232  0.00  0.00    +0.000 C 
ATOM     18  C   UNL     1      20.778  14.764  -2.551  0.00  0.00    +0.002 C 
ATOM     19  C   UNL     1      20.909  13.861  -3.784  0.00  0.00    +0.027 C 
ENDBRANCH  12  14
ENDBRANCH   8  10
ENDBRANCH   7   8
ENDBRANCH   6   7
ENDBRANCH   2   6
ENDBRANCH   1   3
BRANCH   1  20
ATOM     20  C   UNL     1      28.918  14.068  -0.254  0.00  0.00    +0.193 C 
ATOM     21  O   UNL     1      28.750  12.646  -0.445  0.00  0.00    -0.219 OA
BRANCH  20  22
ATOM     22  C   UNL     1      30.433  14.306  -0.439  0.00  0.00    +0.212 C 
ATOM     23  O   UNL     1      30.722  15.713  -0.457  0.00  0.00    -0.218 OA
BRANCH  22  24
ATOM     24  C   UNL     1      31.312  13.626   0.679  0.00  0.00    +0.171 C 
ATOM     25  O   UNL     1      31.043  14.142   1.978  0.00  0.00    -0.343 OA
ATOM     26  C   UNL     1      31.835  13.900   3.103  0.00  0.00    +0.220 C 
ATOM     27  C   UNL     1      33.321  14.188   2.826  0.00  0.00    +0.076 C 
ATOM     28  C   UNL     1      33.720  13.396   1.570  0.00  0.00    +0.177 C 
ATOM     29  O   UNL     1      35.099  13.596   1.293  0.00  0.00    -0.221 OA
ATOM     30  C   UNL     1      32.831  13.822   0.361  0.00  0.00    +0.155 C 
BRANCH  30  31
ATOM     31  N   UNL     1      33.212  13.077  -0.836  0.00  0.00    -0.202 NA
ATOM     32  C   UNL     1      33.590  13.531  -2.058  0.00  0.00    +0.242 C 
ATOM     33  C   UNL     1      34.213  12.556  -3.023  0.00  0.00    +0.096 C 
ATOM     34  O   UNL     1      33.420  14.714  -2.345  0.00  0.00    -0.273 OA
ENDBRANCH  30  31
BRANCH  26  35
ATOM     35  C   UNL     1      31.622  12.420   3.737  0.00  0.00    +0.391 C 
ATOM     36  O   UNL     1      32.678  12.236   4.554  0.00  0.00    -0.243 OA
ATOM     37  O   UNL     1      30.360  12.074   3.455  0.00  0.00    -0.243 OA
ENDBRANCH  26  35
ENDBRANCH  22  24
ENDBRANCH  20  22
ENDBRANCH   1  20
TORSDOF 11
