REMARK VINA RESULT:    -6.958      3.166      6.071
REMARK INTER + INTRA:         -13.100
REMARK INTER:                 -10.851
REMARK INTRA:                  -2.249
REMARK UNBOUND:                -1.669
REMARK  Name = lig_assembled_70.pdb
REMARK  11 active torsions:
REMARK  status: ('A' for Active; 'I' for Inactive)
REMARK    1  A    between atoms: _2  and  _9
REMARK    2  A    between atoms: _6  and  _7
REMARK    3  A    between atoms: _6  and  _17
REMARK    4  A    between atoms: _17  and  _19
REMARK    5  A    between atoms: _18  and  _23
REMARK    6  A    between atoms: _19  and  _22
REMARK    7  A    between atoms: _27  and  _37
REMARK    8  A    between atoms: _29  and  _30
REMARK    9  A    between atoms: _31  and  _33
REMARK   10  A    between atoms: _33  and  _35
REMARK   11  A    between atoms: _35  and  _37
REMARK                            x       y       z     vdW  Elec       q    Type
REMARK                         _______ _______ _______ _____ _____    ______ ____
ROOT
ATOM      1  C   UNL     1      30.069  16.015  -0.153  0.00  0.00    +0.400 C 
ATOM      2  N   UNL     1      29.435  14.818  -0.388  0.00  0.00    -0.278 N 
ATOM      3  H   UNL     1      30.200  14.215  -0.827  0.00  0.00    +0.152 HD
ATOM      4  O   UNL     1      31.288  16.064  -0.300  0.00  0.00    -0.226 OA
ENDROOT
BRANCH   1   5
ATOM      5  O   UNL     1      29.301  17.001   0.178  0.00  0.00    -0.450 OA
BRANCH   5   6
ATOM      6  C   UNL     1      28.182  17.696  -0.320  0.00  0.00    +0.240 C 
BRANCH   6   7
ATOM      7  C   UNL     1      28.171  18.043  -1.821  0.00  0.00    +0.100 C 
BRANCH   7   9
ATOM      8  N   UNL     1      27.013  17.306  -3.886  0.00  0.00    -0.134 NA
ATOM      9  C   UNL     1      27.170  17.225  -2.532  0.00  0.00    +0.086 A 
ATOM     10  C   UNL     1      26.281  16.303  -2.032  0.00  0.00    +0.140 A 
ATOM     11  N   UNL     1      25.600  15.832  -3.131  0.00  0.00    -0.218 N 
ATOM     12  N   UNL     1      26.052  16.461  -4.241  0.00  0.00    -0.060 NA
BRANCH  11  13
ATOM     13  C   UNL     1      24.602  14.837  -3.181  0.00  0.00    +0.086 A 
ATOM     14  C   UNL     1      24.561  13.935  -4.233  0.00  0.00    +0.139 A 
ATOM     15  N   UNL     1      23.657  12.925  -4.322  0.00  0.00    -0.253 NA
ATOM     16  C   UNL     1      22.757  12.787  -3.331  0.00  0.00    +0.071 A 
ATOM     17  C   UNL     1      22.713  13.667  -2.230  0.00  0.00    +0.002 A 
ATOM     18  C   UNL     1      21.757  13.490  -1.214  0.00  0.00    +0.010 A 
ATOM     19  C   UNL     1      20.857  12.431  -1.273  0.00  0.00    +0.001 A 
ATOM     20  C   UNL     1      20.901  11.555  -2.350  0.00  0.00    +0.002 A 
ATOM     21  C   UNL     1      21.841  11.744  -3.368  0.00  0.00    +0.028 A 
ATOM     22  C   UNL     1      23.648  14.707  -2.173  0.00  0.00    +0.039 A 
ENDBRANCH  11  13
ENDBRANCH   7   9
ENDBRANCH   6   7
ENDBRANCH   5   6
ENDBRANCH   1   5
BRANCH   2  23
ATOM     23  C   UNL     1      28.218  14.016  -0.296  0.00  0.00    +0.152 C 
BRANCH  23  24
ATOM     24  C   UNL     1      28.039  13.199   1.000  0.00  0.00    +0.193 C 
ATOM     25  O   UNL     1      28.095  14.139   2.095  0.00  0.00    -0.219 OA
BRANCH  24  26
ATOM     26  C   UNL     1      26.699  12.456   1.198  0.00  0.00    +0.212 C 
ATOM     27  O   UNL     1      26.388  11.665   0.039  0.00  0.00    -0.218 OA
BRANCH  26  28
ATOM     28  C   UNL     1      26.685  11.520   2.466  0.00  0.00    +0.171 C 
ATOM     29  O   UNL     1      27.914  10.823   2.646  0.00  0.00    -0.343 OA
ATOM     30  C   UNL     1      28.094   9.760   3.533  0.00  0.00    +0.220 C 
ATOM     31  C   UNL     1      27.011   8.681   3.357  0.00  0.00    +0.076 C 
ATOM     32  C   UNL     1      25.644   9.378   3.451  0.00  0.00    +0.177 C 
ATOM     33  O   UNL     1      24.604   8.416   3.335  0.00  0.00    -0.221 OA
ATOM     34  C   UNL     1      25.525  10.478   2.351  0.00  0.00    +0.155 C 
BRANCH  34  35
ATOM     35  N   UNL     1      24.224  11.138   2.433  0.00  0.00    -0.202 NA
ATOM     36  C   UNL     1      23.157  11.059   1.598  0.00  0.00    +0.242 C 
ATOM     37  C   UNL     1      21.836  11.609   2.071  0.00  0.00    +0.096 C 
ATOM     38  O   UNL     1      23.290  10.545   0.489  0.00  0.00    -0.273 OA
ENDBRANCH  34  35
BRANCH  30  39
ATOM     39  C   UNL     1      28.226  10.225   5.084  0.00  0.00    +0.391 C 
ATOM     40  O   UNL     1      28.042   9.100   5.801  0.00  0.00    -0.243 OA
ATOM     41  O   UNL     1      28.756  11.454   5.057  0.00  0.00    -0.243 OA
ENDBRANCH  30  39
ENDBRANCH  26  28
ENDBRANCH  24  26
ENDBRANCH  23  24
ENDBRANCH   2  23
TORSDOF 11
