REMARK VINA RESULT:    -7.466      1.534      4.381
REMARK INTER + INTRA:         -14.620
REMARK INTER:                 -13.204
REMARK INTRA:                  -1.416
REMARK UNBOUND:                -1.480
REMARK  Name = lig_assembled_58.pdb
REMARK  13 active torsions:
REMARK  status: ('A' for Active; 'I' for Inactive)
REMARK    1  A    between atoms: _2  and  _8
REMARK    2  A    between atoms: _5  and  _6
REMARK    3  A    between atoms: _5  and  _20
REMARK    4  A    between atoms: _8  and  _9
REMARK    5  A    between atoms: _8  and  _15
REMARK    6  A    between atoms: _20  and  _22
REMARK    7  A    between atoms: _21  and  _26
REMARK    8  A    between atoms: _22  and  _25
REMARK    9  A    between atoms: _30  and  _40
REMARK   10  A    between atoms: _32  and  _33
REMARK   11  A    between atoms: _34  and  _36
REMARK   12  A    between atoms: _36  and  _38
REMARK   13  A    between atoms: _38  and  _40
REMARK                            x       y       z     vdW  Elec       q    Type
REMARK                         _______ _______ _______ _____ _____    ______ ____
ROOT
ATOM      1  C   UNL     1      27.643  17.380  -1.429  0.00  0.00    +0.400 C 
ATOM      2  N   UNL     1      28.601  16.729  -0.688  0.00  0.00    -0.278 N 
ATOM      3  H   UNL     1      28.998  17.501  -0.065  0.00  0.00    +0.152 HD
ATOM      4  O   UNL     1      27.350  18.530  -1.115  0.00  0.00    -0.226 OA
ENDROOT
BRANCH   2   5
ATOM      5  C   UNL     1      29.292  15.483  -0.368  0.00  0.00    +0.152 C 
BRANCH   5   6
ATOM      6  C   UNL     1      30.785  15.609   0.002  0.00  0.00    +0.193 C 
ATOM      7  O   UNL     1      30.881  16.663   0.985  0.00  0.00    -0.219 OA
BRANCH   6   8
ATOM      8  C   UNL     1      31.460  14.393   0.673  0.00  0.00    +0.212 C 
ATOM      9  O   UNL     1      30.484  13.389   0.991  0.00  0.00    -0.218 OA
BRANCH   8  10
ATOM     10  C   UNL     1      32.587  13.737  -0.214  0.00  0.00    +0.171 C 
ATOM     11  O   UNL     1      32.078  13.175  -1.418  0.00  0.00    -0.343 OA
ATOM     12  C   UNL     1      32.803  12.329  -2.261  0.00  0.00    +0.220 C 
ATOM     13  C   UNL     1      33.450  11.168  -1.486  0.00  0.00    +0.076 C 
ATOM     14  C   UNL     1      34.259  11.778  -0.329  0.00  0.00    +0.177 C 
ATOM     15  O   UNL     1      34.911  10.748   0.399  0.00  0.00    -0.221 OA
ATOM     16  C   UNL     1      33.325  12.620   0.595  0.00  0.00    +0.155 C 
BRANCH  16  17
ATOM     17  N   UNL     1      34.088  13.196   1.699  0.00  0.00    -0.202 NA
ATOM     18  C   UNL     1      33.957  13.006   3.037  0.00  0.00    +0.242 C 
ATOM     19  C   UNL     1      35.061  13.490   3.940  0.00  0.00    +0.096 C 
ATOM     20  O   UNL     1      32.953  12.449   3.476  0.00  0.00    -0.273 OA
ENDBRANCH  16  17
BRANCH  12  21
ATOM     21  C   UNL     1      33.890  13.110  -3.182  0.00  0.00    +0.391 C 
ATOM     22  O   UNL     1      34.708  12.146  -3.647  0.00  0.00    -0.243 OA
ATOM     23  O   UNL     1      33.396  14.339  -3.375  0.00  0.00    -0.243 OA
ENDBRANCH  12  21
ENDBRANCH   8  10
ENDBRANCH   6   8
ENDBRANCH   5   6
ENDBRANCH   2   5
BRANCH   1  24
ATOM     24  O   UNL     1      27.157  16.713  -2.424  0.00  0.00    -0.450 OA
BRANCH  24  25
ATOM     25  C   UNL     1      26.182  16.856  -3.431  0.00  0.00    +0.240 C 
BRANCH  25  26
ATOM     26  C   UNL     1      25.845  15.613  -4.276  0.00  0.00    +0.100 C 
BRANCH  26  28
ATOM     27  N   UNL     1      23.868  14.168  -4.700  0.00  0.00    -0.134 NA
ATOM     28  C   UNL     1      24.493  15.124  -3.947  0.00  0.00    +0.086 A 
ATOM     29  C   UNL     1      23.676  15.468  -2.894  0.00  0.00    +0.134 A 
ATOM     30  N   UNL     1      22.639  14.579  -2.968  0.00  0.00    -0.240 N 
ATOM     31  N   UNL     1      22.723  13.853  -4.105  0.00  0.00    -0.065 NA
BRANCH  30  32
ATOM     32  C   UNL     1      21.555  14.324  -2.001  0.00  0.00    +0.169 C 
BRANCH  32  33
ATOM     33  C   UNL     1      21.925  13.255  -0.962  0.00  0.00    -0.019 A 
ATOM     34  C   UNL     1      23.230  12.733  -0.889  0.00  0.00    +0.006 A 
ATOM     35  C   UNL     1      23.561  11.758   0.057  0.00  0.00    +0.000 A 
ATOM     36  C   UNL     1      22.604  11.306   0.961  0.00  0.00    +0.000 A 
ATOM     37  C   UNL     1      21.326  11.847   0.942  0.00  0.00    +0.000 A 
ATOM     38  C   UNL     1      20.995  12.824   0.004  0.00  0.00    +0.006 A 
ENDBRANCH  32  33
BRANCH  32  39
ATOM     39  C   UNL     1      20.237  14.070  -2.746  0.00  0.00    -0.019 A 
ATOM     40  C   UNL     1      19.830  12.756  -3.035  0.00  0.00    +0.006 A 
ATOM     41  C   UNL     1      18.662  12.517  -3.764  0.00  0.00    +0.000 A 
ATOM     42  C   UNL     1      17.875  13.580  -4.201  0.00  0.00    +0.000 A 
ATOM     43  C   UNL     1      18.261  14.886  -3.928  0.00  0.00    +0.000 A 
ATOM     44  C   UNL     1      19.436  15.129  -3.218  0.00  0.00    +0.006 A 
ENDBRANCH  32  39
ENDBRANCH  30  32
ENDBRANCH  26  28
ENDBRANCH  25  26
ENDBRANCH  24  25
ENDBRANCH   1  24
TORSDOF 13
