REMARK VINA RESULT:    -6.534      2.767      5.315
REMARK INTER + INTRA:         -12.121
REMARK INTER:                 -10.457
REMARK INTRA:                  -1.663
REMARK UNBOUND:                -1.385
REMARK  Name = lig_assembled_56.pdb
REMARK  11 active torsions:
REMARK  status: ('A' for Active; 'I' for Inactive)
REMARK    1  A    between atoms: _2  and  _9
REMARK    2  A    between atoms: _6  and  _7
REMARK    3  A    between atoms: _6  and  _13
REMARK    4  A    between atoms: _13  and  _15
REMARK    5  A    between atoms: _14  and  _19
REMARK    6  A    between atoms: _15  and  _18
REMARK    7  A    between atoms: _23  and  _33
REMARK    8  A    between atoms: _25  and  _26
REMARK    9  A    between atoms: _27  and  _29
REMARK   10  A    between atoms: _29  and  _31
REMARK   11  A    between atoms: _31  and  _33
REMARK                            x       y       z     vdW  Elec       q    Type
REMARK                         _______ _______ _______ _____ _____    ______ ____
ROOT
ATOM      1  C   UNL     1      25.874  11.583   0.880  0.00  0.00    +0.152 C 
ENDROOT
BRANCH   1   3
ATOM      2  C   UNL     1      23.884   9.722   1.031  0.00  0.00    +0.400 C 
ATOM      3  N   UNL     1      25.085  10.383   1.144  0.00  0.00    -0.278 N 
ATOM      4  H   UNL     1      25.710   9.675   1.645  0.00  0.00    +0.152 HD
ATOM      5  O   UNL     1      23.849   8.529   1.322  0.00  0.00    -0.226 OA
BRANCH   2   6
ATOM      6  O   UNL     1      22.881  10.445   0.652  0.00  0.00    -0.450 OA
BRANCH   6   7
ATOM      7  C   UNL     1      22.362  11.739   0.851  0.00  0.00    +0.240 C 
BRANCH   7   8
ATOM      8  C   UNL     1      21.235  12.205  -0.092  0.00  0.00    +0.100 C 
BRANCH   8  10
ATOM      9  N   UNL     1      20.995  14.149  -1.602  0.00  0.00    -0.134 NA
ATOM     10  C   UNL     1      21.766  13.141  -1.101  0.00  0.00    +0.086 A 
ATOM     11  C   UNL     1      23.012  13.195  -1.684  0.00  0.00    +0.139 A 
ATOM     12  N   UNL     1      22.960  14.276  -2.532  0.00  0.00    -0.220 N 
ATOM     13  N   UNL     1      21.726  14.832  -2.474  0.00  0.00    -0.061 NA
BRANCH  12  14
ATOM     14  C   UNL     1      23.981  14.804  -3.361  0.00  0.00    +0.070 A 
ATOM     15  C   UNL     1      24.209  14.291  -4.640  0.00  0.00    +0.047 A 
ATOM     16  C   UNL     1      25.234  14.844  -5.390  0.00  0.00    +0.113 A 
ATOM     17  N   UNL     1      26.024  15.848  -4.958  0.00  0.00    -0.263 NA
ATOM     18  C   UNL     1      25.782  16.328  -3.720  0.00  0.00    +0.113 A 
ATOM     19  C   UNL     1      24.784  15.847  -2.890  0.00  0.00    +0.047 A 
ENDBRANCH  12  14
ENDBRANCH   8  10
ENDBRANCH   7   8
ENDBRANCH   6   7
ENDBRANCH   2   6
ENDBRANCH   1   3
BRANCH   1  20
ATOM     20  C   UNL     1      27.144  11.763   1.738  0.00  0.00    +0.193 C 
ATOM     21  O   UNL     1      28.235  11.182   0.991  0.00  0.00    -0.219 OA
BRANCH  20  22
ATOM     22  C   UNL     1      27.606  13.207   2.036  0.00  0.00    +0.212 C 
ATOM     23  O   UNL     1      27.538  13.474   3.446  0.00  0.00    -0.218 OA
BRANCH  22  24
ATOM     24  C   UNL     1      29.070  13.509   1.535  0.00  0.00    +0.171 C 
ATOM     25  O   UNL     1      29.981  13.728   2.608  0.00  0.00    -0.343 OA
ATOM     26  C   UNL     1      31.268  14.249   2.454  0.00  0.00    +0.220 C 
ATOM     27  C   UNL     1      31.264  15.544   1.624  0.00  0.00    +0.076 C 
ATOM     28  C   UNL     1      30.525  15.248   0.309  0.00  0.00    +0.177 C 
ATOM     29  O   UNL     1      30.527  16.405  -0.516  0.00  0.00    -0.221 OA
ATOM     30  C   UNL     1      29.070  14.767   0.606  0.00  0.00    +0.155 C 
BRANCH  30  31
ATOM     31  N   UNL     1      28.362  14.492  -0.641  0.00  0.00    -0.202 NA
ATOM     32  C   UNL     1      28.614  13.559  -1.595  0.00  0.00    +0.242 C 
ATOM     33  C   UNL     1      27.557  13.295  -2.635  0.00  0.00    +0.096 C 
ATOM     34  O   UNL     1      29.686  12.957  -1.587  0.00  0.00    -0.273 OA
ENDBRANCH  30  31
BRANCH  26  35
ATOM     35  C   UNL     1      32.337  13.171   1.875  0.00  0.00    +0.391 C 
ATOM     36  O   UNL     1      33.434  13.895   1.580  0.00  0.00    -0.243 OA
ATOM     37  O   UNL     1      31.850  11.964   2.186  0.00  0.00    -0.243 OA
ENDBRANCH  26  35
ENDBRANCH  22  24
ENDBRANCH  20  22
ENDBRANCH   1  20
TORSDOF 11
