REMARK VINA RESULT:    -6.611      2.511      6.582
REMARK INTER + INTRA:         -14.662
REMARK INTER:                 -11.039
REMARK INTRA:                  -3.623
REMARK UNBOUND:                -1.675
REMARK  Name = lig_assembled_33.pdb
REMARK  17 active torsions:
REMARK  status: ('A' for Active; 'I' for Inactive)
REMARK    1  A    between atoms: _2  and  _8
REMARK    2  A    between atoms: _4  and  _12
REMARK    3  A    between atoms: _4  and  _13
REMARK    4  A    between atoms: _5  and  _6
REMARK    5  A    between atoms: _5  and  _15
REMARK    6  A    between atoms: _8  and  _9
REMARK    7  A    between atoms: _9  and  _10
REMARK    8  A    between atoms: _10  and  _11
REMARK    9  A    between atoms: _11  and  _12
REMARK   10  A    between atoms: _15  and  _17
REMARK   11  A    between atoms: _16  and  _21
REMARK   12  A    between atoms: _17  and  _20
REMARK   13  A    between atoms: _25  and  _35
REMARK   14  A    between atoms: _27  and  _28
REMARK   15  A    between atoms: _29  and  _31
REMARK   16  A    between atoms: _31  and  _33
REMARK   17  A    between atoms: _33  and  _35
REMARK                            x       y       z     vdW  Elec       q    Type
REMARK                         _______ _______ _______ _____ _____    ______ ____
ROOT
ATOM      1  C   UNL     1      25.557  15.982  -3.763  0.00  0.00    +0.400 C 
ATOM      2  N   UNL     1      24.449  15.253  -3.398  0.00  0.00    -0.278 N 
ATOM      3  H   UNL     1      24.079  14.883  -4.330  0.00  0.00    +0.152 HD
ATOM      4  O   UNL     1      25.947  15.900  -4.925  0.00  0.00    -0.226 OA
ENDROOT
BRANCH   1   5
ATOM      5  O   UNL     1      26.070  16.722  -2.836  0.00  0.00    -0.450 OA
BRANCH   5   6
ATOM      6  C   UNL     1      27.174  17.574  -2.638  0.00  0.00    +0.240 C 
BRANCH   6   7
ATOM      7  C   UNL     1      27.638  17.811  -1.188  0.00  0.00    +0.100 C 
BRANCH   7   9
ATOM      8  N   UNL     1      28.526  15.502  -1.200  0.00  0.00    -0.134 NA
ATOM      9  C   UNL     1      28.646  16.807  -0.800  0.00  0.00    +0.086 A 
ATOM     10  C   UNL     1      29.787  16.941  -0.040  0.00  0.00    +0.133 A 
ATOM     11  N   UNL     1      30.317  15.687  -0.022  0.00  0.00    -0.251 N 
ATOM     12  N   UNL     1      29.548  14.821  -0.704  0.00  0.00    -0.065 NA
BRANCH  11  13
ATOM     13  C   UNL     1      31.531  15.235   0.627  0.00  0.00    +0.145 C 
BRANCH  13  14
ATOM     14  C   UNL     1      31.372  15.150   2.145  0.00  0.00    +0.023 C 
BRANCH  14  15
ATOM     15  C   UNL     1      31.593  13.734   2.681  0.00  0.00    +0.002 C 
BRANCH  15  16
ATOM     16  C   UNL     1      30.310  13.221   3.343  0.00  0.00    +0.011 C 
BRANCH  16  17
ATOM     17  C   UNL     1      29.342  12.589   2.347  0.00  0.00    +0.120 C 
BRANCH  17  18
ATOM     18  C   UNL     1      27.982  13.247   2.412  0.00  0.00    +0.305 C 
ATOM     19  O   UNL     1      27.257  13.278   3.394  0.00  0.00    -0.251 OA
BRANCH  18  20
ATOM     20  O   UNL     1      27.631  13.824   1.239  0.00  0.00    -0.481 OA
ATOM     21  H   UNL     1      27.320  13.192   0.566  0.00  0.00    +0.295 HD
ENDBRANCH  18  20
ENDBRANCH  17  18
ENDBRANCH  16  17
ENDBRANCH  15  16
ENDBRANCH  14  15
ENDBRANCH  13  14
ENDBRANCH  11  13
ENDBRANCH   7   9
ENDBRANCH   6   7
ENDBRANCH   5   6
ENDBRANCH   1   5
BRANCH   2  22
ATOM     22  C   UNL     1      23.582  14.757  -2.333  0.00  0.00    +0.152 C 
BRANCH  22  23
ATOM     23  C   UNL     1      23.503  13.224  -2.179  0.00  0.00    +0.193 C 
ATOM     24  O   UNL     1      23.324  12.682  -3.506  0.00  0.00    -0.219 OA
BRANCH  23  25
ATOM     25  C   UNL     1      24.750  12.496  -1.631  0.00  0.00    +0.212 C 
ATOM     26  O   UNL     1      25.704  13.444  -1.125  0.00  0.00    -0.218 OA
BRANCH  25  27
ATOM     27  C   UNL     1      24.417  11.459  -0.491  0.00  0.00    +0.171 C 
ATOM     28  O   UNL     1      23.484  11.968   0.456  0.00  0.00    -0.343 OA
ATOM     29  C   UNL     1      23.200  11.366   1.684  0.00  0.00    +0.220 C 
ATOM     30  C   UNL     1      24.482  11.048   2.474  0.00  0.00    +0.076 C 
ATOM     31  C   UNL     1      25.403  10.233   1.551  0.00  0.00    +0.177 C 
ATOM     32  O   UNL     1      26.589   9.878   2.247  0.00  0.00    -0.221 OA
ATOM     33  C   UNL     1      25.726  11.047   0.259  0.00  0.00    +0.155 C 
BRANCH  33  34
ATOM     34  N   UNL     1      26.606  10.278  -0.617  0.00  0.00    -0.202 NA
ATOM     35  C   UNL     1      27.880  10.537  -1.010  0.00  0.00    +0.242 C 
ATOM     36  C   UNL     1      28.660   9.434  -1.678  0.00  0.00    +0.096 C 
ATOM     37  O   UNL     1      28.362  11.650  -0.814  0.00  0.00    -0.273 OA
ENDBRANCH  33  34
BRANCH  29  38
ATOM     38  C   UNL     1      22.237  10.064   1.559  0.00  0.00    +0.391 C 
ATOM     39  O   UNL     1      21.889   9.766   2.826  0.00  0.00    -0.243 OA
ATOM     40  O   UNL     1      21.914   9.965   0.264  0.00  0.00    -0.243 OA
ENDBRANCH  29  38
ENDBRANCH  25  27
ENDBRANCH  23  25
ENDBRANCH  22  23
ENDBRANCH   2  22
TORSDOF 17
