REMARK VINA RESULT:    -7.178      2.679      4.957
REMARK INTER + INTRA:         -13.759
REMARK INTER:                 -12.530
REMARK INTRA:                  -1.228
REMARK UNBOUND:                -1.544
REMARK  Name = lig_assembled_69.pdb
REMARK  13 active torsions:
REMARK  status: ('A' for Active; 'I' for Inactive)
REMARK    1  A    between atoms: _2  and  _8
REMARK    2  A    between atoms: _5  and  _6
REMARK    3  A    between atoms: _5  and  _16
REMARK    4  A    between atoms: _10  and  _15
REMARK    5  A    between atoms: _13  and  _14
REMARK    6  A    between atoms: _16  and  _18
REMARK    7  A    between atoms: _17  and  _22
REMARK    8  A    between atoms: _18  and  _21
REMARK    9  A    between atoms: _26  and  _36
REMARK   10  A    between atoms: _28  and  _29
REMARK   11  A    between atoms: _30  and  _32
REMARK   12  A    between atoms: _32  and  _34
REMARK   13  A    between atoms: _34  and  _36
REMARK                            x       y       z     vdW  Elec       q    Type
REMARK                         _______ _______ _______ _____ _____    ______ ____
ROOT
ATOM      1  C   UNL     1      27.594  17.358  -1.418  0.00  0.00    +0.400 C 
ATOM      2  N   UNL     1      26.547  16.811  -2.122  0.00  0.00    -0.278 N 
ATOM      3  H   UNL     1      25.757  17.516  -1.977  0.00  0.00    +0.152 HD
ATOM      4  O   UNL     1      27.469  18.501  -0.988  0.00  0.00    -0.226 OA
ENDROOT
BRANCH   1   5
ATOM      5  O   UNL     1      28.618  16.587  -1.249  0.00  0.00    -0.450 OA
BRANCH   5   6
ATOM      6  C   UNL     1      29.515  16.210  -0.230  0.00  0.00    +0.240 C 
BRANCH   6   7
ATOM      7  C   UNL     1      29.787  14.705  -0.042  0.00  0.00    +0.100 C 
BRANCH   7   9
ATOM      8  N   UNL     1      32.173  14.154   0.283  0.00  0.00    -0.134 NA
ATOM      9  C   UNL     1      30.964  14.500   0.821  0.00  0.00    +0.086 A 
ATOM     10  C   UNL     1      31.088  14.590   2.190  0.00  0.00    +0.134 A 
ATOM     11  N   UNL     1      32.394  14.274   2.422  0.00  0.00    -0.248 N 
ATOM     12  N   UNL     1      33.041  14.012   1.273  0.00  0.00    -0.065 NA
BRANCH  11  13
ATOM     13  C   UNL     1      33.076  14.151   3.709  0.00  0.00    +0.114 C 
ATOM     14  C   UNL     1      34.576  14.441   3.581  0.00  0.00    +0.062 C 
ATOM     15  C   UNL     1      35.457  13.267   3.146  0.00  0.00    +0.139 C 
ATOM     16  C   UNL     1      35.647  12.165   4.149  0.00  0.00    +0.002 C 
ATOM     17  C   UNL     1      34.878  11.848   5.203  0.00  0.00    +0.002 C 
ATOM     18  C   UNL     1      33.545  12.422   5.573  0.00  0.00    +0.139 C 
ATOM     19  C   UNL     1      32.681  12.830   4.385  0.00  0.00    +0.062 C 
BRANCH  18  20
ATOM     20  O   UNL     1      33.734  13.522   6.449  0.00  0.00    -0.388 OA
ATOM     21  H   UNL     1      34.198  13.189   7.237  0.00  0.00    +0.210 HD
ENDBRANCH  18  20
BRANCH  15  22
ATOM     22  O   UNL     1      36.768  13.795   2.906  0.00  0.00    -0.388 OA
ATOM     23  H   UNL     1      37.403  13.206   3.347  0.00  0.00    +0.210 HD
ENDBRANCH  15  22
ENDBRANCH  11  13
ENDBRANCH   7   9
ENDBRANCH   6   7
ENDBRANCH   5   6
ENDBRANCH   1   5
BRANCH   2  24
ATOM     24  C   UNL     1      26.046  15.732  -2.969  0.00  0.00    +0.152 C 
BRANCH  24  25
ATOM     25  C   UNL     1      24.824  14.958  -2.434  0.00  0.00    +0.193 C 
ATOM     26  O   UNL     1      23.741  15.202  -3.357  0.00  0.00    -0.219 OA
BRANCH  25  27
ATOM     27  C   UNL     1      24.929  13.419  -2.360  0.00  0.00    +0.212 C 
ATOM     28  O   UNL     1      26.170  12.972  -2.930  0.00  0.00    -0.218 OA
BRANCH  27  29
ATOM     29  C   UNL     1      24.816  12.854  -0.893  0.00  0.00    +0.171 C 
ATOM     30  O   UNL     1      25.899  11.995  -0.552  0.00  0.00    -0.343 OA
ATOM     31  C   UNL     1      25.928  11.175   0.579  0.00  0.00    +0.220 C 
ATOM     32  C   UNL     1      24.652  10.325   0.701  0.00  0.00    +0.076 C 
ATOM     33  C   UNL     1      23.450  11.281   0.626  0.00  0.00    +0.177 C 
ATOM     34  O   UNL     1      22.242  10.549   0.774  0.00  0.00    -0.221 OA
ATOM     35  C   UNL     1      23.474  12.070  -0.720  0.00  0.00    +0.155 C 
BRANCH  35  36
ATOM     36  N   UNL     1      22.330  12.975  -0.798  0.00  0.00    -0.202 NA
ATOM     37  C   UNL     1      21.323  13.025  -1.708  0.00  0.00    +0.242 C 
ATOM     38  C   UNL     1      20.113  13.864  -1.390  0.00  0.00    +0.096 C 
ATOM     39  O   UNL     1      21.420  12.391  -2.756  0.00  0.00    -0.273 OA
ENDBRANCH  35  36
BRANCH  31  40
ATOM     40  C   UNL     1      26.243  11.981   1.954  0.00  0.00    +0.391 C 
ATOM     41  O   UNL     1      25.716  11.218   2.932  0.00  0.00    -0.243 OA
ATOM     42  O   UNL     1      27.146  12.916   1.637  0.00  0.00    -0.243 OA
ENDBRANCH  31  40
ENDBRANCH  27  29
ENDBRANCH  25  27
ENDBRANCH  24  25
ENDBRANCH   2  24
TORSDOF 13
