REMARK VINA RESULT:    -7.155      1.611      3.361
REMARK INTER + INTRA:         -14.319
REMARK INTER:                 -12.666
REMARK INTRA:                  -1.653
REMARK UNBOUND:                -2.144
REMARK  Name = lig_assembled_63.pdb
REMARK  12 active torsions:
REMARK  status: ('A' for Active; 'I' for Inactive)
REMARK    1  A    between atoms: _2  and  _10
REMARK    2  A    between atoms: _6  and  _14
REMARK    3  A    between atoms: _7  and  _8
REMARK    4  A    between atoms: _7  and  _15
REMARK    5  A    between atoms: _15  and  _17
REMARK    6  A    between atoms: _16  and  _21
REMARK    7  A    between atoms: _17  and  _20
REMARK    8  A    between atoms: _25  and  _35
REMARK    9  A    between atoms: _27  and  _28
REMARK   10  A    between atoms: _29  and  _31
REMARK   11  A    between atoms: _31  and  _33
REMARK   12  A    between atoms: _33  and  _35
REMARK                            x       y       z     vdW  Elec       q    Type
REMARK                         _______ _______ _______ _____ _____    ______ ____
ROOT
ATOM      1  C   UNL     1      28.736  17.052  -0.552  0.00  0.00    +0.400 C 
ATOM      2  N   UNL     1      28.792  15.900   0.195  0.00  0.00    -0.278 N 
ATOM      3  H   UNL     1      29.462  16.151   0.989  0.00  0.00    +0.152 HD
ATOM      4  O   UNL     1      29.255  18.066  -0.092  0.00  0.00    -0.226 OA
ENDROOT
BRANCH   2   5
ATOM      5  C   UNL     1      28.345  14.523   0.395  0.00  0.00    +0.152 C 
BRANCH   5   6
ATOM      6  C   UNL     1      28.576  13.931   1.800  0.00  0.00    +0.193 C 
ATOM      7  O   UNL     1      27.349  13.268   2.178  0.00  0.00    -0.219 OA
BRANCH   6   8
ATOM      8  C   UNL     1      29.663  12.843   1.948  0.00  0.00    +0.212 C 
ATOM      9  O   UNL     1      29.279  11.651   1.243  0.00  0.00    -0.218 OA
BRANCH   8  10
ATOM     10  C   UNL     1      31.079  13.302   1.429  0.00  0.00    +0.171 C 
ATOM     11  O   UNL     1      31.215  13.166   0.018  0.00  0.00    -0.343 OA
ATOM     12  C   UNL     1      32.427  13.265  -0.670  0.00  0.00    +0.220 C 
ATOM     13  C   UNL     1      33.512  12.370  -0.046  0.00  0.00    +0.076 C 
ATOM     14  C   UNL     1      33.588  12.710   1.452  0.00  0.00    +0.177 C 
ATOM     15  O   UNL     1      34.606  11.936   2.070  0.00  0.00    -0.221 OA
ATOM     16  C   UNL     1      32.203  12.469   2.128  0.00  0.00    +0.155 C 
BRANCH  16  17
ATOM     17  N   UNL     1      32.273  12.784   3.553  0.00  0.00    -0.202 NA
ATOM     18  C   UNL     1      31.992  12.006   4.629  0.00  0.00    +0.242 C 
ATOM     19  C   UNL     1      32.430  12.481   5.989  0.00  0.00    +0.096 C 
ATOM     20  O   UNL     1      31.395  10.943   4.470  0.00  0.00    -0.273 OA
ENDBRANCH  16  17
BRANCH  12  21
ATOM     21  C   UNL     1      32.946  14.795  -0.849  0.00  0.00    +0.391 C 
ATOM     22  O   UNL     1      34.233  14.682  -1.232  0.00  0.00    -0.243 OA
ATOM     23  O   UNL     1      31.848  15.560  -0.847  0.00  0.00    -0.243 OA
ENDBRANCH  12  21
ENDBRANCH   8  10
ENDBRANCH   6   8
ENDBRANCH   5   6
ENDBRANCH   2   5
BRANCH   1  24
ATOM     24  O   UNL     1      28.158  16.946  -1.703  0.00  0.00    -0.450 OA
BRANCH  24  25
ATOM     25  C   UNL     1      27.074  17.503  -2.409  0.00  0.00    +0.240 C 
BRANCH  25  26
ATOM     26  C   UNL     1      26.716  16.877  -3.771  0.00  0.00    +0.100 C 
BRANCH  26  28
ATOM     27  N   UNL     1      25.119  15.233  -4.696  0.00  0.00    -0.134 NA
ATOM     28  C   UNL     1      25.612  15.911  -3.619  0.00  0.00    +0.087 A 
ATOM     29  C   UNL     1      24.909  15.538  -2.498  0.00  0.00    +0.141 A 
ATOM     30  N   UNL     1      23.958  14.646  -2.953  0.00  0.00    -0.201 N 
ATOM     31  N   UNL     1      24.122  14.464  -4.281  0.00  0.00    -0.059 NA
BRANCH  30  32
ATOM     32  C   UNL     1      22.919  14.047  -2.180  0.00  0.00    +0.173 A 
ATOM     33  C   UNL     1      21.606  14.525  -2.195  0.00  0.00    +0.096 A 
ATOM     34  C   UNL     1      20.686  13.922  -1.322  0.00  0.00    +0.024 A 
ATOM     35  C   UNL     1      21.074  12.871  -0.498  0.00  0.00    +0.021 A 
ATOM     36  C   UNL     1      22.381  12.436  -0.575  0.00  0.00    +0.113 A 
ATOM     37  N   UNL     1      23.304  12.996  -1.386  0.00  0.00    -0.235 NA
BRANCH  33  38
ATOM     38  C   UNL     1      21.109  15.569  -3.041  0.00  0.00    +0.103 C 
ATOM     39  N   UNL     1      20.777  16.385  -3.798  0.00  0.00    -0.191 NA
ENDBRANCH  33  38
ENDBRANCH  30  32
ENDBRANCH  26  28
ENDBRANCH  25  26
ENDBRANCH  24  25
ENDBRANCH   1  24
TORSDOF 12
