REMARK VINA RESULT:    -7.003      3.714      8.612
REMARK INTER + INTRA:         -13.591
REMARK INTER:                 -11.421
REMARK INTRA:                  -2.170
REMARK UNBOUND:                -2.085
REMARK  Name = lig_assembled_51.pdb
REMARK  11 active torsions:
REMARK  status: ('A' for Active; 'I' for Inactive)
REMARK    1  A    between atoms: _2  and  _8
REMARK    2  A    between atoms: _5  and  _6
REMARK    3  A    between atoms: _5  and  _17
REMARK    4  A    between atoms: _17  and  _19
REMARK    5  A    between atoms: _18  and  _23
REMARK    6  A    between atoms: _19  and  _22
REMARK    7  A    between atoms: _27  and  _37
REMARK    8  A    between atoms: _29  and  _30
REMARK    9  A    between atoms: _31  and  _33
REMARK   10  A    between atoms: _33  and  _35
REMARK   11  A    between atoms: _35  and  _37
REMARK                            x       y       z     vdW  Elec       q    Type
REMARK                         _______ _______ _______ _____ _____    ______ ____
ROOT
ATOM      1  C   UNL     1      25.785  15.480  -4.986  0.00  0.00    +0.400 C 
ATOM      2  N   UNL     1      24.545  14.932  -5.214  0.00  0.00    -0.278 N 
ATOM      3  H   UNL     1      24.658  14.451  -6.162  0.00  0.00    +0.152 HD
ATOM      4  O   UNL     1      26.704  15.169  -5.739  0.00  0.00    -0.226 OA
ENDROOT
BRANCH   1   5
ATOM      5  O   UNL     1      25.857  16.311  -3.998  0.00  0.00    -0.450 OA
BRANCH   5   6
ATOM      6  C   UNL     1      26.244  16.330  -2.644  0.00  0.00    +0.240 C 
BRANCH   6   7
ATOM      7  C   UNL     1      27.177  17.467  -2.187  0.00  0.00    +0.100 C 
BRANCH   7   9
ATOM      8  N   UNL     1      29.257  17.743  -0.873  0.00  0.00    -0.134 NA
ATOM      9  C   UNL     1      28.244  16.939  -1.319  0.00  0.00    +0.086 A 
ATOM     10  C   UNL     1      28.432  15.668  -0.827  0.00  0.00    +0.134 A 
ATOM     11  N   UNL     1      29.582  15.756  -0.091  0.00  0.00    -0.245 N 
ATOM     12  N   UNL     1      30.069  17.010  -0.124  0.00  0.00    -0.065 NA
BRANCH  11  13
ATOM     13  C   UNL     1      30.256  14.686   0.650  0.00  0.00    +0.066 C 
ATOM     14  C   UNL     1      29.210  13.790   1.364  0.00  0.00    +0.034 C 
ATOM     15  C   UNL     1      29.895  12.633   2.110  0.00  0.00    -0.008 C 
ATOM     16  C   UNL     1      30.693  11.786   1.106  0.00  0.00    +0.007 C 
ATOM     17  C   UNL     1      31.767  12.649   0.421  0.00  0.00    -0.008 C 
ATOM     18  C   UNL     1      32.713  13.222   1.487  0.00  0.00    +0.007 C 
ATOM     19  C   UNL     1      31.921  14.077   2.488  0.00  0.00    -0.008 C 
ATOM     20  C   UNL     1      30.853  13.205   3.166  0.00  0.00    +0.007 C 
ATOM     21  C   UNL     1      31.083  13.806  -0.327  0.00  0.00    +0.034 C 
ATOM     22  C   UNL     1      31.232  15.230   1.736  0.00  0.00    +0.034 C 
ENDBRANCH  11  13
ENDBRANCH   7   9
ENDBRANCH   6   7
ENDBRANCH   5   6
ENDBRANCH   1   5
BRANCH   2  23
ATOM     23  C   UNL     1      23.179  14.706  -4.748  0.00  0.00    +0.152 C 
BRANCH  23  24
ATOM     24  C   UNL     1      22.985  13.545  -3.752  0.00  0.00    +0.193 C 
ATOM     25  O   UNL     1      23.894  12.497  -4.153  0.00  0.00    -0.219 OA
BRANCH  24  26
ATOM     26  C   UNL     1      23.332  13.808  -2.270  0.00  0.00    +0.212 C 
ATOM     27  O   UNL     1      22.240  14.469  -1.609  0.00  0.00    -0.218 OA
BRANCH  26  28
ATOM     28  C   UNL     1      23.687  12.498  -1.469  0.00  0.00    +0.171 C 
ATOM     29  O   UNL     1      22.594  12.015  -0.695  0.00  0.00    -0.343 OA
ATOM     30  C   UNL     1      22.698  11.027   0.286  0.00  0.00    +0.220 C 
ATOM     31  C   UNL     1      23.829  11.331   1.285  0.00  0.00    +0.076 C 
ATOM     32  C   UNL     1      25.111  11.574   0.472  0.00  0.00    +0.177 C 
ATOM     33  O   UNL     1      26.199  11.822   1.351  0.00  0.00    -0.221 OA
ATOM     34  C   UNL     1      24.902  12.761  -0.520  0.00  0.00    +0.155 C 
BRANCH  34  35
ATOM     35  N   UNL     1      26.120  13.000  -1.289  0.00  0.00    -0.202 NA
ATOM     36  C   UNL     1      26.731  12.215  -2.213  0.00  0.00    +0.242 C 
ATOM     37  C   UNL     1      27.809  12.825  -3.070  0.00  0.00    +0.096 C 
ATOM     38  O   UNL     1      26.394  11.038  -2.329  0.00  0.00    -0.273 OA
ENDBRANCH  34  35
BRANCH  30  39
ATOM     39  C   UNL     1      22.825   9.525  -0.319  0.00  0.00    +0.391 C 
ATOM     40  O   UNL     1      23.360   8.792   0.677  0.00  0.00    -0.243 OA
ATOM     41  O   UNL     1      22.089   9.514  -1.438  0.00  0.00    -0.243 OA
ENDBRANCH  30  39
ENDBRANCH  26  28
ENDBRANCH  24  26
ENDBRANCH  23  24
ENDBRANCH   2  23
TORSDOF 11
