REMARK VINA RESULT:    -7.286      1.848      2.529
REMARK INTER + INTRA:         -13.745
REMARK INTER:                 -11.899
REMARK INTRA:                  -1.846
REMARK UNBOUND:                -1.775
REMARK  Name = lig_assembled_42.pdb
REMARK  11 active torsions:
REMARK  status: ('A' for Active; 'I' for Inactive)
REMARK    1  A    between atoms: _2  and  _8
REMARK    2  A    between atoms: _5  and  _6
REMARK    3  A    between atoms: _5  and  _16
REMARK    4  A    between atoms: _16  and  _18
REMARK    5  A    between atoms: _17  and  _22
REMARK    6  A    between atoms: _18  and  _21
REMARK    7  A    between atoms: _26  and  _36
REMARK    8  A    between atoms: _28  and  _29
REMARK    9  A    between atoms: _30  and  _32
REMARK   10  A    between atoms: _32  and  _34
REMARK   11  A    between atoms: _34  and  _36
REMARK                            x       y       z     vdW  Elec       q    Type
REMARK                         _______ _______ _______ _____ _____    ______ ____
ROOT
ATOM      1  C   UNL     1      26.319  16.944  -3.360  0.00  0.00    +0.400 C 
ATOM      2  N   UNL     1      26.972  16.921  -2.150  0.00  0.00    -0.278 N 
ATOM      3  H   UNL     1      26.594  17.786  -1.648  0.00  0.00    +0.152 HD
ATOM      4  O   UNL     1      25.403  17.748  -3.508  0.00  0.00    -0.226 OA
ENDROOT
BRANCH   1   5
ATOM      5  O   UNL     1      26.762  16.119  -4.251  0.00  0.00    -0.450 OA
BRANCH   5   6
ATOM      6  C   UNL     1      26.511  14.814  -4.717  0.00  0.00    +0.240 C 
BRANCH   6   7
ATOM      7  C   UNL     1      25.078  14.487  -5.178  0.00  0.00    +0.100 C 
BRANCH   7   9
ATOM      8  N   UNL     1      23.149  15.098  -3.743  0.00  0.00    -0.134 NA
ATOM      9  C   UNL     1      24.198  14.268  -4.016  0.00  0.00    +0.086 A 
ATOM     10  C   UNL     1      24.249  13.283  -3.060  0.00  0.00    +0.139 A 
ATOM     11  N   UNL     1      23.200  13.549  -2.213  0.00  0.00    -0.220 N 
ATOM     12  N   UNL     1      22.546  14.654  -2.646  0.00  0.00    -0.061 NA
BRANCH  11  13
ATOM     13  C   UNL     1      22.805  12.834  -1.052  0.00  0.00    +0.071 A 
ATOM     14  C   UNL     1      23.755  12.108  -0.318  0.00  0.00    +0.077 A 
ATOM     15  C   UNL     1      23.321  11.430   0.801  0.00  0.00    +0.168 A 
ATOM     16  O   UNL     1      24.110  10.687   1.621  0.00  0.00    -0.453 OA
ATOM     17  C   UNL     1      23.143  10.242   2.593  0.00  0.00    +0.466 C 
ATOM     18  O   UNL     1      21.806  10.718   2.332  0.00  0.00    -0.453 OA
ATOM     19  C   UNL     1      22.008  11.451   1.204  0.00  0.00    +0.166 A 
ATOM     20  C   UNL     1      21.048  12.151   0.507  0.00  0.00    +0.051 A 
ATOM     21  C   UNL     1      21.453  12.853  -0.637  0.00  0.00    +0.031 A 
ENDBRANCH  11  13
ENDBRANCH   7   9
ENDBRANCH   6   7
ENDBRANCH   5   6
ENDBRANCH   1   5
BRANCH   2  22
ATOM     22  C   UNL     1      27.918  16.254  -1.259  0.00  0.00    +0.152 C 
BRANCH  22  23
ATOM     23  C   UNL     1      29.159  17.074  -0.848  0.00  0.00    +0.193 C 
ATOM     24  O   UNL     1      28.742  17.949   0.224  0.00  0.00    -0.219 OA
BRANCH  23  25
ATOM     25  C   UNL     1      30.366  16.304  -0.270  0.00  0.00    +0.212 C 
ATOM     26  O   UNL     1      30.771  16.874   0.985  0.00  0.00    -0.218 OA
BRANCH  25  27
ATOM     27  C   UNL     1      30.082  14.768  -0.057  0.00  0.00    +0.171 C 
ATOM     28  O   UNL     1      29.465  14.493   1.196  0.00  0.00    -0.343 OA
ATOM     29  C   UNL     1      29.325  13.215   1.743  0.00  0.00    +0.220 C 
ATOM     30  C   UNL     1      30.659  12.447   1.744  0.00  0.00    +0.076 C 
ATOM     31  C   UNL     1      31.214  12.481   0.311  0.00  0.00    +0.177 C 
ATOM     32  O   UNL     1      32.430  11.749   0.248  0.00  0.00    -0.221 OA
ATOM     33  C   UNL     1      31.416  13.957  -0.153  0.00  0.00    +0.155 C 
BRANCH  33  34
ATOM     34  N   UNL     1      31.950  13.993  -1.512  0.00  0.00    -0.202 NA
ATOM     35  C   UNL     1      33.199  14.300  -1.945  0.00  0.00    +0.242 C 
ATOM     36  C   UNL     1      33.562  13.973  -3.371  0.00  0.00    +0.096 C 
ATOM     37  O   UNL     1      33.997  14.829  -1.174  0.00  0.00    -0.273 OA
ENDBRANCH  33  34
BRANCH  29  38
ATOM     38  C   UNL     1      28.136  12.345   1.059  0.00  0.00    +0.391 C 
ATOM     39  O   UNL     1      28.309  11.093   1.526  0.00  0.00    -0.243 OA
ATOM     40  O   UNL     1      27.275  13.233   0.547  0.00  0.00    -0.243 OA
ENDBRANCH  29  38
ENDBRANCH  25  27
ENDBRANCH  23  25
ENDBRANCH  22  23
ENDBRANCH   2  22
TORSDOF 11
