REMARK VINA RESULT:    -6.449      3.614     10.064
REMARK INTER + INTRA:         -12.221
REMARK INTER:                 -10.923
REMARK INTRA:                  -1.298
REMARK UNBOUND:                -1.624
REMARK  Name = lig_assembled_3.pdb
REMARK  11 active torsions:
REMARK  status: ('A' for Active; 'I' for Inactive)
REMARK    1  A    between atoms: _2  and  _8
REMARK    2  A    between atoms: _5  and  _6
REMARK    3  A    between atoms: _5  and  _13
REMARK    4  A    between atoms: _13  and  _15
REMARK    5  A    between atoms: _14  and  _19
REMARK    6  A    between atoms: _15  and  _18
REMARK    7  A    between atoms: _23  and  _33
REMARK    8  A    between atoms: _25  and  _26
REMARK    9  A    between atoms: _27  and  _29
REMARK   10  A    between atoms: _29  and  _31
REMARK   11  A    between atoms: _31  and  _33
REMARK                            x       y       z     vdW  Elec       q    Type
REMARK                         _______ _______ _______ _____ _____    ______ ____
ROOT
ATOM      1  C   UNL     1      26.040  15.597  -2.496  0.00  0.00    +0.152 C 
ENDROOT
BRANCH   1   3
ATOM      2  C   UNL     1      27.611  17.621  -1.555  0.00  0.00    +0.400 C 
ATOM      3  N   UNL     1      26.540  16.867  -1.975  0.00  0.00    -0.278 N 
ATOM      4  H   UNL     1      25.713  17.536  -1.876  0.00  0.00    +0.152 HD
ATOM      5  O   UNL     1      27.435  18.822  -1.365  0.00  0.00    -0.226 OA
BRANCH   2   6
ATOM      6  O   UNL     1      28.713  16.972  -1.368  0.00  0.00    -0.450 OA
BRANCH   6   7
ATOM      7  C   UNL     1      29.357  16.228  -0.360  0.00  0.00    +0.240 C 
BRANCH   7   8
ATOM      8  C   UNL     1      28.639  14.969   0.163  0.00  0.00    +0.100 C 
BRANCH   8  10
ATOM      9  N   UNL     1      29.237  12.963   1.481  0.00  0.00    -0.134 NA
ATOM     10  C   UNL     1      29.497  14.254   1.127  0.00  0.00    +0.086 A 
ATOM     11  C   UNL     1      30.620  14.687   1.794  0.00  0.00    +0.139 A 
ATOM     12  N   UNL     1      31.035  13.602   2.534  0.00  0.00    -0.220 N 
ATOM     13  N   UNL     1      30.171  12.575   2.339  0.00  0.00    -0.061 NA
BRANCH  12  14
ATOM     14  C   UNL     1      32.174  13.481   3.370  0.00  0.00    +0.067 A 
ATOM     15  C   UNL     1      33.286  14.318   3.199  0.00  0.00    +0.028 A 
ATOM     16  C   UNL     1      34.410  14.162   4.014  0.00  0.00    +0.002 A 
ATOM     17  C   UNL     1      34.432  13.179   5.001  0.00  0.00    +0.000 A 
ATOM     18  C   UNL     1      33.326  12.350   5.182  0.00  0.00    +0.002 A 
ATOM     19  C   UNL     1      32.198  12.498   4.372  0.00  0.00    +0.028 A 
ENDBRANCH  12  14
ENDBRANCH   8  10
ENDBRANCH   7   8
ENDBRANCH   6   7
ENDBRANCH   2   6
ENDBRANCH   1   3
BRANCH   1  20
ATOM     20  C   UNL     1      25.352  15.652  -3.875  0.00  0.00    +0.193 C 
ATOM     21  O   UNL     1      26.405  15.714  -4.862  0.00  0.00    -0.219 OA
BRANCH  20  22
ATOM     22  C   UNL     1      24.499  14.436  -4.297  0.00  0.00    +0.212 C 
ATOM     23  O   UNL     1      25.329  13.418  -4.879  0.00  0.00    -0.218 OA
BRANCH  22  24
ATOM     24  C   UNL     1      23.683  13.802  -3.107  0.00  0.00    +0.171 C 
ATOM     25  O   UNL     1      24.151  12.505  -2.751  0.00  0.00    -0.343 OA
ATOM     26  C   UNL     1      23.470  11.625  -1.908  0.00  0.00    +0.220 C 
ATOM     27  C   UNL     1      22.002  11.449  -2.334  0.00  0.00    +0.076 C 
ATOM     28  C   UNL     1      21.380  12.851  -2.444  0.00  0.00    +0.177 C 
ATOM     29  O   UNL     1      20.009  12.744  -2.798  0.00  0.00    -0.221 OA
ATOM     30  C   UNL     1      22.168  13.708  -3.484  0.00  0.00    +0.155 C 
BRANCH  30  31
ATOM     31  N   UNL     1      21.577  15.038  -3.597  0.00  0.00    -0.202 NA
ATOM     32  C   UNL     1      20.853  15.583  -4.608  0.00  0.00    +0.242 C 
ATOM     33  C   UNL     1      20.113  16.869  -4.345  0.00  0.00    +0.096 C 
ATOM     34  O   UNL     1      20.817  15.022  -5.701  0.00  0.00    -0.273 OA
ENDBRANCH  30  31
BRANCH  26  35
ATOM     35  C   UNL     1      23.593  12.010  -0.335  0.00  0.00    +0.391 C 
ATOM     36  O   UNL     1      22.551  11.394   0.257  0.00  0.00    -0.243 OA
ATOM     37  O   UNL     1      24.818  12.526  -0.175  0.00  0.00    -0.243 OA
ENDBRANCH  26  35
ENDBRANCH  22  24
ENDBRANCH  20  22
ENDBRANCH   1  20
TORSDOF 11
