REMARK VINA RESULT:    -6.859      1.635      2.476
REMARK INTER + INTRA:         -15.241
REMARK INTER:                 -12.522
REMARK INTRA:                  -2.719
REMARK UNBOUND:                -1.965
REMARK  Name = lig_assembled_11.pdb
REMARK  17 active torsions:
REMARK  status: ('A' for Active; 'I' for Inactive)
REMARK    1  A    between atoms: _2  and  _8
REMARK    2  A    between atoms: _4  and  _8
REMARK    3  A    between atoms: _4  and  _12
REMARK    4  A    between atoms: _5  and  _6
REMARK    5  A    between atoms: _5  and  _16
REMARK    6  A    between atoms: _8  and  _9
REMARK    7  A    between atoms: _9  and  _10
REMARK    8  A    between atoms: _10  and  _11
REMARK    9  A    between atoms: _11  and  _14
REMARK   10  A    between atoms: _16  and  _18
REMARK   11  A    between atoms: _17  and  _22
REMARK   12  A    between atoms: _18  and  _21
REMARK   13  A    between atoms: _26  and  _36
REMARK   14  A    between atoms: _28  and  _29
REMARK   15  A    between atoms: _30  and  _32
REMARK   16  A    between atoms: _32  and  _34
REMARK   17  A    between atoms: _34  and  _36
REMARK                            x       y       z     vdW  Elec       q    Type
REMARK                         _______ _______ _______ _____ _____    ______ ____
ROOT
ATOM      1  C   UNL     1      27.422  17.662  -1.651  0.00  0.00    +0.400 C 
ATOM      2  N   UNL     1      28.091  16.613  -1.067  0.00  0.00    -0.278 N 
ATOM      3  H   UNL     1      28.756  17.095  -0.382  0.00  0.00    +0.152 HD
ATOM      4  O   UNL     1      27.574  18.784  -1.176  0.00  0.00    -0.226 OA
ENDROOT
BRANCH   1   5
ATOM      5  O   UNL     1      26.706  17.362  -2.685  0.00  0.00    -0.450 OA
BRANCH   5   6
ATOM      6  C   UNL     1      26.860  16.785  -3.960  0.00  0.00    +0.240 C 
BRANCH   6   7
ATOM      7  C   UNL     1      25.722  15.883  -4.475  0.00  0.00    +0.100 C 
BRANCH   7   9
ATOM      8  N   UNL     1      26.207  13.667  -3.484  0.00  0.00    -0.134 NA
ATOM      9  C   UNL     1      25.445  14.802  -3.509  0.00  0.00    +0.086 A 
ATOM     10  C   UNL     1      24.479  14.716  -2.534  0.00  0.00    +0.134 A 
ATOM     11  N   UNL     1      24.672  13.487  -1.974  0.00  0.00    -0.238 N 
ATOM     12  N   UNL     1      25.734  12.874  -2.532  0.00  0.00    -0.065 NA
BRANCH  11  13
ATOM     13  C   UNL     1      24.020  12.854  -0.832  0.00  0.00    +0.217 C 
BRANCH  13  14
ATOM     14  C   UNL     1      24.979  12.115   0.089  0.00  0.00    +0.330 C 
ATOM     15  O   UNL     1      24.805  11.001   0.560  0.00  0.00    -0.249 OA
BRANCH  14  16
ATOM     16  O   UNL     1      26.106  12.811   0.385  0.00  0.00    -0.479 OA
ATOM     17  H   UNL     1      26.084  13.777   0.240  0.00  0.00    +0.295 HD
ENDBRANCH  14  16
ENDBRANCH  13  14
BRANCH  13  18
ATOM     18  C   UNL     1      22.825  11.985  -1.265  0.00  0.00    +0.049 C 
BRANCH  18  19
ATOM     19  C   UNL     1      21.532  12.228  -0.476  0.00  0.00    +0.123 C 
BRANCH  19  20
ATOM     20  C   UNL     1      20.805  13.449  -0.993  0.00  0.00    +0.305 C 
ATOM     21  O   UNL     1      20.946  13.923  -2.109  0.00  0.00    -0.251 OA
BRANCH  20  22
ATOM     22  O   UNL     1      19.982  13.994  -0.070  0.00  0.00    -0.481 OA
ATOM     23  H   UNL     1      20.336  13.992   0.840  0.00  0.00    +0.295 HD
ENDBRANCH  20  22
ENDBRANCH  19  20
ENDBRANCH  18  19
ENDBRANCH  13  18
ENDBRANCH  11  13
ENDBRANCH   7   9
ENDBRANCH   6   7
ENDBRANCH   5   6
ENDBRANCH   1   5
BRANCH   2  24
ATOM     24  C   UNL     1      28.288  15.170  -0.954  0.00  0.00    +0.152 C 
BRANCH  24  25
ATOM     25  C   UNL     1      29.173  14.694   0.215  0.00  0.00    +0.193 C 
ATOM     26  O   UNL     1      29.202  13.251   0.153  0.00  0.00    -0.219 OA
BRANCH  25  27
ATOM     27  C   UNL     1      30.660  15.110   0.202  0.00  0.00    +0.212 C 
ATOM     28  O   UNL     1      30.809  16.455   0.685  0.00  0.00    -0.218 OA
BRANCH  27  29
ATOM     29  C   UNL     1      31.582  14.162   1.060  0.00  0.00    +0.171 C 
ATOM     30  O   UNL     1      31.949  14.739   2.309  0.00  0.00    -0.343 OA
ATOM     31  C   UNL     1      32.942  14.231   3.150  0.00  0.00    +0.220 C 
ATOM     32  C   UNL     1      34.257  13.976   2.392  0.00  0.00    +0.076 C 
ATOM     33  C   UNL     1      33.927  13.096   1.175  0.00  0.00    +0.177 C 
ATOM     34  O   UNL     1      35.117  12.798   0.460  0.00  0.00    -0.221 OA
ATOM     35  C   UNL     1      32.881  13.811   0.263  0.00  0.00    +0.155 C 
BRANCH  35  36
ATOM     36  N   UNL     1      32.570  12.981  -0.898  0.00  0.00    -0.202 NA
ATOM     37  C   UNL     1      32.765  13.227  -2.218  0.00  0.00    +0.242 C 
ATOM     38  C   UNL     1      32.626  12.083  -3.188  0.00  0.00    +0.096 C 
ATOM     39  O   UNL     1      33.049  14.365  -2.588  0.00  0.00    -0.273 OA
ENDBRANCH  35  36
BRANCH  31  40
ATOM     40  C   UNL     1      32.473  12.920   3.987  0.00  0.00    +0.391 C 
ATOM     41  O   UNL     1      33.574  12.519   4.652  0.00  0.00    -0.243 OA
ATOM     42  O   UNL     1      31.135  12.912   3.943  0.00  0.00    -0.243 OA
ENDBRANCH  31  40
ENDBRANCH  27  29
ENDBRANCH  25  27
ENDBRANCH  24  25
ENDBRANCH   2  24
TORSDOF 17
