REMARK VINA RESULT:    -7.033      1.580      2.852
REMARK INTER + INTRA:         -13.164
REMARK INTER:                 -12.101
REMARK INTRA:                  -1.064
REMARK UNBOUND:                -1.609
REMARK  Name = lig_assembled_87.pdb
REMARK  12 active torsions:
REMARK  status: ('A' for Active; 'I' for Inactive)
REMARK    1  A    between atoms: _2  and  _9
REMARK    2  A    between atoms: _3  and  _12
REMARK    3  A    between atoms: _6  and  _7
REMARK    4  A    between atoms: _6  and  _16
REMARK    5  A    between atoms: _16  and  _18
REMARK    6  A    between atoms: _17  and  _22
REMARK    7  A    between atoms: _18  and  _21
REMARK    8  A    between atoms: _26  and  _36
REMARK    9  A    between atoms: _28  and  _29
REMARK   10  A    between atoms: _30  and  _32
REMARK   11  A    between atoms: _32  and  _34
REMARK   12  A    between atoms: _34  and  _36
REMARK                            x       y       z     vdW  Elec       q    Type
REMARK                         _______ _______ _______ _____ _____    ______ ____
ROOT
ATOM      1  C   UNL     1      29.197  17.056  -0.498  0.00  0.00    +0.400 C 
ATOM      2  N   UNL     1      29.783  15.891  -0.061  0.00  0.00    -0.278 N 
ATOM      3  H   UNL     1      30.499  16.229   0.658  0.00  0.00    +0.152 HD
ATOM      4  O   UNL     1      29.456  18.096   0.102  0.00  0.00    -0.226 OA
ENDROOT
BRANCH   1   5
ATOM      5  O   UNL     1      28.440  16.944  -1.539  0.00  0.00    -0.450 OA
BRANCH   5   6
ATOM      6  C   UNL     1      27.313  17.566  -2.112  0.00  0.00    +0.240 C 
BRANCH   6   7
ATOM      7  C   UNL     1      27.043  17.310  -3.607  0.00  0.00    +0.100 C 
BRANCH   7   9
ATOM      8  N   UNL     1      25.728  15.735  -4.983  0.00  0.00    -0.134 NA
ATOM      9  C   UNL     1      25.984  16.297  -3.765  0.00  0.00    +0.086 A 
ATOM     10  C   UNL     1      25.136  15.749  -2.828  0.00  0.00    +0.134 A 
ATOM     11  N   UNL     1      24.469  14.768  -3.510  0.00  0.00    -0.248 N 
ATOM     12  N   UNL     1      24.753  14.855  -4.825  0.00  0.00    -0.065 NA
BRANCH  11  13
ATOM     13  C   UNL     1      23.543  13.719  -3.040  0.00  0.00    +0.112 C 
ATOM     14  C   UNL     1      22.507  13.243  -4.097  0.00  0.00    +0.045 C 
ATOM     15  C   UNL     1      21.030  13.431  -3.715  0.00  0.00    +0.059 C 
ATOM     16  C   UNL     1      20.546  12.350  -2.738  0.00  0.00    +0.020 C 
ATOM     17  C   UNL     1      20.685  12.988  -1.356  0.00  0.00    +0.020 C 
ATOM     18  C   UNL     1      21.404  14.309  -1.632  0.00  0.00    +0.059 C 
ATOM     19  N   UNL     1      20.804  14.633  -2.923  0.00  0.00    -0.299 NA
ATOM     20  C   UNL     1      21.147  15.904  -3.521  0.00  0.00    +0.105 C 
ATOM     21  C   UNL     1      22.919  14.099  -1.664  0.00  0.00    +0.045 C 
ENDBRANCH  11  13
ENDBRANCH   7   9
ENDBRANCH   6   7
ENDBRANCH   5   6
ENDBRANCH   1   5
BRANCH   2  22
ATOM     22  C   UNL     1      29.855  14.434  -0.125  0.00  0.00    +0.152 C 
BRANCH  22  23
ATOM     23  C   UNL     1      31.154  13.793   0.404  0.00  0.00    +0.193 C 
ATOM     24  O   UNL     1      32.102  13.815  -0.686  0.00  0.00    -0.219 OA
BRANCH  23  25
ATOM     25  C   UNL     1      31.884  14.507   1.563  0.00  0.00    +0.212 C 
ATOM     26  O   UNL     1      31.052  15.538   2.120  0.00  0.00    -0.218 OA
BRANCH  25  27
ATOM     27  C   UNL     1      32.320  13.532   2.722  0.00  0.00    +0.171 C 
ATOM     28  O   UNL     1      33.622  12.990   2.520  0.00  0.00    -0.343 OA
ATOM     29  C   UNL     1      34.155  11.926   3.252  0.00  0.00    +0.220 C 
ATOM     30  C   UNL     1      33.193  10.726   3.296  0.00  0.00    +0.076 C 
ATOM     31  C   UNL     1      31.834  11.241   3.799  0.00  0.00    +0.177 C 
ATOM     32  O   UNL     1      30.916  10.161   3.897  0.00  0.00    -0.221 OA
ATOM     33  C   UNL     1      31.297  12.356   2.849  0.00  0.00    +0.155 C 
BRANCH  33  34
ATOM     34  N   UNL     1      30.002  12.843   3.319  0.00  0.00    -0.202 NA
ATOM     35  C   UNL     1      28.750  12.498   2.925  0.00  0.00    +0.242 C 
ATOM     36  C   UNL     1      27.587  12.934   3.777  0.00  0.00    +0.096 C 
ATOM     37  O   UNL     1      28.596  11.843   1.896  0.00  0.00    -0.273 OA
ENDBRANCH  33  34
BRANCH  29  38
ATOM     38  C   UNL     1      34.651  12.349   4.740  0.00  0.00    +0.391 C 
ATOM     39  O   UNL     1      34.913  11.183   5.363  0.00  0.00    -0.243 OA
ATOM     40  O   UNL     1      34.899  13.663   4.688  0.00  0.00    -0.243 OA
ENDBRANCH  29  38
ENDBRANCH  25  27
ENDBRANCH  23  25
ENDBRANCH  22  23
ENDBRANCH   2  22
TORSDOF 11
