REMARK VINA RESULT:    -5.872      2.943      5.365
REMARK INTER + INTRA:         -12.586
REMARK INTER:                 -10.779
REMARK INTRA:                  -1.807
REMARK UNBOUND:                -2.422
REMARK  Name = lig_assembled_53.pdb
REMARK  13 active torsions:
REMARK  status: ('A' for Active; 'I' for Inactive)
REMARK    1  A    between atoms: _2  and  _8
REMARK    2  A    between atoms: _4  and  _8
REMARK    3  A    between atoms: _4  and  _9
REMARK    4  A    between atoms: _5  and  _6
REMARK    5  A    between atoms: _5  and  _11
REMARK    6  A    between atoms: _11  and  _13
REMARK    7  A    between atoms: _12  and  _17
REMARK    8  A    between atoms: _13  and  _16
REMARK    9  A    between atoms: _21  and  _31
REMARK   10  A    between atoms: _23  and  _24
REMARK   11  A    between atoms: _25  and  _27
REMARK   12  A    between atoms: _27  and  _29
REMARK   13  A    between atoms: _29  and  _31
REMARK                            x       y       z     vdW  Elec       q    Type
REMARK                         _______ _______ _______ _____ _____    ______ ____
ROOT
ATOM      1  C   UNL     1      29.189  12.912   1.650  0.00  0.00    +0.152 C 
ENDROOT
BRANCH   1   3
ATOM      2  C   UNL     1      31.151  14.386   0.458  0.00  0.00    +0.400 C 
ATOM      3  N   UNL     1      30.376  13.349   0.920  0.00  0.00    -0.278 N 
ATOM      4  H   UNL     1      30.908  12.480   0.596  0.00  0.00    +0.152 HD
ATOM      5  O   UNL     1      32.258  14.121  -0.004  0.00  0.00    -0.226 OA
BRANCH   2   6
ATOM      6  O   UNL     1      30.615  15.560   0.527  0.00  0.00    -0.450 OA
BRANCH   6   7
ATOM      7  C   UNL     1      30.558  16.755  -0.217  0.00  0.00    +0.240 C 
BRANCH   7   8
ATOM      8  C   UNL     1      29.232  17.539  -0.204  0.00  0.00    +0.100 C 
BRANCH   8  10
ATOM      9  N   UNL     1      28.168  15.557  -1.241  0.00  0.00    -0.134 NA
ATOM     10  C   UNL     1      28.256  16.917  -1.118  0.00  0.00    +0.086 A 
ATOM     11  C   UNL     1      27.331  17.505  -1.951  0.00  0.00    +0.134 A 
ATOM     12  N   UNL     1      26.756  16.457  -2.603  0.00  0.00    -0.241 N 
ATOM     13  N   UNL     1      27.230  15.284  -2.138  0.00  0.00    -0.065 NA
BRANCH  12  14
ATOM     14  C   UNL     1      25.659  16.429  -3.548  0.00  0.00    +0.265 C 
BRANCH  14  15
ATOM     15  C   UNL     1      24.426  15.702  -3.082  0.00  0.00    +0.326 C 
ATOM     16  O   UNL     1      23.644  15.070  -3.775  0.00  0.00    -0.249 OA
BRANCH  15  17
ATOM     17  O   UNL     1      24.228  15.822  -1.741  0.00  0.00    -0.479 OA
ATOM     18  H   UNL     1      24.212  14.987  -1.236  0.00  0.00    +0.295 HD
ENDBRANCH  15  17
ENDBRANCH  14  15
ENDBRANCH  12  14
ENDBRANCH   8  10
ENDBRANCH   7   8
ENDBRANCH   6   7
ENDBRANCH   2   6
ENDBRANCH   1   3
BRANCH   1  19
ATOM     19  C   UNL     1      29.158  13.243   3.157  0.00  0.00    +0.193 C 
ATOM     20  O   UNL     1      27.783  13.116   3.581  0.00  0.00    -0.219 OA
BRANCH  19  21
ATOM     21  C   UNL     1      29.943  12.313   4.109  0.00  0.00    +0.212 C 
ATOM     22  O   UNL     1      30.000  10.981   3.575  0.00  0.00    -0.218 OA
BRANCH  21  23
ATOM     23  C   UNL     1      31.413  12.806   4.391  0.00  0.00    +0.171 C 
ATOM     24  O   UNL     1      32.270  12.646   3.266  0.00  0.00    -0.343 OA
ATOM     25  C   UNL     1      33.661  12.770   3.310  0.00  0.00    +0.220 C 
ATOM     26  C   UNL     1      34.273  11.924   4.439  0.00  0.00    +0.076 C 
ATOM     27  C   UNL     1      33.548  12.297   5.743  0.00  0.00    +0.177 C 
ATOM     28  O   UNL     1      34.105  11.570   6.829  0.00  0.00    -0.221 OA
ATOM     29  C   UNL     1      32.018  12.025   5.603  0.00  0.00    +0.155 C 
BRANCH  29  30
ATOM     30  N   UNL     1      31.327  12.372   6.842  0.00  0.00    -0.202 NA
ATOM     31  C   UNL     1      30.682  11.572   7.729  0.00  0.00    +0.242 C 
ATOM     32  C   UNL     1      30.311  12.146   9.072  0.00  0.00    +0.096 C 
ATOM     33  O   UNL     1      30.420  10.411   7.422  0.00  0.00    -0.273 OA
ENDBRANCH  29  30
BRANCH  25  34
ATOM     34  C   UNL     1      34.171  14.311   3.375  0.00  0.00    +0.391 C 
ATOM     35  O   UNL     1      35.510  14.239   3.247  0.00  0.00    -0.243 OA
ATOM     36  O   UNL     1      33.078  15.070   3.227  0.00  0.00    -0.243 OA
ENDBRANCH  25  34
ENDBRANCH  21  23
ENDBRANCH  19  21
ENDBRANCH   1  19
TORSDOF 13
