REMARK VINA RESULT:    -5.650      1.943      3.553
REMARK INTER + INTRA:         -12.227
REMARK INTER:                 -10.962
REMARK INTRA:                  -1.264
REMARK UNBOUND:                -1.953
REMARK  Name = lig_assembled_13.pdb
REMARK  15 active torsions:
REMARK  status: ('A' for Active; 'I' for Inactive)
REMARK    1  A    between atoms: _2  and  _8
REMARK    2  A    between atoms: _4  and  _10
REMARK    3  A    between atoms: _5  and  _6
REMARK    4  A    between atoms: _5  and  _13
REMARK    5  A    between atoms: _8  and  _9
REMARK    6  A    between atoms: _9  and  _11
REMARK    7  A    between atoms: _10  and  _11
REMARK    8  A    between atoms: _13  and  _15
REMARK    9  A    between atoms: _14  and  _19
REMARK   10  A    between atoms: _15  and  _18
REMARK   11  A    between atoms: _23  and  _33
REMARK   12  A    between atoms: _25  and  _26
REMARK   13  A    between atoms: _27  and  _29
REMARK   14  A    between atoms: _29  and  _31
REMARK   15  A    between atoms: _31  and  _33
REMARK                            x       y       z     vdW  Elec       q    Type
REMARK                         _______ _______ _______ _____ _____    ______ ____
ROOT
ATOM      1  C   UNL     1      29.547  14.526  -0.290  0.00  0.00    +0.152 C 
ENDROOT
BRANCH   1   3
ATOM      2  C   UNL     1      28.760  17.126  -0.551  0.00  0.00    +0.400 C 
ATOM      3  N   UNL     1      29.327  15.957  -0.100  0.00  0.00    -0.278 N 
ATOM      4  H   UNL     1      29.812  16.252   0.806  0.00  0.00    +0.152 HD
ATOM      5  O   UNL     1      28.768  18.100   0.197  0.00  0.00    -0.226 OA
BRANCH   2   6
ATOM      6  O   UNL     1      28.292  17.092  -1.756  0.00  0.00    -0.450 OA
BRANCH   6   7
ATOM      7  C   UNL     1      27.083  17.325  -2.439  0.00  0.00    +0.240 C 
BRANCH   7   8
ATOM      8  C   UNL     1      27.022  16.938  -3.929  0.00  0.00    +0.100 C 
BRANCH   8  10
ATOM      9  N   UNL     1      25.693  15.469  -5.412  0.00  0.00    -0.134 NA
ATOM     10  C   UNL     1      25.902  16.013  -4.174  0.00  0.00    +0.086 A 
ATOM     11  C   UNL     1      24.931  15.560  -3.313  0.00  0.00    +0.134 A 
ATOM     12  N   UNL     1      24.123  14.795  -4.103  0.00  0.00    -0.241 N 
ATOM     13  N   UNL     1      24.609  14.705  -5.351  0.00  0.00    -0.065 NA
BRANCH  12  14
ATOM     14  C   UNL     1      22.945  14.048  -3.723  0.00  0.00    +0.265 C 
BRANCH  14  15
ATOM     15  C   UNL     1      22.140  14.760  -2.673  0.00  0.00    +0.329 C 
ATOM     16  O   UNL     1      21.943  14.383  -1.528  0.00  0.00    -0.249 OA
BRANCH  15  17
ATOM     17  O   UNL     1      21.563  15.866  -3.233  0.00  0.00    -0.464 OA
BRANCH  17  18
ATOM     18  C   UNL     1      20.280  15.638  -3.836  0.00  0.00    +0.229 C 
ATOM     19  C   UNL     1      20.044  16.738  -4.857  0.00  0.00    +0.048 C 
ENDBRANCH  17  18
ENDBRANCH  15  17
ENDBRANCH  14  15
ENDBRANCH  12  14
ENDBRANCH   8  10
ENDBRANCH   7   8
ENDBRANCH   6   7
ENDBRANCH   2   6
ENDBRANCH   1   3
BRANCH   1  20
ATOM     20  C   UNL     1      30.973  14.013  -0.005  0.00  0.00    +0.193 C 
ATOM     21  O   UNL     1      31.765  14.318  -1.175  0.00  0.00    -0.219 OA
BRANCH  20  22
ATOM     22  C   UNL     1      31.747  14.662   1.163  0.00  0.00    +0.212 C 
ATOM     23  O   UNL     1      30.833  15.200   2.133  0.00  0.00    -0.218 OA
BRANCH  22  24
ATOM     24  C   UNL     1      32.727  13.667   1.893  0.00  0.00    +0.171 C 
ATOM     25  O   UNL     1      33.967  13.520   1.208  0.00  0.00    -0.343 OA
ATOM     26  C   UNL     1      34.912  12.531   1.493  0.00  0.00    +0.220 C 
ATOM     27  C   UNL     1      34.277  11.130   1.535  0.00  0.00    +0.076 C 
ATOM     28  C   UNL     1      33.088  11.190   2.509  0.00  0.00    +0.177 C 
ATOM     29  O   UNL     1      32.488   9.907   2.616  0.00  0.00    -0.221 OA
ATOM     30  C   UNL     1      32.058  12.261   2.035  0.00  0.00    +0.155 C 
BRANCH  30  31
ATOM     31  N   UNL     1      30.924  12.316   2.954  0.00  0.00    -0.202 NA
ATOM     32  C   UNL     1      29.655  11.861   2.795  0.00  0.00    +0.242 C 
ATOM     33  C   UNL     1      28.766  11.781   4.009  0.00  0.00    +0.096 C 
ATOM     34  O   UNL     1      29.264  11.528   1.678  0.00  0.00    -0.273 OA
ENDBRANCH  30  31
BRANCH  26  35
ATOM     35  C   UNL     1      35.781  12.832   2.832  0.00  0.00    +0.391 C 
ATOM     36  O   UNL     1      36.583  11.759   2.975  0.00  0.00    -0.243 OA
ATOM     37  O   UNL     1      35.598  14.129   3.107  0.00  0.00    -0.243 OA
ENDBRANCH  26  35
ENDBRANCH  22  24
ENDBRANCH  20  22
ENDBRANCH   1  20
TORSDOF 14
