REMARK VINA RESULT:    -6.660      1.692      2.957
REMARK INTER + INTRA:         -14.540
REMARK INTER:                 -12.625
REMARK INTRA:                  -1.915
REMARK UNBOUND:                -2.234
REMARK  Name = lig_assembled_83.pdb
REMARK  15 active torsions:
REMARK  status: ('A' for Active; 'I' for Inactive)
REMARK    1  A    between atoms: _2  and  _11
REMARK    2  A    between atoms: _3  and  _13
REMARK    3  A    between atoms: _8  and  _9
REMARK    4  A    between atoms: _8  and  _19
REMARK    5  A    between atoms: _11  and  _12
REMARK    6  A    between atoms: _12  and  _13
REMARK    7  A    between atoms: _12  and  _17
REMARK    8  A    between atoms: _19  and  _21
REMARK    9  A    between atoms: _20  and  _25
REMARK   10  A    between atoms: _21  and  _24
REMARK   11  A    between atoms: _29  and  _39
REMARK   12  A    between atoms: _31  and  _32
REMARK   13  A    between atoms: _33  and  _35
REMARK   14  A    between atoms: _35  and  _37
REMARK   15  A    between atoms: _37  and  _39
REMARK                            x       y       z     vdW  Elec       q    Type
REMARK                         _______ _______ _______ _____ _____    ______ ____
ROOT
ATOM      1  C   UNL     1      28.282  17.649  -0.556  0.00  0.00    +0.400 C 
ATOM      2  N   UNL     1      29.464  17.379   0.093  0.00  0.00    -0.278 N 
ATOM      3  H   UNL     1      29.470  18.082   0.898  0.00  0.00    +0.152 HD
ATOM      4  O   UNL     1      27.489  18.419  -0.019  0.00  0.00    -0.226 OA
ENDROOT
BRANCH   2   5
ATOM      5  C   UNL     1      30.678  16.571   0.183  0.00  0.00    +0.152 C 
BRANCH   5   6
ATOM      6  C   UNL     1      30.537  15.209   0.893  0.00  0.00    +0.193 C 
ATOM      7  O   UNL     1      29.216  14.714   0.584  0.00  0.00    -0.219 OA
BRANCH   6   8
ATOM      8  C   UNL     1      31.487  14.073   0.455  0.00  0.00    +0.212 C 
ATOM      9  O   UNL     1      32.447  14.560  -0.496  0.00  0.00    -0.218 OA
BRANCH   8  10
ATOM     10  C   UNL     1      32.260  13.407   1.656  0.00  0.00    +0.171 C 
ATOM     11  O   UNL     1      33.670  13.391   1.458  0.00  0.00    -0.343 OA
ATOM     12  C   UNL     1      34.567  12.655   2.236  0.00  0.00    +0.220 C 
ATOM     13  C   UNL     1      34.136  11.184   2.366  0.00  0.00    +0.076 C 
ATOM     14  C   UNL     1      32.682  11.171   2.867  0.00  0.00    +0.177 C 
ATOM     15  O   UNL     1      32.246   9.830   3.043  0.00  0.00    -0.221 OA
ATOM     16  C   UNL     1      31.762  11.940   1.868  0.00  0.00    +0.155 C 
BRANCH  16  17
ATOM     17  N   UNL     1      30.379  11.923   2.337  0.00  0.00    -0.202 NA
ATOM     18  C   UNL     1      29.842  12.432   3.475  0.00  0.00    +0.242 C 
ATOM     19  C   UNL     1      28.343  12.538   3.574  0.00  0.00    +0.096 C 
ATOM     20  O   UNL     1      30.583  12.793   4.388  0.00  0.00    -0.273 OA
ENDBRANCH  16  17
BRANCH  12  21
ATOM     21  C   UNL     1      34.862  13.322   3.688  0.00  0.00    +0.391 C 
ATOM     22  O   UNL     1      35.310  12.306   4.452  0.00  0.00    -0.243 OA
ATOM     23  O   UNL     1      34.841  14.647   3.498  0.00  0.00    -0.243 OA
ENDBRANCH  12  21
ENDBRANCH   8  10
ENDBRANCH   6   8
ENDBRANCH   5   6
ENDBRANCH   2   5
BRANCH   1  24
ATOM     24  O   UNL     1      28.132  17.079  -1.706  0.00  0.00    -0.450 OA
BRANCH  24  25
ATOM     25  C   UNL     1      27.293  16.134  -2.328  0.00  0.00    +0.240 C 
BRANCH  25  26
ATOM     26  C   UNL     1      26.567  16.567  -3.616  0.00  0.00    +0.100 C 
BRANCH  26  28
ATOM     27  N   UNL     1      24.920  15.130  -4.794  0.00  0.00    -0.134 NA
ATOM     28  C   UNL     1      25.252  15.909  -3.715  0.00  0.00    +0.086 A 
ATOM     29  C   UNL     1      24.191  15.933  -2.838  0.00  0.00    +0.133 A 
ATOM     30  N   UNL     1      23.257  15.142  -3.433  0.00  0.00    -0.249 N 
ATOM     31  N   UNL     1      23.689  14.668  -4.612  0.00  0.00    -0.065 NA
BRANCH  30  32
ATOM     32  C   UNL     1      21.928  14.828  -2.953  0.00  0.00    +0.178 C 
BRANCH  32  33
ATOM     33  C   UNL     1      21.961  14.140  -1.585  0.00  0.00    +0.156 C 
BRANCH  33  34
ATOM     34  O   UNL     1      20.649  14.139  -1.010  0.00  0.00    -0.388 OA
ATOM     35  H   UNL     1      19.978  14.200  -1.719  0.00  0.00    +0.210 HD
ENDBRANCH  33  34
BRANCH  33  36
ATOM     36  C   UNL     1      22.487  12.703  -1.717  0.00  0.00    +0.162 C 
BRANCH  36  37
ATOM     37  N   UNL     1      23.583  12.424  -0.802  0.00  0.00    -0.269 N 
ATOM     38  C   UNL     1      24.901  12.691  -1.094  0.00  0.00    +0.113 A 
ATOM     39  C   UNL     1      25.610  12.317   0.022  0.00  0.00    +0.137 A 
ATOM     40  N   UNL     1      24.777  11.803   0.977  0.00  0.00    -0.172 NA
ATOM     41  C   UNL     1      23.564  11.883   0.461  0.00  0.00    +0.450 A 
ATOM     42  N   UNL     1      22.387  11.446   1.176  0.00  0.00    +0.120 N 
ATOM     43  O   UNL     1      21.289  11.564   0.605  0.00  0.00    +0.045 OA
ATOM     44  O   UNL     1      22.548  10.971   2.306  0.00  0.00    -0.573 OA
ENDBRANCH  36  37
ENDBRANCH  33  36
ENDBRANCH  32  33
ENDBRANCH  30  32
ENDBRANCH  26  28
ENDBRANCH  25  26
ENDBRANCH  24  25
ENDBRANCH   1  24
TORSDOF 15
