REMARK VINA RESULT:    -6.790      2.962      6.034
REMARK INTER + INTRA:         -13.956
REMARK INTER:                 -11.113
REMARK INTRA:                  -2.843
REMARK UNBOUND:                -1.807
REMARK  Name = lig_assembled_75.pdb
REMARK  14 active torsions:
REMARK  status: ('A' for Active; 'I' for Inactive)
REMARK    1  A    between atoms: _2  and  _8
REMARK    2  A    between atoms: _5  and  _6
REMARK    3  A    between atoms: _5  and  _18
REMARK    4  A    between atoms: _10  and  _11
REMARK    5  A    between atoms: _12  and  _13
REMARK    6  A    between atoms: _13  and  _16
REMARK    7  A    between atoms: _18  and  _20
REMARK    8  A    between atoms: _19  and  _24
REMARK    9  A    between atoms: _20  and  _23
REMARK   10  A    between atoms: _28  and  _38
REMARK   11  A    between atoms: _30  and  _31
REMARK   12  A    between atoms: _32  and  _34
REMARK   13  A    between atoms: _34  and  _36
REMARK   14  A    between atoms: _36  and  _38
REMARK                            x       y       z     vdW  Elec       q    Type
REMARK                         _______ _______ _______ _____ _____    ______ ____
ROOT
ATOM      1  C   UNL     1      27.326  12.108   3.346  0.00  0.00    +0.400 C 
ATOM      2  N   UNL     1      28.548  12.626   3.706  0.00  0.00    -0.278 N 
ATOM      3  H   UNL     1      28.447  13.669   3.493  0.00  0.00    +0.152 HD
ATOM      4  O   UNL     1      26.422  12.893   3.073  0.00  0.00    -0.226 OA
ENDROOT
BRANCH   2   5
ATOM      5  C   UNL     1      29.885  12.400   4.249  0.00  0.00    +0.152 C 
BRANCH   5   6
ATOM      6  C   UNL     1      31.063  12.884   3.379  0.00  0.00    +0.193 C 
ATOM      7  O   UNL     1      32.273  12.465   4.048  0.00  0.00    -0.219 OA
BRANCH   6   8
ATOM      8  C   UNL     1      31.188  12.301   1.955  0.00  0.00    +0.212 C 
ATOM      9  O   UNL     1      30.432  11.084   1.843  0.00  0.00    -0.218 OA
BRANCH   8  10
ATOM     10  C   UNL     1      30.711  13.295   0.829  0.00  0.00    +0.171 C 
ATOM     11  O   UNL     1      29.606  14.095   1.236  0.00  0.00    -0.343 OA
ATOM     12  C   UNL     1      28.837  14.876   0.371  0.00  0.00    +0.220 C 
ATOM     13  C   UNL     1      28.356  14.071  -0.849  0.00  0.00    +0.076 C 
ATOM     14  C   UNL     1      29.593  13.420  -1.491  0.00  0.00    +0.177 C 
ATOM     15  O   UNL     1      29.208  12.694  -2.650  0.00  0.00    -0.221 OA
ATOM     16  C   UNL     1      30.313  12.499  -0.457  0.00  0.00    +0.155 C 
BRANCH  16  17
ATOM     17  N   UNL     1      31.484  11.874  -1.065  0.00  0.00    -0.202 NA
ATOM     18  C   UNL     1      31.634  10.625  -1.576  0.00  0.00    +0.242 C 
ATOM     19  C   UNL     1      32.856  10.335  -2.408  0.00  0.00    +0.096 C 
ATOM     20  O   UNL     1      30.780   9.770  -1.352  0.00  0.00    -0.273 OA
ENDBRANCH  16  17
BRANCH  12  21
ATOM     21  C   UNL     1      29.567  16.257  -0.076  0.00  0.00    +0.391 C 
ATOM     22  O   UNL     1      30.775  16.220   0.518  0.00  0.00    -0.243 OA
ATOM     23  O   UNL     1      28.835  16.754  -1.081  0.00  0.00    -0.243 OA
ENDBRANCH  12  21
ENDBRANCH   8  10
ENDBRANCH   6   8
ENDBRANCH   5   6
ENDBRANCH   2   5
BRANCH   1  24
ATOM     24  O   UNL     1      27.257  10.818   3.300  0.00  0.00    -0.450 OA
BRANCH  24  25
ATOM     25  C   UNL     1      26.493   9.811   2.680  0.00  0.00    +0.240 C 
BRANCH  25  26
ATOM     26  C   UNL     1      25.106   9.502   3.277  0.00  0.00    +0.100 C 
BRANCH  26  28
ATOM     27  N   UNL     1      22.731   9.816   2.660  0.00  0.00    -0.134 NA
ATOM     28  C   UNL     1      24.047  10.117   2.456  0.00  0.00    +0.086 A 
ATOM     29  C   UNL     1      24.147  11.020   1.423  0.00  0.00    +0.139 A 
ATOM     30  N   UNL     1      22.851  11.245   1.020  0.00  0.00    -0.220 N 
ATOM     31  N   UNL     1      22.011  10.503   1.784  0.00  0.00    -0.061 NA
BRANCH  30  32
ATOM     32  C   UNL     1      22.375  12.072  -0.030  0.00  0.00    +0.068 A 
ATOM     33  C   UNL     1      23.234  13.034  -0.592  0.00  0.00    +0.035 A 
ATOM     34  C   UNL     1      22.777  13.912  -1.585  0.00  0.00    -0.023 A 
ATOM     35  C   UNL     1      21.465  13.772  -2.056  0.00  0.00    +0.008 A 
ATOM     36  C   UNL     1      20.615  12.803  -1.516  0.00  0.00    +0.003 A 
ATOM     37  C   UNL     1      21.062  11.960  -0.501  0.00  0.00    +0.028 A 
BRANCH  34  38
ATOM     38  C   UNL     1      23.629  14.961  -2.166  0.00  0.00    +0.015 C 
ATOM     39  C   UNL     1      24.895  14.757  -2.564  0.00  0.00    +0.092 C 
BRANCH  39  40
ATOM     40  C   UNL     1      25.688  15.888  -3.086  0.00  0.00    +0.330 C 
ATOM     41  O   UNL     1      25.870  16.121  -4.268  0.00  0.00    -0.246 OA
BRANCH  40  42
ATOM     42  O   UNL     1      26.185  16.654  -2.095  0.00  0.00    -0.478 OA
ATOM     43  H   UNL     1      25.837  17.563  -2.047  0.00  0.00    +0.295 HD
ENDBRANCH  40  42
ENDBRANCH  39  40
ENDBRANCH  34  38
ENDBRANCH  30  32
ENDBRANCH  26  28
ENDBRANCH  25  26
ENDBRANCH  24  25
ENDBRANCH   1  24
TORSDOF 14
