REMARK VINA RESULT:    -7.136      2.031      3.492
REMARK INTER + INTRA:         -13.224
REMARK INTER:                 -11.448
REMARK INTRA:                  -1.776
REMARK UNBOUND:                -1.499
REMARK  Name = lig_assembled_15.pdb
REMARK  11 active torsions:
REMARK  status: ('A' for Active; 'I' for Inactive)
REMARK    1  A    between atoms: _2  and  _8
REMARK    2  A    between atoms: _5  and  _6
REMARK    3  A    between atoms: _5  and  _13
REMARK    4  A    between atoms: _13  and  _15
REMARK    5  A    between atoms: _14  and  _19
REMARK    6  A    between atoms: _15  and  _18
REMARK    7  A    between atoms: _23  and  _33
REMARK    8  A    between atoms: _25  and  _26
REMARK    9  A    between atoms: _27  and  _29
REMARK   10  A    between atoms: _29  and  _31
REMARK   11  A    between atoms: _31  and  _33
REMARK                            x       y       z     vdW  Elec       q    Type
REMARK                         _______ _______ _______ _____ _____    ______ ____
ROOT
ATOM      1  C   UNL     1      28.131  17.705  -0.504  0.00  0.00    +0.400 C 
ATOM      2  N   UNL     1      29.374  17.451   0.026  0.00  0.00    -0.278 N 
ATOM      3  H   UNL     1      29.380  18.025   0.928  0.00  0.00    +0.152 HD
ATOM      4  O   UNL     1      27.317  18.310   0.190  0.00  0.00    -0.226 OA
ENDROOT
BRANCH   1   5
ATOM      5  O   UNL     1      27.947  17.300  -1.718  0.00  0.00    -0.450 OA
BRANCH   5   6
ATOM      6  C   UNL     1      27.146  17.606  -2.836  0.00  0.00    +0.240 C 
BRANCH   6   7
ATOM      7  C   UNL     1      26.772  16.447  -3.780  0.00  0.00    +0.100 C 
BRANCH   7   9
ATOM      8  N   UNL     1      27.373  14.212  -2.905  0.00  0.00    -0.134 NA
ATOM      9  C   UNL     1      26.469  15.230  -3.003  0.00  0.00    +0.086 A 
ATOM     10  C   UNL     1      25.344  14.903  -2.281  0.00  0.00    +0.139 A 
ATOM     11  N   UNL     1      25.620  13.673  -1.729  0.00  0.00    -0.220 N 
ATOM     12  N   UNL     1      26.849  13.268  -2.136  0.00  0.00    -0.061 NA
BRANCH  11  13
ATOM     13  C   UNL     1      24.826  12.899  -0.844  0.00  0.00    +0.067 A 
ATOM     14  C   UNL     1      25.417  12.130   0.168  0.00  0.00    +0.029 A 
ATOM     15  C   UNL     1      24.621  11.341   1.005  0.00  0.00    +0.017 A 
ATOM     16  C   UNL     1      23.238  11.322   0.835  0.00  0.00    +0.018 A 
ATOM     17 BR   UNL     1      22.172  10.233   1.952  0.00  0.00    -0.050 Br
ATOM     18  C   UNL     1      22.638  12.094  -0.158  0.00  0.00    +0.017 A 
ATOM     19  C   UNL     1      23.429  12.884  -0.996  0.00  0.00    +0.029 A 
ENDBRANCH  11  13
ENDBRANCH   7   9
ENDBRANCH   6   7
ENDBRANCH   5   6
ENDBRANCH   1   5
BRANCH   2  20
ATOM     20  C   UNL     1      30.653  16.755  -0.080  0.00  0.00    +0.152 C 
BRANCH  20  21
ATOM     21  C   UNL     1      30.651  15.265   0.317  0.00  0.00    +0.193 C 
ATOM     22  O   UNL     1      31.118  14.527  -0.834  0.00  0.00    -0.219 OA
BRANCH  21  23
ATOM     23  C   UNL     1      31.592  14.829   1.462  0.00  0.00    +0.212 C 
ATOM     24  O   UNL     1      31.586  15.805   2.516  0.00  0.00    -0.218 OA
BRANCH  23  25
ATOM     25  C   UNL     1      31.221  13.424   2.074  0.00  0.00    +0.171 C 
ATOM     26  O   UNL     1      29.827  13.288   2.328  0.00  0.00    -0.343 OA
ATOM     27  C   UNL     1      29.259  12.259   3.082  0.00  0.00    +0.220 C 
ATOM     28  C   UNL     1      29.960  12.095   4.442  0.00  0.00    +0.076 C 
ATOM     29  C   UNL     1      31.466  11.945   4.172  0.00  0.00    +0.177 C 
ATOM     30  O   UNL     1      32.159  11.751   5.397  0.00  0.00    -0.221 OA
ATOM     31  C   UNL     1      32.003  13.197   3.410  0.00  0.00    +0.155 C 
BRANCH  31  32
ATOM     32  N   UNL     1      33.435  13.062   3.157  0.00  0.00    -0.202 NA
ATOM     33  C   UNL     1      34.479  13.742   3.694  0.00  0.00    +0.242 C 
ATOM     34  C   UNL     1      35.870  13.204   3.480  0.00  0.00    +0.096 C 
ATOM     35  O   UNL     1      34.269  14.768   4.337  0.00  0.00    -0.273 OA
ENDBRANCH  31  32
BRANCH  27  36
ATOM     36  C   UNL     1      29.168  10.846   2.284  0.00  0.00    +0.391 C 
ATOM     37  O   UNL     1      28.950   9.921   3.239  0.00  0.00    -0.243 OA
ATOM     38  O   UNL     1      29.041  11.161   0.989  0.00  0.00    -0.243 OA
ENDBRANCH  27  36
ENDBRANCH  23  25
ENDBRANCH  21  23
ENDBRANCH  20  21
ENDBRANCH   2  20
TORSDOF 11
