REMARK VINA RESULT:    -7.253      1.734      2.955
REMARK INTER + INTRA:         -14.210
REMARK INTER:                 -12.144
REMARK INTRA:                  -2.066
REMARK UNBOUND:                -1.658
REMARK  Name = lig_assembled_60.pdb
REMARK  13 active torsions:
REMARK  status: ('A' for Active; 'I' for Inactive)
REMARK    1  A    between atoms: _2  and  _9
REMARK    2  A    between atoms: _3  and  _44
REMARK    3  A    between atoms: _6  and  _7
REMARK    4  A    between atoms: _6  and  _16
REMARK    5  A    between atoms: _12  and  _44
REMARK    6  A    between atoms: _16  and  _18
REMARK    7  A    between atoms: _17  and  _22
REMARK    8  A    between atoms: _18  and  _21
REMARK    9  A    between atoms: _26  and  _36
REMARK   10  A    between atoms: _28  and  _29
REMARK   11  A    between atoms: _30  and  _32
REMARK   12  A    between atoms: _32  and  _34
REMARK   13  A    between atoms: _34  and  _36
REMARK                            x       y       z     vdW  Elec       q    Type
REMARK                         _______ _______ _______ _____ _____    ______ ____
ROOT
ATOM      1  C   UNL     1      27.961  17.381  -0.761  0.00  0.00    +0.400 C 
ATOM      2  N   UNL     1      28.651  16.395  -0.095  0.00  0.00    -0.278 N 
ATOM      3  H   UNL     1      28.888  16.849   0.843  0.00  0.00    +0.152 HD
ATOM      4  O   UNL     1      27.636  18.385  -0.133  0.00  0.00    -0.226 OA
ENDROOT
BRANCH   2   5
ATOM      5  C   UNL     1      29.178  15.033  -0.089  0.00  0.00    +0.152 C 
BRANCH   5   6
ATOM      6  C   UNL     1      30.701  14.895   0.113  0.00  0.00    +0.193 C 
ATOM      7  O   UNL     1      31.020  15.577   1.346  0.00  0.00    -0.219 OA
BRANCH   6   8
ATOM      8  C   UNL     1      31.272  13.472   0.301  0.00  0.00    +0.212 C 
ATOM      9  O   UNL     1      32.271  13.196  -0.694  0.00  0.00    -0.218 OA
BRANCH   8  10
ATOM     10  C   UNL     1      31.902  13.235   1.727  0.00  0.00    +0.171 C 
ATOM     11  O   UNL     1      33.251  12.785   1.661  0.00  0.00    -0.343 OA
ATOM     12  C   UNL     1      33.964  12.271   2.747  0.00  0.00    +0.220 C 
ATOM     13  C   UNL     1      33.178  11.166   3.474  0.00  0.00    +0.076 C 
ATOM     14  C   UNL     1      31.792  11.735   3.820  0.00  0.00    +0.177 C 
ATOM     15  O   UNL     1      31.037  10.764   4.531  0.00  0.00    -0.221 OA
ATOM     16  C   UNL     1      31.056  12.186   2.520  0.00  0.00    +0.155 C 
BRANCH  16  17
ATOM     17  N   UNL     1      29.736  12.721   2.845  0.00  0.00    -0.202 NA
ATOM     18  C   UNL     1      28.505  12.232   2.549  0.00  0.00    +0.242 C 
ATOM     19  C   UNL     1      27.312  12.823   3.256  0.00  0.00    +0.096 C 
ATOM     20  O   UNL     1      28.392  11.329   1.723  0.00  0.00    -0.273 OA
ENDBRANCH  16  17
BRANCH  12  21
ATOM     21  C   UNL     1      34.482  13.413   3.780  0.00  0.00    +0.391 C 
ATOM     22  O   UNL     1      34.757  12.751   4.920  0.00  0.00    -0.243 OA
ATOM     23  O   UNL     1      34.725  14.500   3.038  0.00  0.00    -0.243 OA
ENDBRANCH  12  21
ENDBRANCH   8  10
ENDBRANCH   6   8
ENDBRANCH   5   6
ENDBRANCH   2   5
BRANCH   1  24
ATOM     24  O   UNL     1      27.746  17.163  -2.017  0.00  0.00    -0.450 OA
BRANCH  24  25
ATOM     25  C   UNL     1      26.831  17.530  -3.023  0.00  0.00    +0.240 C 
BRANCH  25  26
ATOM     26  C   UNL     1      26.520  16.490  -4.116  0.00  0.00    +0.100 C 
BRANCH  26  28
ATOM     27  N   UNL     1      26.624  14.022  -3.936  0.00  0.00    -0.134 NA
ATOM     28  C   UNL     1      26.112  15.211  -3.504  0.00  0.00    +0.086 A 
ATOM     29  C   UNL     1      25.233  14.974  -2.473  0.00  0.00    +0.139 A 
ATOM     30  N   UNL     1      25.270  13.612  -2.282  0.00  0.00    -0.220 N 
ATOM     31  N   UNL     1      26.101  13.054  -3.195  0.00  0.00    -0.061 NA
BRANCH  30  32
ATOM     32  C   UNL     1      24.614  12.840  -1.287  0.00  0.00    +0.067 A 
ATOM     33  C   UNL     1      23.213  12.830  -1.199  0.00  0.00    +0.030 A 
ATOM     34  C   UNL     1      22.581  12.122  -0.174  0.00  0.00    +0.030 A 
ATOM     35  C   UNL     1      23.346  11.414   0.755  0.00  0.00    +0.105 A 
ATOM     36  C   UNL     1      24.742  11.403   0.668  0.00  0.00    +0.030 A 
ATOM     37  C   UNL     1      25.374  12.110  -0.358  0.00  0.00    +0.030 A 
BRANCH  35  38
ATOM     38  S   UNL     1      22.538  10.587   2.094  0.00  0.00    +0.056 S 
ATOM     39  O   UNL     1      21.685   9.549   1.569  0.00  0.00    -0.153 OA
ATOM     40  O   UNL     1      23.498  10.346   3.147  0.00  0.00    -0.153 OA
BRANCH  38  41
ATOM     41  N   UNL     1      21.514  11.787   2.666  0.00  0.00    -0.204 NA
ATOM     42  H   UNL     1      22.059  12.518   3.121  0.00  0.00    +0.144 HD
ATOM     43  H   UNL     1      20.800  11.371   3.266  0.00  0.00    +0.144 HD
ENDBRANCH  38  41
ENDBRANCH  35  38
ENDBRANCH  30  32
ENDBRANCH  26  28
ENDBRANCH  25  26
ENDBRANCH  24  25
ENDBRANCH   1  24
TORSDOF 13
