REMARK VINA RESULT:    -6.789      3.339      4.394
REMARK INTER + INTRA:         -12.978
REMARK INTER:                 -11.864
REMARK INTRA:                  -1.113
REMARK UNBOUND:                -1.427
REMARK  Name = lig_assembled_6.pdb
REMARK  12 active torsions:
REMARK  status: ('A' for Active; 'I' for Inactive)
REMARK    1  A    between atoms: _2  and  _9
REMARK    2  A    between atoms: _3  and  _12
REMARK    3  A    between atoms: _6  and  _7
REMARK    4  A    between atoms: _6  and  _16
REMARK    5  A    between atoms: _16  and  _18
REMARK    6  A    between atoms: _17  and  _22
REMARK    7  A    between atoms: _18  and  _21
REMARK    8  A    between atoms: _26  and  _36
REMARK    9  A    between atoms: _28  and  _29
REMARK   10  A    between atoms: _30  and  _32
REMARK   11  A    between atoms: _32  and  _34
REMARK   12  A    between atoms: _34  and  _36
REMARK                            x       y       z     vdW  Elec       q    Type
REMARK                         _______ _______ _______ _____ _____    ______ ____
ROOT
ATOM      1  C   UNL     1      28.250  17.707  -0.674  0.00  0.00    +0.400 C 
ATOM      2  N   UNL     1      29.369  17.274  -0.003  0.00  0.00    -0.278 N 
ATOM      3  H   UNL     1      29.385  17.886   0.873  0.00  0.00    +0.152 HD
ATOM      4  O   UNL     1      27.490  18.480  -0.095  0.00  0.00    -0.226 OA
ENDROOT
BRANCH   2   5
ATOM      5  C   UNL     1      30.510  16.364   0.056  0.00  0.00    +0.152 C 
BRANCH   5   6
ATOM      6  C   UNL     1      30.259  15.002   0.736  0.00  0.00    +0.193 C 
ATOM      7  O   UNL     1      29.063  14.454   0.140  0.00  0.00    -0.219 OA
BRANCH   6   8
ATOM      8  C   UNL     1      31.324  13.900   0.545  0.00  0.00    +0.212 C 
ATOM      9  O   UNL     1      32.318  14.322  -0.403  0.00  0.00    -0.218 OA
BRANCH   8  10
ATOM     10  C   UNL     1      32.047  13.492   1.885  0.00  0.00    +0.171 C 
ATOM     11  O   UNL     1      33.379  13.035   1.672  0.00  0.00    -0.343 OA
ATOM     12  C   UNL     1      34.155  12.390   2.637  0.00  0.00    +0.220 C 
ATOM     13  C   UNL     1      33.399  11.217   3.286  0.00  0.00    +0.076 C 
ATOM     14  C   UNL     1      32.053  11.760   3.795  0.00  0.00    +0.177 C 
ATOM     15  O   UNL     1      31.329  10.723   4.441  0.00  0.00    -0.221 OA
ATOM     16  C   UNL     1      31.237  12.368   2.612  0.00  0.00    +0.155 C 
BRANCH  16  17
ATOM     17  N   UNL     1      29.955  12.878   3.089  0.00  0.00    -0.202 NA
ATOM     18  C   UNL     1      28.696  12.442   2.828  0.00  0.00    +0.242 C 
ATOM     19  C   UNL     1      27.568  12.961   3.682  0.00  0.00    +0.096 C 
ATOM     20  O   UNL     1      28.507  11.643   1.914  0.00  0.00    -0.273 OA
ENDBRANCH  16  17
BRANCH  12  21
ATOM     21  C   UNL     1      34.768  13.397   3.755  0.00  0.00    +0.391 C 
ATOM     22  O   UNL     1      35.002  12.621   4.831  0.00  0.00    -0.243 OA
ATOM     23  O   UNL     1      35.085  14.523   3.103  0.00  0.00    -0.243 OA
ENDBRANCH  12  21
ENDBRANCH   8  10
ENDBRANCH   6   8
ENDBRANCH   5   6
ENDBRANCH   2   5
BRANCH   1  24
ATOM     24  O   UNL     1      28.121  17.274  -1.885  0.00  0.00    -0.450 OA
BRANCH  24  25
ATOM     25  C   UNL     1      27.116  16.788  -2.744  0.00  0.00    +0.240 C 
BRANCH  25  26
ATOM     26  C   UNL     1      26.590  15.363  -2.489  0.00  0.00    +0.100 C 
BRANCH  26  28
ATOM     27  N   UNL     1      25.132  14.723  -4.386  0.00  0.00    -0.134 NA
ATOM     28  C   UNL     1      25.263  15.187  -3.108  0.00  0.00    +0.086 A 
ATOM     29  C   UNL     1      24.012  15.417  -2.584  0.00  0.00    +0.139 A 
ATOM     30  N   UNL     1      23.136  15.044  -3.577  0.00  0.00    -0.220 N 
ATOM     31  N   UNL     1      23.838  14.647  -4.666  0.00  0.00    -0.061 NA
BRANCH  30  32
ATOM     32  C   UNL     1      21.717  15.007  -3.542  0.00  0.00    +0.067 A 
ATOM     33  C   UNL     1      20.959  15.709  -4.494  0.00  0.00    +0.034 A 
ATOM     34  C   UNL     1      19.563  15.716  -4.412  0.00  0.00    +0.086 A 
ATOM     35  C   UNL     1      18.921  15.017  -3.381  0.00  0.00    +0.273 A 
ATOM     36  C   UNL     1      19.667  14.292  -2.445  0.00  0.00    +0.086 A 
ATOM     37  C   UNL     1      21.064  14.287  -2.528  0.00  0.00    +0.034 A 
BRANCH  35  38
ATOM     38  N   UNL     1      17.458  15.063  -3.276  0.00  0.00    +0.080 N 
ATOM     39  O   UNL     1      16.900  16.153  -3.477  0.00  0.00    +0.041 OA
ATOM     40  O   UNL     1      16.866  14.015  -2.987  0.00  0.00    -0.576 OA
ENDBRANCH  35  38
ENDBRANCH  30  32
ENDBRANCH  26  28
ENDBRANCH  25  26
ENDBRANCH  24  25
ENDBRANCH   1  24
TORSDOF 12
