REMARK VINA RESULT:    -6.957      5.031     10.061
REMARK INTER + INTRA:         -13.099
REMARK INTER:                 -11.321
REMARK INTRA:                  -1.777
REMARK UNBOUND:                -1.669
REMARK  Name = lig_assembled_70.pdb
REMARK  11 active torsions:
REMARK  status: ('A' for Active; 'I' for Inactive)
REMARK    1  A    between atoms: _2  and  _9
REMARK    2  A    between atoms: _6  and  _7
REMARK    3  A    between atoms: _6  and  _17
REMARK    4  A    between atoms: _17  and  _19
REMARK    5  A    between atoms: _18  and  _23
REMARK    6  A    between atoms: _19  and  _22
REMARK    7  A    between atoms: _27  and  _37
REMARK    8  A    between atoms: _29  and  _30
REMARK    9  A    between atoms: _31  and  _33
REMARK   10  A    between atoms: _33  and  _35
REMARK   11  A    between atoms: _35  and  _37
REMARK                            x       y       z     vdW  Elec       q    Type
REMARK                         _______ _______ _______ _____ _____    ______ ____
ROOT
ATOM      1  C   UNL     1      32.970  13.541   1.801  0.00  0.00    +0.400 C 
ATOM      2  N   UNL     1      32.315  14.747   1.727  0.00  0.00    -0.278 N 
ATOM      3  H   UNL     1      33.111  15.461   1.722  0.00  0.00    +0.152 HD
ATOM      4  O   UNL     1      34.191  13.535   1.666  0.00  0.00    -0.226 OA
ENDROOT
BRANCH   1   5
ATOM      5  O   UNL     1      32.225  12.513   2.043  0.00  0.00    -0.450 OA
BRANCH   5   6
ATOM      6  C   UNL     1      31.728  11.788   3.144  0.00  0.00    +0.240 C 
BRANCH   6   7
ATOM      7  C   UNL     1      31.258  12.592   4.370  0.00  0.00    +0.100 C 
BRANCH   7   9
ATOM      8  N   UNL     1      33.410  12.030   5.466  0.00  0.00    -0.134 NA
ATOM      9  C   UNL     1      32.065  12.246   5.555  0.00  0.00    +0.086 A 
ATOM     10  C   UNL     1      31.672  12.087   6.864  0.00  0.00    +0.140 A 
ATOM     11  N   UNL     1      32.826  11.783   7.548  0.00  0.00    -0.218 N 
ATOM     12  N   UNL     1      33.863  11.743   6.680  0.00  0.00    -0.060 NA
BRANCH  11  13
ATOM     13  C   UNL     1      32.991  11.563   8.931  0.00  0.00    +0.086 A 
ATOM     14  C   UNL     1      32.035  12.004   9.832  0.00  0.00    +0.139 A 
ATOM     15  N   UNL     1      32.106  11.787  11.170  0.00  0.00    -0.253 NA
ATOM     16  C   UNL     1      33.158  11.098  11.649  0.00  0.00    +0.071 A 
ATOM     17  C   UNL     1      34.188  10.624  10.809  0.00  0.00    +0.002 A 
ATOM     18  C   UNL     1      35.272   9.908  11.347  0.00  0.00    +0.010 A 
ATOM     19  C   UNL     1      35.330   9.639  12.710  0.00  0.00    +0.001 A 
ATOM     20  C   UNL     1      34.315  10.095  13.542  0.00  0.00    +0.002 A 
ATOM     21  C   UNL     1      33.247  10.823  13.007  0.00  0.00    +0.028 A 
ATOM     22  C   UNL     1      34.094  10.875   9.435  0.00  0.00    +0.039 A 
ENDBRANCH  11  13
ENDBRANCH   7   9
ENDBRANCH   6   7
ENDBRANCH   5   6
ENDBRANCH   1   5
BRANCH   2  23
ATOM     23  C   UNL     1      31.051  15.473   1.638  0.00  0.00    +0.152 C 
BRANCH  23  24
ATOM     24  C   UNL     1      30.528  15.756   0.214  0.00  0.00    +0.193 C 
ATOM     25  O   UNL     1      31.672  16.149  -0.577  0.00  0.00    -0.219 OA
BRANCH  24  26
ATOM     26  C   UNL     1      29.906  14.578  -0.567  0.00  0.00    +0.212 C 
ATOM     27  O   UNL     1      30.856  13.509  -0.705  0.00  0.00    -0.218 OA
BRANCH  26  28
ATOM     28  C   UNL     1      28.598  14.006   0.104  0.00  0.00    +0.171 C 
ATOM     29  O   UNL     1      28.859  12.888   0.945  0.00  0.00    -0.343 OA
ATOM     30  C   UNL     1      27.872  12.045   1.464  0.00  0.00    +0.220 C 
ATOM     31  C   UNL     1      26.916  11.544   0.368  0.00  0.00    +0.076 C 
ATOM     32  C   UNL     1      26.385  12.776  -0.382  0.00  0.00    +0.177 C 
ATOM     33  O   UNL     1      25.463  12.370  -1.384  0.00  0.00    -0.221 OA
ATOM     34  C   UNL     1      27.571  13.583  -0.997  0.00  0.00    +0.155 C 
BRANCH  34  35
ATOM     35  N   UNL     1      27.071  14.751  -1.717  0.00  0.00    -0.202 NA
ATOM     36  C   UNL     1      26.760  14.894  -3.031  0.00  0.00    +0.242 C 
ATOM     37  C   UNL     1      25.986  16.115  -3.454  0.00  0.00    +0.096 C 
ATOM     38  O   UNL     1      27.112  14.033  -3.835  0.00  0.00    -0.273 OA
ENDBRANCH  34  35
BRANCH  30  39
ATOM     39  C   UNL     1      27.061  12.692   2.714  0.00  0.00    +0.391 C 
ATOM     40  O   UNL     1      26.041  11.843   2.943  0.00  0.00    -0.243 OA
ATOM     41  O   UNL     1      27.862  13.634   3.227  0.00  0.00    -0.243 OA
ENDBRANCH  30  39
ENDBRANCH  26  28
ENDBRANCH  24  26
ENDBRANCH  23  24
ENDBRANCH   2  23
TORSDOF 11
