REMARK VINA RESULT:    -6.871      1.853      2.793
REMARK INTER + INTRA:         -13.505
REMARK INTER:                 -11.888
REMARK INTRA:                  -1.618
REMARK UNBOUND:                -1.815
REMARK  Name = lig_assembled_71.pdb
REMARK  12 active torsions:
REMARK  status: ('A' for Active; 'I' for Inactive)
REMARK    1  A    between atoms: _2  and  _11
REMARK    2  A    between atoms: _8  and  _9
REMARK    3  A    between atoms: _8  and  _17
REMARK    4  A    between atoms: _11  and  _12
REMARK    5  A    between atoms: _17  and  _19
REMARK    6  A    between atoms: _18  and  _23
REMARK    7  A    between atoms: _19  and  _22
REMARK    8  A    between atoms: _27  and  _37
REMARK    9  A    between atoms: _29  and  _30
REMARK   10  A    between atoms: _31  and  _33
REMARK   11  A    between atoms: _33  and  _35
REMARK   12  A    between atoms: _35  and  _37
REMARK                            x       y       z     vdW  Elec       q    Type
REMARK                         _______ _______ _______ _____ _____    ______ ____
ROOT
ATOM      1  C   UNL     1      28.021  17.300  -0.899  0.00  0.00    +0.400 C 
ATOM      2  N   UNL     1      28.371  16.321   0.001  0.00  0.00    -0.278 N 
ATOM      3  H   UNL     1      28.715  16.876   0.848  0.00  0.00    +0.152 HD
ATOM      4  O   UNL     1      27.997  18.464  -0.510  0.00  0.00    -0.226 OA
ENDROOT
BRANCH   2   5
ATOM      5  C   UNL     1      28.469  14.899   0.318  0.00  0.00    +0.152 C 
BRANCH   5   6
ATOM      6  C   UNL     1      29.813  14.219  -0.015  0.00  0.00    +0.193 C 
ATOM      7  O   UNL     1      29.885  14.126  -1.455  0.00  0.00    -0.219 OA
BRANCH   6   8
ATOM      8  C   UNL     1      31.108  14.958   0.388  0.00  0.00    +0.212 C 
ATOM      9  O   UNL     1      30.799  16.107   1.194  0.00  0.00    -0.218 OA
BRANCH   8  10
ATOM     10  C   UNL     1      32.126  14.049   1.176  0.00  0.00    +0.171 C 
ATOM     11  O   UNL     1      32.450  14.574   2.459  0.00  0.00    -0.343 OA
ATOM     12  C   UNL     1      33.497  14.109   3.259  0.00  0.00    +0.220 C 
ATOM     13  C   UNL     1      34.821  14.035   2.479  0.00  0.00    +0.076 C 
ATOM     14  C   UNL     1      34.563  13.210   1.208  0.00  0.00    +0.177 C 
ATOM     15  O   UNL     1      35.768  13.076   0.468  0.00  0.00    -0.221 OA
ATOM     16  C   UNL     1      33.443  13.878   0.351  0.00  0.00    +0.155 C 
BRANCH  16  17
ATOM     17  N   UNL     1      33.200  13.101  -0.862  0.00  0.00    -0.202 NA
ATOM     18  C   UNL     1      33.282  13.476  -2.164  0.00  0.00    +0.242 C 
ATOM     19  C   UNL     1      33.268  12.402  -3.220  0.00  0.00    +0.096 C 
ATOM     20  O   UNL     1      33.367  14.669  -2.448  0.00  0.00    -0.273 OA
ENDBRANCH  16  17
BRANCH  12  21
ATOM     21  C   UNL     1      33.165  12.707   4.009  0.00  0.00    +0.391 C 
ATOM     22  O   UNL     1      31.884  12.437   3.690  0.00  0.00    -0.243 OA
ATOM     23  O   UNL     1      34.345  12.207   4.397  0.00  0.00    -0.243 OA
ENDBRANCH  12  21
ENDBRANCH   8  10
ENDBRANCH   6   8
ENDBRANCH   5   6
ENDBRANCH   2   5
BRANCH   1  24
ATOM     24  O   UNL     1      27.775  16.892  -2.101  0.00  0.00    -0.450 OA
BRANCH  24  25
ATOM     25  C   UNL     1      27.012  17.271  -3.223  0.00  0.00    +0.240 C 
BRANCH  25  26
ATOM     26  C   UNL     1      26.423  16.146  -4.095  0.00  0.00    +0.100 C 
BRANCH  26  28
ATOM     27  N   UNL     1      26.546  14.003  -2.846  0.00  0.00    -0.134 NA
ATOM     28  C   UNL     1      25.825  15.098  -3.246  0.00  0.00    +0.086 A 
ATOM     29  C   UNL     1      24.555  15.011  -2.726  0.00  0.00    +0.134 A 
ATOM     30  N   UNL     1      24.556  13.835  -2.034  0.00  0.00    -0.243 N 
ATOM     31  N   UNL     1      25.761  13.239  -2.097  0.00  0.00    -0.065 NA
BRANCH  30  32
ATOM     32  C   UNL     1      23.511  13.271  -1.205  0.00  0.00    +0.241 C 
BRANCH  32  33
ATOM     33  C   UNL     1      22.324  12.831  -2.022  0.00  0.00    +0.241 C 
ATOM     34  O   UNL     1      22.429  11.883  -2.800  0.00  0.00    -0.273 OA
ATOM     35  N   UNL     1      21.200  13.614  -1.867  0.00  0.00    -0.253 N 
ATOM     36  H   UNL     1      21.222  14.495  -1.377  0.00  0.00    +0.158 HD
ATOM     37  C   UNL     1      19.991  13.368  -2.508  0.00  0.00    +0.221 A 
ATOM     38  N   UNL     1      19.108  14.378  -2.473  0.00  0.00    -0.223 NA
ATOM     39  C   UNL     1      17.959  14.185  -3.154  0.00  0.00    +0.116 A 
ATOM     40  C   UNL     1      17.655  13.028  -3.833  0.00  0.00    +0.039 A 
ATOM     41  C   UNL     1      18.606  12.046  -3.764  0.00  0.00    +0.116 A 
ATOM     42  N   UNL     1      19.769  12.197  -3.112  0.00  0.00    -0.223 NA
ENDBRANCH  32  33
ENDBRANCH  30  32
ENDBRANCH  26  28
ENDBRANCH  25  26
ENDBRANCH  24  25
ENDBRANCH   1  24
TORSDOF 12
