REMARK VINA RESULT:    -6.050      1.687      2.359
REMARK INTER + INTRA:         -11.630
REMARK INTER:                 -10.043
REMARK INTRA:                  -1.587
REMARK UNBOUND:                -1.689
REMARK  Name = lig_assembled_49.pdb
REMARK  11 active torsions:
REMARK  status: ('A' for Active; 'I' for Inactive)
REMARK    1  A    between atoms: _2  and  _8
REMARK    2  A    between atoms: _5  and  _6
REMARK    3  A    between atoms: _5  and  _12
REMARK    4  A    between atoms: _12  and  _14
REMARK    5  A    between atoms: _13  and  _18
REMARK    6  A    between atoms: _14  and  _17
REMARK    7  A    between atoms: _22  and  _32
REMARK    8  A    between atoms: _24  and  _25
REMARK    9  A    between atoms: _26  and  _28
REMARK   10  A    between atoms: _28  and  _30
REMARK   11  A    between atoms: _30  and  _32
REMARK                            x       y       z     vdW  Elec       q    Type
REMARK                         _______ _______ _______ _____ _____    ______ ____
ROOT
ATOM      1  C   UNL     1      27.975  13.662   0.368  0.00  0.00    +0.152 C 
ENDROOT
BRANCH   1   3
ATOM      2  C   UNL     1      27.766  15.606  -1.536  0.00  0.00    +0.400 C 
ATOM      3  N   UNL     1      28.162  14.855  -0.454  0.00  0.00    -0.278 N 
ATOM      4  H   UNL     1      28.962  15.427  -0.036  0.00  0.00    +0.152 HD
ATOM      5  O   UNL     1      28.233  16.736  -1.659  0.00  0.00    -0.226 OA
BRANCH   2   6
ATOM      6  O   UNL     1      26.948  15.026  -2.351  0.00  0.00    -0.450 OA
BRANCH   6   7
ATOM      7  C   UNL     1      26.742  14.883  -3.737  0.00  0.00    +0.240 C 
BRANCH   7   8
ATOM      8  C   UNL     1      25.289  14.923  -4.248  0.00  0.00    +0.100 C 
BRANCH   8  10
ATOM      9  N   UNL     1      23.622  15.270  -2.455  0.00  0.00    -0.134 NA
ATOM     10  C   UNL     1      24.368  14.411  -3.217  0.00  0.00    +0.086 A 
ATOM     11  C   UNL     1      24.095  13.117  -2.836  0.00  0.00    +0.134 A 
ATOM     12  N   UNL     1      23.180  13.256  -1.833  0.00  0.00    -0.248 N 
ATOM     13  N   UNL     1      22.897  14.550  -1.609  0.00  0.00    -0.065 NA
BRANCH  12  14
ATOM     14  C   UNL     1      22.567  12.212  -1.048  0.00  0.00    +0.109 C 
ATOM     15  C   UNL     1      23.466  11.661   0.060  0.00  0.00    +0.027 C 
ATOM     16  C   UNL     1      22.482  10.948   0.973  0.00  0.00    +0.002 C 
ATOM     17  C   UNL     1      21.266  11.865   0.998  0.00  0.00    +0.002 C 
ATOM     18  C   UNL     1      21.279  12.632  -0.327  0.00  0.00    +0.027 C 
ENDBRANCH  12  14
ENDBRANCH   8  10
ENDBRANCH   7   8
ENDBRANCH   6   7
ENDBRANCH   2   6
ENDBRANCH   1   3
BRANCH   1  19
ATOM     19  C   UNL     1      28.830  13.579   1.649  0.00  0.00    +0.193 C 
ATOM     20  O   UNL     1      27.987  14.010   2.740  0.00  0.00    -0.219 OA
BRANCH  19  21
ATOM     21  C   UNL     1      29.337  12.185   2.081  0.00  0.00    +0.212 C 
ATOM     22  O   UNL     1      29.020  11.204   1.080  0.00  0.00    -0.218 OA
BRANCH  21  23
ATOM     23  C   UNL     1      30.888  12.142   2.355  0.00  0.00    +0.171 C 
ATOM     24  O   UNL     1      31.227  12.607   3.657  0.00  0.00    -0.343 OA
ATOM     25  C   UNL     1      32.527  12.904   4.075  0.00  0.00    +0.220 C 
ATOM     26  C   UNL     1      33.245  13.839   3.086  0.00  0.00    +0.076 C 
ATOM     27  C   UNL     1      33.143  13.202   1.690  0.00  0.00    +0.177 C 
ATOM     28  O   UNL     1      33.827  14.008   0.742  0.00  0.00    -0.221 OA
ATOM     29  C   UNL     1      31.645  13.009   1.296  0.00  0.00    +0.155 C 
BRANCH  29  30
ATOM     30  N   UNL     1      31.544  12.410  -0.033  0.00  0.00    -0.202 NA
ATOM     31  C   UNL     1      31.371  13.004  -1.241  0.00  0.00    +0.242 C 
ATOM     32  C   UNL     1      31.597  12.179  -2.482  0.00  0.00    +0.096 C 
ATOM     33  O   UNL     1      31.040  14.186  -1.295  0.00  0.00    -0.273 OA
ENDBRANCH  29  30
BRANCH  25  34
ATOM     34  C   UNL     1      33.418  11.585   4.404  0.00  0.00    +0.391 C 
ATOM     35  O   UNL     1      34.680  12.040   4.524  0.00  0.00    -0.243 OA
ATOM     36  O   UNL     1      32.546  10.621   4.725  0.00  0.00    -0.243 OA
ENDBRANCH  25  34
ENDBRANCH  21  23
ENDBRANCH  19  21
ENDBRANCH   1  19
TORSDOF 11
