REMARK VINA RESULT:    -6.725     21.288     24.740
REMARK INTER + INTRA:         -12.673
REMARK INTER:                 -10.874
REMARK INTRA:                  -1.799
REMARK UNBOUND:                -1.624
REMARK  Name = lig_assembled_3.pdb
REMARK  11 active torsions:
REMARK  status: ('A' for Active; 'I' for Inactive)
REMARK    1  A    between atoms: _2  and  _8
REMARK    2  A    between atoms: _5  and  _6
REMARK    3  A    between atoms: _5  and  _13
REMARK    4  A    between atoms: _13  and  _15
REMARK    5  A    between atoms: _14  and  _19
REMARK    6  A    between atoms: _15  and  _18
REMARK    7  A    between atoms: _23  and  _33
REMARK    8  A    between atoms: _25  and  _26
REMARK    9  A    between atoms: _27  and  _29
REMARK   10  A    between atoms: _29  and  _31
REMARK   11  A    between atoms: _31  and  _33
REMARK                            x       y       z     vdW  Elec       q    Type
REMARK                         _______ _______ _______ _____ _____    ______ ____
ROOT
ATOM      1  C   UNL     1      46.922  25.433   9.795  0.00  0.00    +0.152 C 
ENDROOT
BRANCH   1   3
ATOM      2  C   UNL     1      44.864  26.683  11.078  0.00  0.00    +0.400 C 
ATOM      3  N   UNL     1      45.623  25.989  10.166  0.00  0.00    -0.278 N 
ATOM      4  H   UNL     1      44.934  25.784   9.375  0.00  0.00    +0.152 HD
ATOM      5  O   UNL     1      43.739  27.045  10.739  0.00  0.00    -0.226 OA
BRANCH   2   6
ATOM      6  O   UNL     1      45.407  26.864  12.237  0.00  0.00    -0.450 OA
BRANCH   6   7
ATOM      7  C   UNL     1      46.419  26.305  13.041  0.00  0.00    +0.240 C 
BRANCH   7   8
ATOM      8  C   UNL     1      47.029  27.197  14.139  0.00  0.00    +0.100 C 
BRANCH   8  10
ATOM      9  N   UNL     1      45.177  28.082  15.521  0.00  0.00    -0.134 NA
ATOM     10  C   UNL     1      46.181  27.174  15.346  0.00  0.00    +0.086 A 
ATOM     11  C   UNL     1      46.213  26.324  16.427  0.00  0.00    +0.139 A 
ATOM     12  N   UNL     1      45.179  26.737  17.236  0.00  0.00    -0.220 N 
ATOM     13  N   UNL     1      44.577  27.814  16.673  0.00  0.00    -0.061 NA
BRANCH  12  14
ATOM     14  C   UNL     1      44.731  26.178  18.461  0.00  0.00    +0.067 A 
ATOM     15  C   UNL     1      44.314  27.001  19.517  0.00  0.00    +0.028 A 
ATOM     16  C   UNL     1      43.905  26.432  20.727  0.00  0.00    +0.002 A 
ATOM     17  C   UNL     1      43.906  25.048  20.888  0.00  0.00    +0.000 A 
ATOM     18  C   UNL     1      44.312  24.225  19.838  0.00  0.00    +0.002 A 
ATOM     19  C   UNL     1      44.722  24.785  18.626  0.00  0.00    +0.028 A 
ENDBRANCH  12  14
ENDBRANCH   8  10
ENDBRANCH   7   8
ENDBRANCH   6   7
ENDBRANCH   2   6
ENDBRANCH   1   3
BRANCH   1  20
ATOM     20  C   UNL     1      47.055  23.899   9.886  0.00  0.00    +0.193 C 
ATOM     21  O   UNL     1      48.362  23.628  10.440  0.00  0.00    -0.219 OA
BRANCH  20  22
ATOM     22  C   UNL     1      46.078  23.151  10.820  0.00  0.00    +0.212 C 
ATOM     23  O   UNL     1      44.727  23.301  10.356  0.00  0.00    -0.218 OA
BRANCH  22  24
ATOM     24  C   UNL     1      46.397  21.613  10.954  0.00  0.00    +0.171 C 
ATOM     25  O   UNL     1      45.638  20.815  10.051  0.00  0.00    -0.343 OA
ATOM     26  C   UNL     1      45.541  19.423  10.119  0.00  0.00    +0.220 C 
ATOM     27  C   UNL     1      45.164  18.947  11.533  0.00  0.00    +0.076 C 
ATOM     28  C   UNL     1      46.167  19.575  12.515  0.00  0.00    +0.177 C 
ATOM     29  O   UNL     1      45.887  19.134  13.837  0.00  0.00    -0.221 OA
ATOM     30  C   UNL     1      46.115  21.131  12.415  0.00  0.00    +0.155 C 
BRANCH  30  31
ATOM     31  N   UNL     1      47.062  21.731  13.351  0.00  0.00    -0.202 NA
ATOM     32  C   UNL     1      46.845  22.621  14.353  0.00  0.00    +0.242 C 
ATOM     33  C   UNL     1      47.945  22.851  15.356  0.00  0.00    +0.096 C 
ATOM     34  O   UNL     1      45.768  23.211  14.419  0.00  0.00    -0.273 OA
ENDBRANCH  30  31
BRANCH  26  35
ATOM     35  C   UNL     1      46.858  18.654   9.561  0.00  0.00    +0.391 C 
ATOM     36  O   UNL     1      46.765  17.404  10.054  0.00  0.00    -0.243 OA
ATOM     37  O   UNL     1      47.365  19.438   8.602  0.00  0.00    -0.243 OA
ENDBRANCH  26  35
ENDBRANCH  22  24
ENDBRANCH  20  22
ENDBRANCH   1  20
TORSDOF 11
