REMARK VINA RESULT:    -7.166      1.917      3.120
REMARK INTER + INTRA:         -14.078
REMARK INTER:                 -11.740
REMARK INTRA:                  -2.338
REMARK UNBOUND:                -1.466
REMARK  Name = lig_assembled_78.pdb
REMARK  13 active torsions:
REMARK  status: ('A' for Active; 'I' for Inactive)
REMARK    1  A    between atoms: _2  and  _8
REMARK    2  A    between atoms: _5  and  _6
REMARK    3  A    between atoms: _5  and  _16
REMARK    4  A    between atoms: _8  and  _44
REMARK    5  A    between atoms: _9  and  _44
REMARK    6  A    between atoms: _16  and  _18
REMARK    7  A    between atoms: _17  and  _22
REMARK    8  A    between atoms: _18  and  _21
REMARK    9  A    between atoms: _26  and  _36
REMARK   10  A    between atoms: _28  and  _29
REMARK   11  A    between atoms: _30  and  _32
REMARK   12  A    between atoms: _32  and  _34
REMARK   13  A    between atoms: _34  and  _36
REMARK                            x       y       z     vdW  Elec       q    Type
REMARK                         _______ _______ _______ _____ _____    ______ ____
ROOT
ATOM      1  C   UNL     1      28.395  17.025  -0.690  0.00  0.00    +0.400 C 
ATOM      2  N   UNL     1      28.749  15.872  -0.031  0.00  0.00    -0.278 N 
ATOM      3  H   UNL     1      29.235  16.230   0.851  0.00  0.00    +0.152 HD
ATOM      4  O   UNL     1      28.525  18.094  -0.098  0.00  0.00    -0.226 OA
ENDROOT
BRANCH   2   5
ATOM      5  C   UNL     1      28.745  14.412   0.011  0.00  0.00    +0.152 C 
BRANCH   5   6
ATOM      6  C   UNL     1      30.125  13.726  -0.071  0.00  0.00    +0.193 C 
ATOM      7  O   UNL     1      30.817  14.319  -1.192  0.00  0.00    -0.219 OA
BRANCH   6   8
ATOM      8  C   UNL     1      31.089  13.915   1.121  0.00  0.00    +0.212 C 
ATOM      9  O   UNL     1      30.813  15.152   1.799  0.00  0.00    -0.218 OA
BRANCH   8  10
ATOM     10  C   UNL     1      31.022  12.740   2.170  0.00  0.00    +0.171 C 
ATOM     11  O   UNL     1      29.693  12.464   2.599  0.00  0.00    -0.343 OA
ATOM     12  C   UNL     1      29.369  11.652   3.688  0.00  0.00    +0.220 C 
ATOM     13  C   UNL     1      30.152  12.052   4.951  0.00  0.00    +0.076 C 
ATOM     14  C   UNL     1      31.644  12.075   4.582  0.00  0.00    +0.177 C 
ATOM     15  O   UNL     1      32.419  12.401   5.727  0.00  0.00    -0.221 OA
ATOM     16  C   UNL     1      31.895  13.087   3.421  0.00  0.00    +0.155 C 
BRANCH  16  17
ATOM     17  N   UNL     1      33.313  13.117   3.072  0.00  0.00    -0.202 NA
ATOM     18  C   UNL     1      34.277  14.002   3.432  0.00  0.00    +0.242 C 
ATOM     19  C   UNL     1      35.716  13.636   3.176  0.00  0.00    +0.096 C 
ATOM     20  O   UNL     1      33.958  15.068   3.955  0.00  0.00    -0.273 OA
ENDBRANCH  16  17
BRANCH  12  21
ATOM     21  C   UNL     1      29.510  10.064   3.376  0.00  0.00    +0.391 C 
ATOM     22  O   UNL     1      29.523   9.472   4.586  0.00  0.00    -0.243 OA
ATOM     23  O   UNL     1      29.260   9.920   2.069  0.00  0.00    -0.243 OA
ENDBRANCH  12  21
ENDBRANCH   8  10
ENDBRANCH   6   8
ENDBRANCH   5   6
ENDBRANCH   2   5
BRANCH   1  24
ATOM     24  O   UNL     1      27.980  16.872  -1.904  0.00  0.00    -0.450 OA
BRANCH  24  25
ATOM     25  C   UNL     1      26.936  17.313  -2.740  0.00  0.00    +0.240 C 
BRANCH  25  26
ATOM     26  C   UNL     1      26.744  16.584  -4.084  0.00  0.00    +0.100 C 
BRANCH  26  28
ATOM     27  N   UNL     1      24.906  15.059  -4.745  0.00  0.00    -0.134 NA
ATOM     28  C   UNL     1      25.936  15.366  -3.895  0.00  0.00    +0.086 A 
ATOM     29  C   UNL     1      26.033  14.382  -2.936  0.00  0.00    +0.135 A 
ATOM     30  N   UNL     1      25.076  13.481  -3.292  0.00  0.00    -0.230 N 
ATOM     31  N   UNL     1      24.371  13.912  -4.351  0.00  0.00    -0.064 NA
BRANCH  30  32
ATOM     32  C   UNL     1      24.718  12.243  -2.643  0.00  0.00    +0.316 C 
BRANCH  32  33
ATOM     33  S   UNL     1      23.467  12.428  -1.400  0.00  0.00    +0.017 S 
ATOM     34  O   UNL     1      23.087  13.823  -1.285  0.00  0.00    -0.168 OA
ATOM     35  O   UNL     1      22.464  11.398  -1.617  0.00  0.00    -0.168 OA
BRANCH  33  36
ATOM     36  C   UNL     1      24.302  12.026   0.121  0.00  0.00    +0.090 A 
ATOM     37  C   UNL     1      23.602  11.351   1.126  0.00  0.00    +0.027 A 
ATOM     38  C   UNL     1      24.260  11.012   2.309  0.00  0.00    +0.002 A 
ATOM     39  C   UNL     1      25.609  11.330   2.474  0.00  0.00    +0.000 A 
ATOM     40  C   UNL     1      26.307  11.985   1.459  0.00  0.00    +0.002 A 
ATOM     41  C   UNL     1      25.655  12.336   0.277  0.00  0.00    +0.027 A 
ENDBRANCH  33  36
ENDBRANCH  32  33
ENDBRANCH  30  32
ENDBRANCH  26  28
ENDBRANCH  25  26
ENDBRANCH  24  25
ENDBRANCH   1  24
TORSDOF 13
