REMARK VINA RESULT:    -7.394      3.208     10.395
REMARK INTER + INTRA:         -16.460
REMARK INTER:                 -13.462
REMARK INTRA:                  -2.998
REMARK UNBOUND:                -3.231
REMARK  Name = lig_assembled_34.pdb
REMARK  14 active torsions:
REMARK  status: ('A' for Active; 'I' for Inactive)
REMARK    1  A    between atoms: _2  and  _8
REMARK    2  A    between atoms: _5  and  _6
REMARK    3  A    between atoms: _5  and  _32
REMARK    4  A    between atoms: _10  and  _11
REMARK    5  A    between atoms: _12  and  _13
REMARK    6  A    between atoms: _17  and  _30
REMARK    7  A    between atoms: _32  and  _34
REMARK    8  A    between atoms: _33  and  _38
REMARK    9  A    between atoms: _34  and  _37
REMARK   10  A    between atoms: _42  and  _52
REMARK   11  A    between atoms: _44  and  _45
REMARK   12  A    between atoms: _46  and  _48
REMARK   13  A    between atoms: _48  and  _50
REMARK   14  A    between atoms: _50  and  _52
REMARK                            x       y       z     vdW  Elec       q    Type
REMARK                         _______ _______ _______ _____ _____    ______ ____
ROOT
ATOM      1  N   UNL     1      23.926  15.888  -3.074  0.00  0.00    -0.134 NA
ATOM      2  C   UNL     1      25.176  15.392  -3.315  0.00  0.00    +0.086 A 
ATOM      3  C   UNL     1      25.311  14.191  -2.663  0.00  0.00    +0.139 A 
ATOM      4  N   UNL     1      24.099  13.967  -2.047  0.00  0.00    -0.220 N 
ATOM      5  N   UNL     1      23.281  15.026  -2.291  0.00  0.00    -0.061 NA
ENDROOT
BRANCH   4   6
ATOM      6  C   UNL     1      23.690  12.823  -1.310  0.00  0.00    +0.068 A 
ATOM      7  C   UNL     1      24.613  11.806  -1.044  0.00  0.00    +0.038 A 
ATOM      8  C   UNL     1      24.246  10.584  -0.429  0.00  0.00    +0.007 A 
ATOM      9  C   UNL     1      22.914  10.419  -0.002  0.00  0.00    -0.008 A 
ATOM     10  C   UNL     1      21.997  11.473  -0.232  0.00  0.00    +0.011 A 
ATOM     11  C   UNL     1      22.370  12.656  -0.893  0.00  0.00    +0.028 A 
BRANCH   9  12
ATOM     12  C   UNL     1      22.365   9.165   0.612  0.00  0.00    +0.004 A 
ATOM     13  C   UNL     1      22.435   8.917   1.950  0.00  0.00    +0.026 A 
ATOM     14  C   UNL     1      23.106   9.823   2.891  0.00  0.00    +0.016 A 
ATOM     15  C   UNL     1      23.328   9.472   4.167  0.00  0.00    +0.051 A 
ATOM     16  C   UNL     1      22.867   8.159   4.680  0.00  0.00    +0.183 A 
ATOM     17  O   UNL     1      23.119   7.798   5.827  0.00  0.00    -0.288 OA
ATOM     18  C   UNL     1      22.029   7.336   3.787  0.00  0.00    +0.097 A 
ATOM     19  C   UNL     1      21.802   7.713   2.522  0.00  0.00    +0.140 A 
ATOM     20  O   UNL     1      20.897   6.981   1.769  0.00  0.00    -0.455 OA
ATOM     21  C   UNL     1      20.846   7.196   0.417  0.00  0.00    +0.140 A 
ATOM     22  C   UNL     1      19.986   6.370  -0.308  0.00  0.00    +0.092 A 
ATOM     23  C   UNL     1      19.928   6.492  -1.687  0.00  0.00    +0.120 A 
ATOM     24  C   UNL     1      20.775   7.372  -2.353  0.00  0.00    +0.046 A 
ATOM     25  C   UNL     1      21.621   8.203  -1.612  0.00  0.00    +0.016 A 
ATOM     26  C   UNL     1      21.621   8.169  -0.210  0.00  0.00    +0.026 A 
BRANCH  23  27
ATOM     27  O   UNL     1      19.016   5.739  -2.365  0.00  0.00    -0.507 OA
ATOM     28  H   UNL     1      19.403   5.515  -3.227  0.00  0.00    +0.292 HD
ENDBRANCH  23  27
ENDBRANCH   9  12
BRANCH   8  29
ATOM     29  C   UNL     1      25.321   9.517  -0.352  0.00  0.00    +0.072 C 
ATOM     30  O   UNL     1      25.411   8.739  -1.356  0.00  0.00    -0.545 OA
ATOM     31  O   UNL     1      25.993   9.417   0.717  0.00  0.00    -0.545 OA
ENDBRANCH   8  29
ENDBRANCH   4   6
BRANCH   2  32
ATOM     32  C   UNL     1      26.159  16.099  -4.158  0.00  0.00    +0.100 C 
BRANCH  32  33
ATOM     33  C   UNL     1      26.733  17.322  -3.418  0.00  0.00    +0.240 C 
BRANCH  33  34
ATOM     34  O   UNL     1      27.677  17.083  -2.400  0.00  0.00    -0.450 OA
BRANCH  34  35
ATOM     35  C   UNL     1      27.851  17.339  -1.145  0.00  0.00    +0.400 C 
ATOM     36  N   UNL     1      28.209  16.266  -0.363  0.00  0.00    -0.278 N 
ATOM     37  H   UNL     1      28.490  16.719   0.564  0.00  0.00    +0.152 HD
ATOM     38  O   UNL     1      27.755  18.440  -0.610  0.00  0.00    -0.226 OA
BRANCH  36  39
ATOM     39  C   UNL     1      28.361  14.820  -0.229  0.00  0.00    +0.152 C 
BRANCH  39  40
ATOM     40  C   UNL     1      29.555  14.338   0.621  0.00  0.00    +0.193 C 
ATOM     41  O   UNL     1      29.339  12.933   0.881  0.00  0.00    -0.219 OA
BRANCH  40  42
ATOM     42  C   UNL     1      30.959  14.400  -0.019  0.00  0.00    +0.212 C 
ATOM     43  O   UNL     1      31.360  15.765  -0.218  0.00  0.00    -0.218 OA
BRANCH  42  44
ATOM     44  C   UNL     1      32.067  13.669   0.832  0.00  0.00    +0.171 C 
ATOM     45  O   UNL     1      32.240  14.251   2.120  0.00  0.00    -0.343 OA
ATOM     46  C   UNL     1      33.305  13.964   2.977  0.00  0.00    +0.220 C 
ATOM     47  C   UNL     1      34.662  14.091   2.263  0.00  0.00    +0.076 C 
ATOM     48  C   UNL     1      34.600  13.223   0.995  0.00  0.00    +0.177 C 
ATOM     49  O   UNL     1      35.847  13.273   0.316  0.00  0.00    -0.221 OA
ATOM     50  C   UNL     1      33.434  13.700   0.074  0.00  0.00    +0.155 C 
BRANCH  50  51
ATOM     51  N   UNL     1      33.376  12.882  -1.135  0.00  0.00    -0.202 NA
ATOM     52  C   UNL     1      33.425  13.257  -2.439  0.00  0.00    +0.242 C 
ATOM     53  C   UNL     1      33.643  12.192  -3.481  0.00  0.00    +0.096 C 
ATOM     54  O   UNL     1      33.292  14.442  -2.735  0.00  0.00    -0.273 OA
ENDBRANCH  50  51
BRANCH  46  55
ATOM     55  C   UNL     1      33.160  12.534   3.734  0.00  0.00    +0.391 C 
ATOM     56  O   UNL     1      34.410  12.220   4.126  0.00  0.00    -0.243 OA
ATOM     57  O   UNL     1      31.850  12.360   3.946  0.00  0.00    -0.243 OA
ENDBRANCH  46  55
ENDBRANCH  42  44
ENDBRANCH  40  42
ENDBRANCH  39  40
ENDBRANCH  36  39
ENDBRANCH  34  35
ENDBRANCH  33  34
ENDBRANCH  32  33
ENDBRANCH   2  32
TORSDOF 14
