REMARK VINA RESULT:    -6.576      2.588      4.172
REMARK INTER + INTRA:         -13.477
REMARK INTER:                 -11.381
REMARK INTRA:                  -2.096
REMARK UNBOUND:                -2.096
REMARK  Name = lig_assembled_88.pdb
REMARK  13 active torsions:
REMARK  status: ('A' for Active; 'I' for Inactive)
REMARK    1  A    between atoms: _2  and  _8
REMARK    2  A    between atoms: _4  and  _14
REMARK    3  A    between atoms: _5  and  _6
REMARK    4  A    between atoms: _5  and  _15
REMARK    5  A    between atoms: _8  and  _9
REMARK    6  A    between atoms: _15  and  _17
REMARK    7  A    between atoms: _16  and  _21
REMARK    8  A    between atoms: _17  and  _20
REMARK    9  A    between atoms: _25  and  _35
REMARK   10  A    between atoms: _27  and  _28
REMARK   11  A    between atoms: _29  and  _31
REMARK   12  A    between atoms: _31  and  _33
REMARK   13  A    between atoms: _33  and  _35
REMARK                            x       y       z     vdW  Elec       q    Type
REMARK                         _______ _______ _______ _____ _____    ______ ____
ROOT
ATOM      1  C   UNL     1      30.107  15.890  -0.173  0.00  0.00    +0.400 C 
ATOM      2  N   UNL     1      29.463  14.720   0.156  0.00  0.00    -0.278 N 
ATOM      3  H   UNL     1      30.259  14.078   0.467  0.00  0.00    +0.152 HD
ATOM      4  O   UNL     1      31.297  15.996   0.114  0.00  0.00    -0.226 OA
ENDROOT
BRANCH   1   5
ATOM      5  O   UNL     1      29.390  16.769  -0.792  0.00  0.00    -0.450 OA
BRANCH   5   6
ATOM      6  C   UNL     1      28.384  17.715  -0.513  0.00  0.00    +0.240 C 
BRANCH   6   7
ATOM      7  C   UNL     1      27.515  18.196  -1.691  0.00  0.00    +0.100 C 
BRANCH   7   9
ATOM      8  N   UNL     1      26.936  17.134  -3.851  0.00  0.00    -0.134 NA
ATOM      9  C   UNL     1      27.044  17.048  -2.488  0.00  0.00    +0.086 A 
ATOM     10  C   UNL     1      26.638  15.797  -2.081  0.00  0.00    +0.134 A 
ATOM     11  N   UNL     1      26.223  15.197  -3.236  0.00  0.00    -0.247 N 
ATOM     12  N   UNL     1      26.453  15.985  -4.303  0.00  0.00    -0.065 NA
BRANCH  11  13
ATOM     13  C   UNL     1      25.544  13.921  -3.390  0.00  0.00    +0.184 C 
BRANCH  13  14
ATOM     14  C   UNL     1      24.135  13.923  -2.829  0.00  0.00    +0.017 A 
ATOM     15  C   UNL     1      23.761  13.135  -1.723  0.00  0.00    +0.024 A 
ATOM     16  C   UNL     1      22.454  13.162  -1.233  0.00  0.00    +0.019 A 
ATOM     17 BR   UNL     1      21.976  12.052   0.222  0.00  0.00    -0.050 Br
ATOM     18  C   UNL     1      21.495  13.993  -1.805  0.00  0.00    +0.034 A 
ATOM     19  C   UNL     1      21.862  14.814  -2.868  0.00  0.00    +0.061 A 
ATOM     20 BR   UNL     1      20.563  15.972  -3.621  0.00  0.00    -0.046 Br
ATOM     21  C   UNL     1      23.170  14.782  -3.372  0.00  0.00    +0.136 A 
BRANCH  21  22
ATOM     22  O   UNL     1      23.545  15.597  -4.408  0.00  0.00    -0.505 OA
ATOM     23  H   UNL     1      24.280  16.156  -4.093  0.00  0.00    +0.292 HD
ENDBRANCH  21  22
ENDBRANCH  13  14
ENDBRANCH  11  13
ENDBRANCH   7   9
ENDBRANCH   6   7
ENDBRANCH   5   6
ENDBRANCH   1   5
BRANCH   2  24
ATOM     24  C   UNL     1      28.208  13.984   0.281  0.00  0.00    +0.152 C 
BRANCH  24  25
ATOM     25  C   UNL     1      28.093  12.691  -0.552  0.00  0.00    +0.193 C 
ATOM     26  O   UNL     1      28.781  12.937  -1.798  0.00  0.00    -0.219 OA
BRANCH  25  27
ATOM     27  C   UNL     1      28.758  11.416   0.010  0.00  0.00    +0.212 C 
ATOM     28  O   UNL     1      29.877  11.032  -0.806  0.00  0.00    -0.218 OA
BRANCH  27  29
ATOM     29  C   UNL     1      29.251  11.573   1.499  0.00  0.00    +0.171 C 
ATOM     30  O   UNL     1      30.669  11.640   1.603  0.00  0.00    -0.343 OA
ATOM     31  C   UNL     1      31.377  11.536   2.802  0.00  0.00    +0.220 C 
ATOM     32  C   UNL     1      30.946  10.302   3.614  0.00  0.00    +0.076 C 
ATOM     33  C   UNL     1      29.418  10.361   3.768  0.00  0.00    +0.177 C 
ATOM     34  O   UNL     1      28.970   9.261   4.547  0.00  0.00    -0.221 OA
ATOM     35  C   UNL     1      28.736  10.376   2.364  0.00  0.00    +0.155 C 
BRANCH  35  36
ATOM     36  N   UNL     1      27.283  10.425   2.507  0.00  0.00    -0.202 NA
ATOM     37  C   UNL     1      26.479  11.463   2.851  0.00  0.00    +0.242 C 
ATOM     38  C   UNL     1      24.995  11.320   2.636  0.00  0.00    +0.096 C 
ATOM     39  O   UNL     1      26.974  12.484   3.324  0.00  0.00    -0.273 OA
ENDBRANCH  35  36
BRANCH  31  40
ATOM     40  C   UNL     1      31.330  12.888   3.701  0.00  0.00    +0.391 C 
ATOM     41  O   UNL     1      31.773  12.513   4.917  0.00  0.00    -0.243 OA
ATOM     42  O   UNL     1      31.166  13.900   2.840  0.00  0.00    -0.243 OA
ENDBRANCH  31  40
ENDBRANCH  27  29
ENDBRANCH  25  27
ENDBRANCH  24  25
ENDBRANCH   2  24
TORSDOF 13
