REMARK VINA RESULT:    -5.354      2.983     10.293
REMARK INTER + INTRA:         -12.302
REMARK INTER:                 -10.029
REMARK INTRA:                  -2.273
REMARK UNBOUND:                -3.035
REMARK  Name = lig_assembled_22.pdb
REMARK  15 active torsions:
REMARK  status: ('A' for Active; 'I' for Inactive)
REMARK    1  A    between atoms: _2  and  _8
REMARK    2  A    between atoms: _4  and  _8
REMARK    3  A    between atoms: _4  and  _11
REMARK    4  A    between atoms: _5  and  _6
REMARK    5  A    between atoms: _5  and  _13
REMARK    6  A    between atoms: _8  and  _9
REMARK    7  A    between atoms: _8  and  _10
REMARK    8  A    between atoms: _13  and  _15
REMARK    9  A    between atoms: _14  and  _19
REMARK   10  A    between atoms: _15  and  _18
REMARK   11  A    between atoms: _23  and  _33
REMARK   12  A    between atoms: _25  and  _26
REMARK   13  A    between atoms: _27  and  _29
REMARK   14  A    between atoms: _29  and  _31
REMARK   15  A    between atoms: _31  and  _33
REMARK                            x       y       z     vdW  Elec       q    Type
REMARK                         _______ _______ _______ _____ _____    ______ ____
ROOT
ATOM      1  C   UNL     1      27.167  16.399  -2.419  0.00  0.00    +0.400 C 
ATOM      2  N   UNL     1      27.070  15.028  -2.454  0.00  0.00    -0.278 N 
ATOM      3  H   UNL     1      26.102  14.859  -2.873  0.00  0.00    +0.152 HD
ATOM      4  O   UNL     1      26.300  17.055  -2.990  0.00  0.00    -0.226 OA
ENDROOT
BRANCH   1   5
ATOM      5  O   UNL     1      28.165  16.873  -1.748  0.00  0.00    -0.450 OA
BRANCH   5   6
ATOM      6  C   UNL     1      28.505  17.186  -0.417  0.00  0.00    +0.240 C 
BRANCH   6   7
ATOM      7  C   UNL     1      29.994  17.421  -0.100  0.00  0.00    +0.100 C 
BRANCH   7   9
ATOM      8  N   UNL     1      30.675  15.080  -0.495  0.00  0.00    -0.134 NA
ATOM      9  C   UNL     1      30.628  16.163   0.338  0.00  0.00    +0.086 A 
ATOM     10  C   UNL     1      31.235  15.839   1.531  0.00  0.00    +0.135 A 
ATOM     11  N   UNL     1      31.633  14.542   1.365  0.00  0.00    -0.235 N 
ATOM     12  N   UNL     1      31.287  14.095   0.142  0.00  0.00    -0.064 NA
BRANCH  11  13
ATOM     13  C   UNL     1      32.318  13.652   2.305  0.00  0.00    +0.155 C 
ATOM     14  C   UNL     1      31.327  12.856   3.181  0.00  0.00    +0.048 C 
ATOM     15  C   UNL     1      33.211  14.503   3.228  0.00  0.00    +0.048 C 
BRANCH  13  16
ATOM     16  C   UNL     1      33.180  12.640   1.546  0.00  0.00    +0.332 C 
ATOM     17  O   UNL     1      34.375  12.786   1.320  0.00  0.00    -0.248 OA
BRANCH  16  18
ATOM     18  O   UNL     1      32.531  11.529   1.121  0.00  0.00    -0.479 OA
ATOM     19  H   UNL     1      31.733  11.271   1.625  0.00  0.00    +0.295 HD
ENDBRANCH  16  18
ENDBRANCH  13  16
ENDBRANCH  11  13
ENDBRANCH   7   9
ENDBRANCH   6   7
ENDBRANCH   5   6
ENDBRANCH   1   5
BRANCH   2  20
ATOM     20  C   UNL     1      27.689  13.730  -2.195  0.00  0.00    +0.152 C 
BRANCH  20  21
ATOM     21  C   UNL     1      26.818  12.491  -2.492  0.00  0.00    +0.193 C 
ATOM     22  O   UNL     1      27.632  11.333  -2.204  0.00  0.00    -0.219 OA
BRANCH  21  23
ATOM     23  C   UNL     1      25.546  12.290  -1.640  0.00  0.00    +0.212 C 
ATOM     24  O   UNL     1      25.677  12.963  -0.377  0.00  0.00    -0.218 OA
BRANCH  23  25
ATOM     25  C   UNL     1      24.233  12.799  -2.349  0.00  0.00    +0.171 C 
ATOM     26  O   UNL     1      24.385  14.094  -2.920  0.00  0.00    -0.343 OA
ATOM     27  C   UNL     1      23.328  14.878  -3.388  0.00  0.00    +0.220 C 
ATOM     28  C   UNL     1      22.202  14.998  -2.347  0.00  0.00    +0.076 C 
ATOM     29  C   UNL     1      21.812  13.573  -1.921  0.00  0.00    +0.177 C 
ATOM     30  O   UNL     1      20.744  13.626  -0.985  0.00  0.00    -0.221 OA
ATOM     31  C   UNL     1      23.050  12.832  -1.327  0.00  0.00    +0.155 C 
BRANCH  31  32
ATOM     32  N   UNL     1      22.681  11.480  -0.914  0.00  0.00    -0.202 NA
ATOM     33  C   UNL     1      22.644  10.931   0.327  0.00  0.00    +0.242 C 
ATOM     34  C   UNL     1      21.946   9.608   0.503  0.00  0.00    +0.096 C 
ATOM     35  O   UNL     1      23.172  11.520   1.268  0.00  0.00    -0.273 OA
ENDBRANCH  31  32
BRANCH  27  36
ATOM     36  C   UNL     1      22.758  14.399  -4.832  0.00  0.00    +0.391 C 
ATOM     37  O   UNL     1      21.587  15.050  -4.976  0.00  0.00    -0.243 OA
ATOM     38  O   UNL     1      23.779  13.795  -5.451  0.00  0.00    -0.243 OA
ENDBRANCH  27  36
ENDBRANCH  23  25
ENDBRANCH  21  23
ENDBRANCH  20  21
ENDBRANCH   2  20
TORSDOF 13
