REMARK VINA RESULT:    -7.305      2.404      3.873
REMARK INTER + INTRA:         -14.088
REMARK INTER:                 -12.127
REMARK INTRA:                  -1.961
REMARK UNBOUND:                -2.085
REMARK  Name = lig_assembled_51.pdb
REMARK  11 active torsions:
REMARK  status: ('A' for Active; 'I' for Inactive)
REMARK    1  A    between atoms: _2  and  _8
REMARK    2  A    between atoms: _5  and  _6
REMARK    3  A    between atoms: _5  and  _17
REMARK    4  A    between atoms: _17  and  _19
REMARK    5  A    between atoms: _18  and  _23
REMARK    6  A    between atoms: _19  and  _22
REMARK    7  A    between atoms: _27  and  _37
REMARK    8  A    between atoms: _29  and  _30
REMARK    9  A    between atoms: _31  and  _33
REMARK   10  A    between atoms: _33  and  _35
REMARK   11  A    between atoms: _35  and  _37
REMARK                            x       y       z     vdW  Elec       q    Type
REMARK                         _______ _______ _______ _____ _____    ______ ____
ROOT
ATOM      1  C   UNL     1      28.635  17.378  -0.456  0.00  0.00    +0.400 C 
ATOM      2  N   UNL     1      29.717  17.032   0.318  0.00  0.00    -0.278 N 
ATOM      3  H   UNL     1      29.780  17.830   1.026  0.00  0.00    +0.152 HD
ATOM      4  O   UNL     1      27.937  18.320  -0.089  0.00  0.00    -0.226 OA
ENDROOT
BRANCH   1   5
ATOM      5  O   UNL     1      28.473  16.684  -1.535  0.00  0.00    -0.450 OA
BRANCH   5   6
ATOM      6  C   UNL     1      27.530  15.811  -2.111  0.00  0.00    +0.240 C 
BRANCH   6   7
ATOM      7  C   UNL     1      26.698  16.343  -3.294  0.00  0.00    +0.100 C 
BRANCH   7   9
ATOM      8  N   UNL     1      24.945  15.263  -4.668  0.00  0.00    -0.134 NA
ATOM      9  C   UNL     1      25.453  15.568  -3.435  0.00  0.00    +0.086 A 
ATOM     10  C   UNL     1      24.624  15.047  -2.468  0.00  0.00    +0.134 A 
ATOM     11  N   UNL     1      23.622  14.438  -3.173  0.00  0.00    -0.245 N 
ATOM     12  N   UNL     1      23.827  14.572  -4.497  0.00  0.00    -0.065 NA
BRANCH  11  13
ATOM     13  C   UNL     1      22.455  13.728  -2.642  0.00  0.00    +0.066 C 
ATOM     14  C   UNL     1      22.776  13.151  -1.237  0.00  0.00    +0.034 C 
ATOM     15  C   UNL     1      21.549  12.441  -0.641  0.00  0.00    -0.008 C 
ATOM     16  C   UNL     1      20.389  13.444  -0.530  0.00  0.00    +0.007 C 
ATOM     17  C   UNL     1      20.028  13.991  -1.921  0.00  0.00    -0.008 C 
ATOM     18  C   UNL     1      19.622  12.825  -2.835  0.00  0.00    +0.007 C 
ATOM     19  C   UNL     1      20.782  11.825  -2.957  0.00  0.00    -0.008 C 
ATOM     20  C   UNL     1      21.134  11.284  -1.563  0.00  0.00    +0.007 C 
ATOM     21  C   UNL     1      21.254  14.703  -2.519  0.00  0.00    +0.034 C 
ATOM     22  C   UNL     1      22.010  12.541  -3.548  0.00  0.00    +0.034 C 
ENDBRANCH  11  13
ENDBRANCH   7   9
ENDBRANCH   6   7
ENDBRANCH   5   6
ENDBRANCH   1   5
BRANCH   2  23
ATOM     23  C   UNL     1      30.785  16.079   0.609  0.00  0.00    +0.152 C 
BRANCH  23  24
ATOM     24  C   UNL     1      31.017  14.976  -0.444  0.00  0.00    +0.193 C 
ATOM     25  O   UNL     1      32.341  15.187  -0.981  0.00  0.00    -0.219 OA
BRANCH  24  26
ATOM     26  C   UNL     1      31.028  13.511   0.045  0.00  0.00    +0.212 C 
ATOM     27  O   UNL     1      31.977  13.345   1.111  0.00  0.00    -0.218 OA
BRANCH  26  28
ATOM     28  C   UNL     1      29.619  13.007   0.541  0.00  0.00    +0.171 C 
ATOM     29  O   UNL     1      29.646  12.546   1.888  0.00  0.00    -0.343 OA
ATOM     30  C   UNL     1      28.612  11.829   2.496  0.00  0.00    +0.220 C 
ATOM     31  C   UNL     1      28.171  10.629   1.640  0.00  0.00    +0.076 C 
ATOM     32  C   UNL     1      27.851  11.157   0.232  0.00  0.00    +0.177 C 
ATOM     33  O   UNL     1      27.398  10.092  -0.591  0.00  0.00    -0.221 OA
ATOM     34  C   UNL     1      29.107  11.852  -0.380  0.00  0.00    +0.155 C 
BRANCH  34  35
ATOM     35  N   UNL     1      28.809  12.349  -1.720  0.00  0.00    -0.202 NA
ATOM     36  C   UNL     1      29.344  11.994  -2.916  0.00  0.00    +0.242 C 
ATOM     37  C   UNL     1      28.651  12.450  -4.174  0.00  0.00    +0.096 C 
ATOM     38  O   UNL     1      30.369  11.316  -2.946  0.00  0.00    -0.273 OA
ENDBRANCH  34  35
BRANCH  30  39
ATOM     39  C   UNL     1      27.347  12.754   2.924  0.00  0.00    +0.391 C 
ATOM     40  O   UNL     1      26.304  11.905   2.995  0.00  0.00    -0.243 OA
ATOM     41  O   UNL     1      27.864  13.920   3.332  0.00  0.00    -0.243 OA
ENDBRANCH  30  39
ENDBRANCH  26  28
ENDBRANCH  24  26
ENDBRANCH  23  24
ENDBRANCH   2  23
TORSDOF 11
