REMARK VINA RESULT:    -6.652      2.705      3.595
REMARK INTER + INTRA:         -14.228
REMARK INTER:                 -11.936
REMARK INTRA:                  -2.291
REMARK UNBOUND:                -2.327
REMARK  Name = lig_assembled_68.pdb
REMARK  14 active torsions:
REMARK  status: ('A' for Active; 'I' for Inactive)
REMARK    1  A    between atoms: _2  and  _8
REMARK    2  A    between atoms: _5  and  _6
REMARK    3  A    between atoms: _5  and  _16
REMARK    4  A    between atoms: _8  and  _9
REMARK    5  A    between atoms: _9  and  _10
REMARK    6  A    between atoms: _9  and  _15
REMARK    7  A    between atoms: _16  and  _18
REMARK    8  A    between atoms: _17  and  _22
REMARK    9  A    between atoms: _18  and  _21
REMARK   10  A    between atoms: _26  and  _36
REMARK   11  A    between atoms: _28  and  _29
REMARK   12  A    between atoms: _30  and  _32
REMARK   13  A    between atoms: _32  and  _34
REMARK   14  A    between atoms: _34  and  _36
REMARK                            x       y       z     vdW  Elec       q    Type
REMARK                         _______ _______ _______ _____ _____    ______ ____
ROOT
ATOM      1  C   UNL     1      27.814  17.589  -1.253  0.00  0.00    +0.400 C 
ATOM      2  N   UNL     1      28.478  16.820  -0.327  0.00  0.00    -0.278 N 
ATOM      3  H   UNL     1      28.606  17.484   0.500  0.00  0.00    +0.152 HD
ATOM      4  O   UNL     1      27.388  18.685  -0.897  0.00  0.00    -0.226 OA
ENDROOT
BRANCH   2   5
ATOM      5  C   UNL     1      29.059  15.528   0.030  0.00  0.00    +0.152 C 
BRANCH   5   6
ATOM      6  C   UNL     1      30.571  15.525   0.336  0.00  0.00    +0.193 C 
ATOM      7  O   UNL     1      30.863  16.774   1.001  0.00  0.00    -0.219 OA
BRANCH   6   8
ATOM      8  C   UNL     1      31.104  14.442   1.300  0.00  0.00    +0.212 C 
ATOM      9  O   UNL     1      31.538  15.037   2.533  0.00  0.00    -0.218 OA
BRANCH   8  10
ATOM     10  C   UNL     1      30.044  13.321   1.626  0.00  0.00    +0.171 C 
ATOM     11  O   UNL     1      29.900  13.095   3.025  0.00  0.00    -0.343 OA
ATOM     12  C   UNL     1      29.221  12.008   3.581  0.00  0.00    +0.220 C 
ATOM     13  C   UNL     1      29.690  10.673   2.977  0.00  0.00    +0.076 C 
ATOM     14  C   UNL     1      29.578  10.792   1.448  0.00  0.00    +0.177 C 
ATOM     15  O   UNL     1      29.963   9.567   0.840  0.00  0.00    -0.221 OA
ATOM     16  C   UNL     1      30.453  11.979   0.936  0.00  0.00    +0.155 C 
BRANCH  16  17
ATOM     17  N   UNL     1      30.354  12.091  -0.517  0.00  0.00    -0.202 NA
ATOM     18  C   UNL     1      31.334  12.084  -1.456  0.00  0.00    +0.242 C 
ATOM     19  C   UNL     1      30.940  11.918  -2.901  0.00  0.00    +0.096 C 
ATOM     20  O   UNL     1      32.508  12.210  -1.111  0.00  0.00    -0.273 OA
ENDBRANCH  16  17
BRANCH  12  21
ATOM     21  C   UNL     1      27.604  12.156   3.521  0.00  0.00    +0.391 C 
ATOM     22  O   UNL     1      27.137  10.894   3.601  0.00  0.00    -0.243 OA
ATOM     23  O   UNL     1      27.343  13.454   3.718  0.00  0.00    -0.243 OA
ENDBRANCH  12  21
ENDBRANCH   8  10
ENDBRANCH   6   8
ENDBRANCH   5   6
ENDBRANCH   2   5
BRANCH   1  24
ATOM     24  O   UNL     1      27.728  17.086  -2.440  0.00  0.00    -0.450 OA
BRANCH  24  25
ATOM     25  C   UNL     1      27.003  17.280  -3.633  0.00  0.00    +0.240 C 
BRANCH  25  26
ATOM     26  C   UNL     1      25.613  16.624  -3.734  0.00  0.00    +0.100 C 
BRANCH  26  28
ATOM     27  N   UNL     1      26.784  14.440  -3.663  0.00  0.00    -0.134 NA
ATOM     28  C   UNL     1      25.684  15.202  -3.360  0.00  0.00    +0.086 A 
ATOM     29  C   UNL     1      24.764  14.417  -2.705  0.00  0.00    +0.133 A 
ATOM     30  N   UNL     1      25.363  13.194  -2.634  0.00  0.00    -0.249 N 
ATOM     31  N   UNL     1      26.572  13.208  -3.221  0.00  0.00    -0.065 NA
BRANCH  30  32
ATOM     32  C   UNL     1      24.805  11.961  -2.120  0.00  0.00    +0.181 C 
BRANCH  32  33
ATOM     33  C   UNL     1      25.095  11.773  -0.625  0.00  0.00    +0.166 C 
BRANCH  33  34
ATOM     34  C   UNL     1      23.852  11.650   0.244  0.00  0.00    -0.017 A 
ATOM     35  C   UNL     1      23.987  11.157   1.555  0.00  0.00    +0.006 A 
ATOM     36  C   UNL     1      22.877  11.051   2.396  0.00  0.00    +0.000 A 
ATOM     37  C   UNL     1      21.620  11.441   1.946  0.00  0.00    +0.000 A 
ATOM     38  C   UNL     1      21.472  11.949   0.660  0.00  0.00    +0.000 A 
ATOM     39  C   UNL     1      22.581  12.058  -0.185  0.00  0.00    +0.006 A 
ENDBRANCH  33  34
BRANCH  33  40
ATOM     40  O   UNL     1      25.855  12.892  -0.153  0.00  0.00    -0.385 OA
ATOM     41  H   UNL     1      25.617  13.668  -0.688  0.00  0.00    +0.210 HD
ENDBRANCH  33  40
ENDBRANCH  32  33
ENDBRANCH  30  32
ENDBRANCH  26  28
ENDBRANCH  25  26
ENDBRANCH  24  25
ENDBRANCH   1  24
TORSDOF 14
