REMARK VINA RESULT:    -6.438      2.524      4.644
REMARK INTER + INTRA:         -14.557
REMARK INTER:                 -12.894
REMARK INTRA:                  -1.663
REMARK UNBOUND:                -1.720
REMARK  Name = lig_assembled_54.pdb
REMARK  19 active torsions:
REMARK  status: ('A' for Active; 'I' for Inactive)
REMARK    1  A    between atoms: _2  and  _8
REMARK    2  A    between atoms: _4  and  _13
REMARK    3  A    between atoms: _5  and  _6
REMARK    4  A    between atoms: _5  and  _16
REMARK    5  A    between atoms: _8  and  _9
REMARK    6  A    between atoms: _9  and  _10
REMARK    7  A    between atoms: _10  and  _14
REMARK    8  A    between atoms: _10  and  _15
REMARK    9  A    between atoms: _11  and  _12
REMARK   10  A    between atoms: _11  and  _15
REMARK   11  A    between atoms: _13  and  _14
REMARK   12  A    between atoms: _16  and  _18
REMARK   13  A    between atoms: _17  and  _22
REMARK   14  A    between atoms: _18  and  _21
REMARK   15  A    between atoms: _26  and  _36
REMARK   16  A    between atoms: _28  and  _29
REMARK   17  A    between atoms: _30  and  _32
REMARK   18  A    between atoms: _32  and  _34
REMARK   19  A    between atoms: _34  and  _36
REMARK                            x       y       z     vdW  Elec       q    Type
REMARK                         _______ _______ _______ _____ _____    ______ ____
ROOT
ATOM      1  C   UNL     1      28.733  17.028  -0.449  0.00  0.00    +0.400 C 
ATOM      2  N   UNL     1      28.764  15.897   0.332  0.00  0.00    -0.278 N 
ATOM      3  H   UNL     1      29.447  16.155   1.113  0.00  0.00    +0.152 HD
ATOM      4  O   UNL     1      29.281  18.041  -0.024  0.00  0.00    -0.226 OA
ENDROOT
BRANCH   1   5
ATOM      5  O   UNL     1      28.143  16.902  -1.593  0.00  0.00    -0.450 OA
BRANCH   5   6
ATOM      6  C   UNL     1      27.060  17.456  -2.303  0.00  0.00    +0.240 C 
BRANCH   6   7
ATOM      7  C   UNL     1      27.002  17.205  -3.821  0.00  0.00    +0.100 C 
BRANCH   7   9
ATOM      8  N   UNL     1      25.968  15.501  -5.292  0.00  0.00    -0.134 NA
ATOM      9  C   UNL     1      25.940  16.227  -4.131  0.00  0.00    +0.086 A 
ATOM     10  C   UNL     1      24.833  15.861  -3.396  0.00  0.00    +0.133 A 
ATOM     11  N   UNL     1      24.252  14.883  -4.145  0.00  0.00    -0.251 N 
ATOM     12  N   UNL     1      24.932  14.673  -5.287  0.00  0.00    -0.065 NA
BRANCH  11  13
ATOM     13  C   UNL     1      23.097  14.069  -3.821  0.00  0.00    +0.150 C 
BRANCH  13  14
ATOM     14  C   UNL     1      22.643  14.280  -2.385  0.00  0.00    +0.084 C 
BRANCH  14  15
ATOM     15  C   UNL     1      21.146  14.028  -2.175  0.00  0.00    +0.252 C 
BRANCH  15  16
ATOM     16  O   UNL     1      20.925  12.671  -1.781  0.00  0.00    -0.352 OA
BRANCH  16  17
ATOM     17  C   UNL     1      21.841  12.191  -0.800  0.00  0.00    +0.159 C 
ATOM     18  C   UNL     1      21.158  12.200   0.553  0.00  0.00    +0.034 C 
ENDBRANCH  16  17
ENDBRANCH  15  16
BRANCH  15  19
ATOM     19  O   UNL     1      20.484  14.287  -3.419  0.00  0.00    -0.352 OA
BRANCH  19  20
ATOM     20  C   UNL     1      19.669  15.460  -3.371  0.00  0.00    +0.159 C 
ATOM     21  C   UNL     1      20.292  16.534  -4.238  0.00  0.00    +0.034 C 
ENDBRANCH  19  20
ENDBRANCH  15  19
ENDBRANCH  14  15
ENDBRANCH  13  14
ENDBRANCH  11  13
ENDBRANCH   7   9
ENDBRANCH   6   7
ENDBRANCH   5   6
ENDBRANCH   1   5
BRANCH   2  22
ATOM     22  C   UNL     1      28.283  14.539   0.575  0.00  0.00    +0.152 C 
BRANCH  22  23
ATOM     23  C   UNL     1      28.638  13.929   1.947  0.00  0.00    +0.193 C 
ATOM     24  O   UNL     1      27.476  13.190   2.385  0.00  0.00    -0.219 OA
BRANCH  23  25
ATOM     25  C   UNL     1      29.789  12.901   1.996  0.00  0.00    +0.212 C 
ATOM     26  O   UNL     1      29.406  11.686   1.331  0.00  0.00    -0.218 OA
BRANCH  25  27
ATOM     27  C   UNL     1      31.126  13.429   1.349  0.00  0.00    +0.171 C 
ATOM     28  O   UNL     1      31.149  13.272  -0.066  0.00  0.00    -0.343 OA
ATOM     29  C   UNL     1      32.289  13.427  -0.858  0.00  0.00    +0.220 C 
ATOM     30  C   UNL     1      33.475  12.609  -0.317  0.00  0.00    +0.076 C 
ATOM     31  C   UNL     1      33.658  12.984   1.163  0.00  0.00    +0.177 C 
ATOM     32  O   UNL     1      34.770  12.283   1.703  0.00  0.00    -0.221 OA
ATOM     33  C   UNL     1      32.353  12.677   1.961  0.00  0.00    +0.155 C 
BRANCH  33  34
ATOM     34  N   UNL     1      32.526  13.026   3.369  0.00  0.00    -0.202 NA
ATOM     35  C   UNL     1      32.520  12.228   4.468  0.00  0.00    +0.242 C 
ATOM     36  C   UNL     1      33.015  12.801   5.770  0.00  0.00    +0.096 C 
ATOM     37  O   UNL     1      32.117  11.070   4.376  0.00  0.00    -0.273 OA
ENDBRANCH  33  34
BRANCH  29  38
ATOM     38  C   UNL     1      32.699  14.979  -1.106  0.00  0.00    +0.391 C 
ATOM     39  O   UNL     1      33.676  14.937  -2.032  0.00  0.00    -0.243 OA
ATOM     40  O   UNL     1      31.731  15.712  -0.542  0.00  0.00    -0.243 OA
ENDBRANCH  29  38
ENDBRANCH  25  27
ENDBRANCH  23  25
ENDBRANCH  22  23
ENDBRANCH   2  22
TORSDOF 17
