REMARK VINA RESULT:    -8.167      1.451      1.850
REMARK INTER + INTRA:         -16.420
REMARK INTER:                 -14.781
REMARK INTRA:                  -1.639
REMARK UNBOUND:                -1.807
REMARK  Name = lig_assembled_75.pdb
REMARK  14 active torsions:
REMARK  status: ('A' for Active; 'I' for Inactive)
REMARK    1  A    between atoms: _2  and  _8
REMARK    2  A    between atoms: _5  and  _6
REMARK    3  A    between atoms: _5  and  _18
REMARK    4  A    between atoms: _10  and  _11
REMARK    5  A    between atoms: _12  and  _13
REMARK    6  A    between atoms: _13  and  _16
REMARK    7  A    between atoms: _18  and  _20
REMARK    8  A    between atoms: _19  and  _24
REMARK    9  A    between atoms: _20  and  _23
REMARK   10  A    between atoms: _28  and  _38
REMARK   11  A    between atoms: _30  and  _31
REMARK   12  A    between atoms: _32  and  _34
REMARK   13  A    between atoms: _34  and  _36
REMARK   14  A    between atoms: _36  and  _38
REMARK                            x       y       z     vdW  Elec       q    Type
REMARK                         _______ _______ _______ _____ _____    ______ ____
ROOT
ATOM      1  C   UNL     1      28.149  17.031  -0.743  0.00  0.00    +0.400 C 
ATOM      2  N   UNL     1      28.530  15.876  -0.103  0.00  0.00    -0.278 N 
ATOM      3  H   UNL     1      28.904  16.224   0.836  0.00  0.00    +0.152 HD
ATOM      4  O   UNL     1      28.142  18.076  -0.096  0.00  0.00    -0.226 OA
ENDROOT
BRANCH   2   5
ATOM      5  C   UNL     1      28.636  14.419  -0.123  0.00  0.00    +0.152 C 
BRANCH   5   6
ATOM      6  C   UNL     1      30.044  13.837   0.116  0.00  0.00    +0.193 C 
ATOM      7  O   UNL     1      29.958  12.419  -0.149  0.00  0.00    -0.219 OA
BRANCH   6   8
ATOM      8  C   UNL     1      31.187  14.331  -0.797  0.00  0.00    +0.212 C 
ATOM      9  O   UNL     1      31.484  15.711  -0.528  0.00  0.00    -0.218 OA
BRANCH   8  10
ATOM     10  C   UNL     1      32.513  13.492  -0.648  0.00  0.00    +0.171 C 
ATOM     11  O   UNL     1      33.357  13.980   0.390  0.00  0.00    -0.343 OA
ATOM     12  C   UNL     1      34.683  13.586   0.579  0.00  0.00    +0.220 C 
ATOM     13  C   UNL     1      35.500  13.688  -0.721  0.00  0.00    +0.076 C 
ATOM     14  C   UNL     1      34.740  12.907  -1.807  0.00  0.00    +0.177 C 
ATOM     15  O   UNL     1      35.474  12.936  -3.023  0.00  0.00    -0.221 OA
ATOM     16  C   UNL     1      33.309  13.501  -1.994  0.00  0.00    +0.155 C 
BRANCH  16  17
ATOM     17  N   UNL     1      32.587  12.766  -3.029  0.00  0.00    -0.202 NA
ATOM     18  C   UNL     1      32.529  12.985  -4.368  0.00  0.00    +0.242 C 
ATOM     19  C   UNL     1      31.950  11.904  -5.244  0.00  0.00    +0.096 C 
ATOM     20  O   UNL     1      32.946  14.045  -4.829  0.00  0.00    -0.273 OA
ENDBRANCH  16  17
BRANCH  12  21
ATOM     21  C   UNL     1      34.831  12.119   1.263  0.00  0.00    +0.391 C 
ATOM     22  O   UNL     1      36.060  11.694   0.912  0.00  0.00    -0.243 OA
ATOM     23  O   UNL     1      33.828  12.019   2.144  0.00  0.00    -0.243 OA
ENDBRANCH  12  21
ENDBRANCH   8  10
ENDBRANCH   6   8
ENDBRANCH   5   6
ENDBRANCH   2   5
BRANCH   1  24
ATOM     24  O   UNL     1      27.860  16.908  -1.996  0.00  0.00    -0.450 OA
BRANCH  24  25
ATOM     25  C   UNL     1      26.975  17.453  -2.947  0.00  0.00    +0.240 C 
BRANCH  25  26
ATOM     26  C   UNL     1      26.631  16.589  -4.176  0.00  0.00    +0.100 C 
BRANCH  26  28
ATOM     27  N   UNL     1      24.889  14.974  -4.865  0.00  0.00    -0.134 NA
ATOM     28  C   UNL     1      25.471  15.726  -3.886  0.00  0.00    +0.086 A 
ATOM     29  C   UNL     1      24.800  15.522  -2.703  0.00  0.00    +0.139 A 
ATOM     30  N   UNL     1      23.802  14.626  -3.009  0.00  0.00    -0.220 N 
ATOM     31  N   UNL     1      23.876  14.309  -4.326  0.00  0.00    -0.061 NA
BRANCH  30  32
ATOM     32  C   UNL     1      22.797  14.089  -2.164  0.00  0.00    +0.068 A 
ATOM     33  C   UNL     1      23.138  13.087  -1.238  0.00  0.00    +0.035 A 
ATOM     34  C   UNL     1      22.158  12.488  -0.434  0.00  0.00    -0.023 A 
ATOM     35  C   UNL     1      20.839  12.951  -0.524  0.00  0.00    +0.008 A 
ATOM     36  C   UNL     1      20.499  13.961  -1.427  0.00  0.00    +0.003 A 
ATOM     37  C   UNL     1      21.470  14.525  -2.253  0.00  0.00    +0.028 A 
BRANCH  34  38
ATOM     38  C   UNL     1      22.465  11.406   0.513  0.00  0.00    +0.015 C 
ATOM     39  C   UNL     1      21.876  11.276   1.712  0.00  0.00    +0.092 C 
BRANCH  39  40
ATOM     40  C   UNL     1      22.291  10.184   2.616  0.00  0.00    +0.330 C 
ATOM     41  O   UNL     1      21.724   9.111   2.714  0.00  0.00    -0.246 OA
BRANCH  40  42
ATOM     42  O   UNL     1      23.393  10.507   3.323  0.00  0.00    -0.478 OA
ATOM     43  H   UNL     1      24.080  10.997   2.835  0.00  0.00    +0.295 HD
ENDBRANCH  40  42
ENDBRANCH  39  40
ENDBRANCH  34  38
ENDBRANCH  30  32
ENDBRANCH  26  28
ENDBRANCH  25  26
ENDBRANCH  24  25
ENDBRANCH   1  24
TORSDOF 14
