REMARK VINA RESULT:    -7.348      1.397      3.171
REMARK INTER + INTRA:         -14.411
REMARK INTER:                 -12.701
REMARK INTRA:                  -1.710
REMARK UNBOUND:                -1.480
REMARK  Name = lig_assembled_58.pdb
REMARK  13 active torsions:
REMARK  status: ('A' for Active; 'I' for Inactive)
REMARK    1  A    between atoms: _2  and  _8
REMARK    2  A    between atoms: _5  and  _6
REMARK    3  A    between atoms: _5  and  _20
REMARK    4  A    between atoms: _8  and  _9
REMARK    5  A    between atoms: _8  and  _15
REMARK    6  A    between atoms: _20  and  _22
REMARK    7  A    between atoms: _21  and  _26
REMARK    8  A    between atoms: _22  and  _25
REMARK    9  A    between atoms: _30  and  _40
REMARK   10  A    between atoms: _32  and  _33
REMARK   11  A    between atoms: _34  and  _36
REMARK   12  A    between atoms: _36  and  _38
REMARK   13  A    between atoms: _38  and  _40
REMARK                            x       y       z     vdW  Elec       q    Type
REMARK                         _______ _______ _______ _____ _____    ______ ____
ROOT
ATOM      1  C   UNL     1      27.697  17.480  -1.519  0.00  0.00    +0.400 C 
ATOM      2  N   UNL     1      28.628  16.824  -0.748  0.00  0.00    -0.278 N 
ATOM      3  H   UNL     1      28.950  17.574  -0.058  0.00  0.00    +0.152 HD
ATOM      4  O   UNL     1      27.336  18.599  -1.164  0.00  0.00    -0.226 OA
ENDROOT
BRANCH   2   5
ATOM      5  C   UNL     1      29.346  15.588  -0.447  0.00  0.00    +0.152 C 
BRANCH   5   6
ATOM      6  C   UNL     1      28.480  14.386  -0.020  0.00  0.00    +0.193 C 
ATOM      7  O   UNL     1      27.746  13.966  -1.192  0.00  0.00    -0.219 OA
BRANCH   6   8
ATOM      8  C   UNL     1      29.211  13.110   0.453  0.00  0.00    +0.212 C 
ATOM      9  O   UNL     1      28.843  11.988  -0.365  0.00  0.00    -0.218 OA
BRANCH   8  10
ATOM     10  C   UNL     1      30.781  13.250   0.442  0.00  0.00    +0.171 C 
ATOM     11  O   UNL     1      31.330  13.153  -0.869  0.00  0.00    -0.343 OA
ATOM     12  C   UNL     1      32.691  12.999  -1.144  0.00  0.00    +0.220 C 
ATOM     13  C   UNL     1      33.310  11.847  -0.333  0.00  0.00    +0.076 C 
ATOM     14  C   UNL     1      32.972  12.089   1.147  0.00  0.00    +0.177 C 
ATOM     15  O   UNL     1      33.557  11.071   1.947  0.00  0.00    -0.221 OA
ATOM     16  C   UNL     1      31.425  12.146   1.343  0.00  0.00    +0.155 C 
BRANCH  16  17
ATOM     17  N   UNL     1      31.100  12.369   2.750  0.00  0.00    -0.202 NA
ATOM     18  C   UNL     1      30.459  11.560   3.631  0.00  0.00    +0.242 C 
ATOM     19  C   UNL     1      30.515  11.910   5.095  0.00  0.00    +0.096 C 
ATOM     20  O   UNL     1      29.855  10.571   3.220  0.00  0.00    -0.273 OA
ENDBRANCH  16  17
BRANCH  12  21
ATOM     21  C   UNL     1      33.543  14.372  -0.978  0.00  0.00    +0.391 C 
ATOM     22  O   UNL     1      34.833  13.981  -0.964  0.00  0.00    -0.243 OA
ATOM     23  O   UNL     1      32.686  15.371  -1.218  0.00  0.00    -0.243 OA
ENDBRANCH  12  21
ENDBRANCH   8  10
ENDBRANCH   6   8
ENDBRANCH   5   6
ENDBRANCH   2   5
BRANCH   1  24
ATOM     24  O   UNL     1      27.308  16.854  -2.581  0.00  0.00    -0.450 OA
BRANCH  24  25
ATOM     25  C   UNL     1      26.343  16.975  -3.599  0.00  0.00    +0.240 C 
BRANCH  25  26
ATOM     26  C   UNL     1      25.861  15.680  -4.281  0.00  0.00    +0.100 C 
BRANCH  26  28
ATOM     27  N   UNL     1      24.384  15.568  -2.285  0.00  0.00    -0.134 NA
ATOM     28  C   UNL     1      24.859  15.003  -3.437  0.00  0.00    +0.086 A 
ATOM     29  C   UNL     1      24.229  13.796  -3.636  0.00  0.00    +0.134 A 
ATOM     30  N   UNL     1      23.270  13.752  -2.660  0.00  0.00    -0.240 N 
ATOM     31  N   UNL     1      23.425  14.786  -1.803  0.00  0.00    -0.065 NA
BRANCH  30  32
ATOM     32  C   UNL     1      22.157  12.801  -2.485  0.00  0.00    +0.169 C 
BRANCH  32  33
ATOM     33  C   UNL     1      20.814  13.361  -2.977  0.00  0.00    -0.019 A 
ATOM     34  C   UNL     1      19.731  12.509  -3.264  0.00  0.00    +0.006 A 
ATOM     35  C   UNL     1      18.512  13.024  -3.714  0.00  0.00    +0.000 A 
ATOM     36  C   UNL     1      18.344  14.397  -3.862  0.00  0.00    +0.000 A 
ATOM     37  C   UNL     1      19.381  15.260  -3.532  0.00  0.00    +0.000 A 
ATOM     38  C   UNL     1      20.595  14.749  -3.076  0.00  0.00    +0.006 A 
ENDBRANCH  32  33
BRANCH  32  39
ATOM     39  C   UNL     1      22.146  12.268  -1.045  0.00  0.00    -0.019 A 
ATOM     40  C   UNL     1      21.125  12.651  -0.158  0.00  0.00    +0.006 A 
ATOM     41  C   UNL     1      21.137  12.219   1.170  0.00  0.00    +0.000 A 
ATOM     42  C   UNL     1      22.156  11.387   1.631  0.00  0.00    +0.000 A 
ATOM     43  C   UNL     1      23.175  10.999   0.770  0.00  0.00    +0.000 A 
ATOM     44  C   UNL     1      23.176  11.445  -0.551  0.00  0.00    +0.006 A 
ENDBRANCH  32  39
ENDBRANCH  30  32
ENDBRANCH  26  28
ENDBRANCH  25  26
ENDBRANCH  24  25
ENDBRANCH   1  24
TORSDOF 13
