REMARK VINA RESULT:    -6.980      4.367      9.626
REMARK INTER + INTRA:         -15.041
REMARK INTER:                 -12.427
REMARK INTRA:                  -2.613
REMARK UNBOUND:                -2.551
REMARK  Name = lig_assembled_64.pdb
REMARK  14 active torsions:
REMARK  status: ('A' for Active; 'I' for Inactive)
REMARK    1  A    between atoms: _2  and  _9
REMARK    2  A    between atoms: _6  and  _7
REMARK    3  A    between atoms: _6  and  _22
REMARK    4  A    between atoms: _11  and  _12
REMARK    5  A    between atoms: _12  and  _20
REMARK    6  A    between atoms: _13  and  _14
REMARK    7  A    between atoms: _22  and  _24
REMARK    8  A    between atoms: _23  and  _28
REMARK    9  A    between atoms: _24  and  _27
REMARK   10  A    between atoms: _32  and  _42
REMARK   11  A    between atoms: _34  and  _35
REMARK   12  A    between atoms: _36  and  _38
REMARK   13  A    between atoms: _38  and  _40
REMARK   14  A    between atoms: _40  and  _42
REMARK                            x       y       z     vdW  Elec       q    Type
REMARK                         _______ _______ _______ _____ _____    ______ ____
ROOT
ATOM      1  O   UNL     1      33.607  12.810   1.587  0.00  0.00    -0.450 OA
ENDROOT
BRANCH   1   2
ATOM      2  C   UNL     1      32.436  12.270   1.494  0.00  0.00    +0.400 C 
ATOM      3  N   UNL     1      31.612  12.799   0.528  0.00  0.00    -0.278 N 
ATOM      4  H   UNL     1      30.803  12.102   0.486  0.00  0.00    +0.152 HD
ATOM      5  O   UNL     1      32.018  11.327   2.160  0.00  0.00    -0.226 OA
BRANCH   3   6
ATOM      6  C   UNL     1      31.346  13.866  -0.433  0.00  0.00    +0.152 C 
BRANCH   6   7
ATOM      7  C   UNL     1      30.741  15.163   0.142  0.00  0.00    +0.193 C 
ATOM      8  O   UNL     1      31.360  16.260  -0.565  0.00  0.00    -0.219 OA
BRANCH   7   9
ATOM      9  C   UNL     1      29.225  15.389  -0.047  0.00  0.00    +0.212 C 
ATOM     10  O   UNL     1      28.989  16.443  -0.995  0.00  0.00    -0.218 OA
BRANCH   9  11
ATOM     11  C   UNL     1      28.456  14.099  -0.527  0.00  0.00    +0.171 C 
ATOM     12  O   UNL     1      27.576  14.360  -1.616  0.00  0.00    -0.343 OA
ATOM     13  C   UNL     1      26.605  13.467  -2.075  0.00  0.00    +0.220 C 
ATOM     14  C   UNL     1      25.723  12.943  -0.927  0.00  0.00    +0.076 C 
ATOM     15  C   UNL     1      26.659  12.381   0.156  0.00  0.00    +0.177 C 
ATOM     16  O   UNL     1      25.893  11.846   1.225  0.00  0.00    -0.221 OA
ATOM     17  C   UNL     1      27.632  13.494   0.656  0.00  0.00    +0.155 C 
BRANCH  17  18
ATOM     18  N   UNL     1      28.518  12.966   1.690  0.00  0.00    -0.202 NA
ATOM     19  C   UNL     1      28.395  13.003   3.041  0.00  0.00    +0.242 C 
ATOM     20  C   UNL     1      29.300  12.126   3.867  0.00  0.00    +0.096 C 
ATOM     21  O   UNL     1      27.556  13.741   3.555  0.00  0.00    -0.273 OA
ENDBRANCH  17  18
BRANCH  13  22
ATOM     22  C   UNL     1      27.212  12.250  -2.964  0.00  0.00    +0.391 C 
ATOM     23  O   UNL     1      26.220  11.341  -3.032  0.00  0.00    -0.243 OA
ATOM     24  O   UNL     1      28.325  12.728  -3.533  0.00  0.00    -0.243 OA
ENDBRANCH  13  22
ENDBRANCH   9  11
ENDBRANCH   7   9
ENDBRANCH   6   7
ENDBRANCH   3   6
ENDBRANCH   1   2
BRANCH   1  25
ATOM     25  C   UNL     1      34.222  13.936   2.170  0.00  0.00    +0.240 C 
BRANCH  25  26
ATOM     26  C   UNL     1      35.377  13.683   3.157  0.00  0.00    +0.100 C 
BRANCH  26  28
ATOM     27  N   UNL     1      35.526  11.751   4.706  0.00  0.00    -0.134 NA
ATOM     28  C   UNL     1      34.905  12.903   4.317  0.00  0.00    +0.086 A 
ATOM     29  C   UNL     1      33.849  13.151   5.162  0.00  0.00    +0.139 A 
ATOM     30  N   UNL     1      33.857  12.108   6.058  0.00  0.00    -0.220 N 
ATOM     31  N   UNL     1      34.884  11.274   5.767  0.00  0.00    -0.061 NA
BRANCH  30  32
ATOM     32  C   UNL     1      32.976  11.870   7.140  0.00  0.00    +0.071 A 
ATOM     33  C   UNL     1      33.295  12.323   8.416  0.00  0.00    +0.063 A 
ATOM     34  CA  UNL     1      32.393  12.059   9.428  0.00  0.00    +0.150 A 
ATOM     35  N   UNL     1      31.220  11.382   9.271  0.00  0.00    -0.240 NA
ATOM     36  C   UNL     1      30.923  10.931   8.021  0.00  0.00    +0.074 A 
ATOM     37  C   UNL     1      31.776  11.172   6.939  0.00  0.00    +0.056 A 
BRANCH  36  38
ATOM     38  C   UNL     1      29.664  10.156   7.904  0.00  0.00    +0.000 A 
ATOM     39  C   UNL     1      29.114   9.807   6.655  0.00  0.00    +0.010 A 
ATOM     40  C   UNL     1      27.945   9.044   6.555  0.00  0.00    +0.001 A 
ATOM     41  C   UNL     1      27.296   8.608   7.706  0.00  0.00    +0.000 A 
ATOM     42  C   UNL     1      27.810   8.942   8.953  0.00  0.00    +0.001 A 
ATOM     43  C   UNL     1      28.978   9.707   9.049  0.00  0.00    +0.010 A 
ENDBRANCH  36  38
BRANCH  34  44
ATOM     44  C   UNL     1      32.693  12.525  10.813  0.00  0.00    +0.355 C 
ATOM     45  OXT UNL     1      32.807  11.791  11.779  0.00  0.00    -0.243 OA
BRANCH  44  46
ATOM     46  O   UNL     1      32.818  13.872  10.849  0.00  0.00    -0.476 OA
ATOM     47  H   UNL     1      31.933  14.279  10.703  0.00  0.00    +0.295 HD
ENDBRANCH  44  46
ENDBRANCH  34  44
ENDBRANCH  30  32
ENDBRANCH  26  28
ENDBRANCH  25  26
ENDBRANCH   1  25
TORSDOF 14
