REMARK VINA RESULT:    -6.243      2.654      8.605
REMARK INTER + INTRA:         -13.920
REMARK INTER:                 -11.203
REMARK INTRA:                  -2.716
REMARK UNBOUND:                -1.837
REMARK  Name = lig_assembled_45.pdb
REMARK  19 active torsions:
REMARK  status: ('A' for Active; 'I' for Inactive)
REMARK    1  A    between atoms: _2  and  _9
REMARK    2  A    between atoms: _3  and  _11
REMARK    3  A    between atoms: _3  and  _12
REMARK    4  A    between atoms: _3  and  _13
REMARK    5  A    between atoms: _3  and  _15
REMARK    6  A    between atoms: _5  and  _15
REMARK    7  A    between atoms: _6  and  _7
REMARK    8  A    between atoms: _6  and  _16
REMARK    9  A    between atoms: _9  and  _10
REMARK   10  A    between atoms: _10  and  _11
REMARK   11  A    between atoms: _13  and  _14
REMARK   12  A    between atoms: _16  and  _18
REMARK   13  A    between atoms: _17  and  _22
REMARK   14  A    between atoms: _18  and  _21
REMARK   15  A    between atoms: _26  and  _36
REMARK   16  A    between atoms: _28  and  _29
REMARK   17  A    between atoms: _30  and  _32
REMARK   18  A    between atoms: _32  and  _34
REMARK   19  A    between atoms: _34  and  _36
REMARK                            x       y       z     vdW  Elec       q    Type
REMARK                         _______ _______ _______ _____ _____    ______ ____
ROOT
ATOM      1  C   UNL     1      28.390  17.255  -0.803  0.00  0.00    +0.400 C 
ATOM      2  N   UNL     1      27.785  16.045  -1.050  0.00  0.00    -0.278 N 
ATOM      3  H   UNL     1      26.744  16.262  -0.942  0.00  0.00    +0.152 HD
ATOM      4  O   UNL     1      27.677  18.252  -0.713  0.00  0.00    -0.226 OA
ENDROOT
BRANCH   2   5
ATOM      5  C   UNL     1      27.922  14.634  -1.400  0.00  0.00    +0.152 C 
BRANCH   5   6
ATOM      6  C   UNL     1      26.651  13.938  -1.928  0.00  0.00    +0.193 C 
ATOM      7  O   UNL     1      26.853  13.720  -3.342  0.00  0.00    -0.219 OA
BRANCH   6   8
ATOM      8  C   UNL     1      26.317  12.538  -1.367  0.00  0.00    +0.212 C 
ATOM      9  O   UNL     1      27.264  11.568  -1.842  0.00  0.00    -0.218 OA
BRANCH   8  10
ATOM     10  C   UNL     1      26.291  12.487   0.209  0.00  0.00    +0.171 C 
ATOM     11  O   UNL     1      27.530  12.057   0.763  0.00  0.00    -0.343 OA
ATOM     12  C   UNL     1      27.711  11.692   2.099  0.00  0.00    +0.220 C 
ATOM     13  C   UNL     1      26.658  10.668   2.558  0.00  0.00    +0.076 C 
ATOM     14  C   UNL     1      25.273  11.249   2.228  0.00  0.00    +0.177 C 
ATOM     15  O   UNL     1      24.259  10.357   2.669  0.00  0.00    -0.221 OA
ATOM     16  C   UNL     1      25.158  11.526   0.696  0.00  0.00    +0.155 C 
BRANCH  16  17
ATOM     17  N   UNL     1      23.841  12.072   0.378  0.00  0.00    -0.202 NA
ATOM     18  C   UNL     1      22.766  11.469  -0.191  0.00  0.00    +0.242 C 
ATOM     19  C   UNL     1      21.437  12.176  -0.137  0.00  0.00    +0.096 C 
ATOM     20  O   UNL     1      22.900  10.372  -0.730  0.00  0.00    -0.273 OA
ENDBRANCH  16  17
BRANCH  12  21
ATOM     21  C   UNL     1      27.792  12.959   3.112  0.00  0.00    +0.391 C 
ATOM     22  O   UNL     1      27.828  12.418   4.345  0.00  0.00    -0.243 OA
ATOM     23  O   UNL     1      28.094  14.020   2.353  0.00  0.00    -0.243 OA
ENDBRANCH  12  21
ENDBRANCH   8  10
ENDBRANCH   6   8
ENDBRANCH   5   6
ENDBRANCH   2   5
BRANCH   1  24
ATOM     24  O   UNL     1      29.673  17.219  -0.655  0.00  0.00    -0.450 OA
BRANCH  24  25
ATOM     25  C   UNL     1      30.632  16.706   0.241  0.00  0.00    +0.240 C 
BRANCH  25  26
ATOM     26  C   UNL     1      31.348  15.401  -0.156  0.00  0.00    +0.100 C 
BRANCH  26  28
ATOM     27  N   UNL     1      31.299  14.929   2.278  0.00  0.00    -0.134 NA
ATOM     28  C   UNL     1      31.396  14.476   0.990  0.00  0.00    +0.086 A 
ATOM     29  C   UNL     1      31.537  13.106   1.006  0.00  0.00    +0.133 A 
ATOM     30  N   UNL     1      31.514  12.801   2.332  0.00  0.00    -0.251 N 
ATOM     31  N   UNL     1      31.379  13.888   3.096  0.00  0.00    -0.065 NA
BRANCH  30  32
ATOM     32  C   UNL     1      31.645  11.491   2.933  0.00  0.00    +0.150 C 
BRANCH  32  33
ATOM     33  C   UNL     1      33.007  10.855   2.680  0.00  0.00    +0.074 C 
BRANCH  33  34
ATOM     34  C   UNL     1      34.151  11.276   3.611  0.00  0.00    +0.134 C 
BRANCH  34  35
ATOM     35  N   UNL     1      35.283  12.180   3.020  0.00  0.00    +0.241 N 
ATOM     36  C   UNL     1      36.620  11.787   3.670  0.00  0.00    +0.192 C 
BRANCH  35  37
ATOM     37  C   UNL     1      34.934  13.644   3.449  0.00  0.00    +0.129 C 
ATOM     38  C   UNL     1      34.319  13.753   4.840  0.00  0.00    +0.060 C 
ENDBRANCH  35  37
BRANCH  35  39
ATOM     39  C   UNL     1      35.433  12.110   1.489  0.00  0.00    +0.129 C 
ATOM     40  C   UNL     1      35.077  13.400   0.767  0.00  0.00    +0.060 C 
ENDBRANCH  35  39
ENDBRANCH  34  35
ENDBRANCH  33  34
ENDBRANCH  32  33
ENDBRANCH  30  32
ENDBRANCH  26  28
ENDBRANCH  25  26
ENDBRANCH  24  25
ENDBRANCH   1  24
TORSDOF 16
