REMARK VINA RESULT:    -7.025      4.107      9.176
REMARK INTER + INTRA:         -12.606
REMARK INTER:                 -10.077
REMARK INTRA:                  -2.529
REMARK UNBOUND:                -1.064
REMARK  Name = lig_assembled_27.pdb
REMARK  11 active torsions:
REMARK  status: ('A' for Active; 'I' for Inactive)
REMARK    1  A    between atoms: _2  and  _8
REMARK    2  A    between atoms: _5  and  _6
REMARK    3  A    between atoms: _5  and  _13
REMARK    4  A    between atoms: _13  and  _15
REMARK    5  A    between atoms: _14  and  _19
REMARK    6  A    between atoms: _15  and  _18
REMARK    7  A    between atoms: _23  and  _33
REMARK    8  A    between atoms: _25  and  _26
REMARK    9  A    between atoms: _27  and  _29
REMARK   10  A    between atoms: _29  and  _31
REMARK   11  A    between atoms: _31  and  _33
REMARK                            x       y       z     vdW  Elec       q    Type
REMARK                         _______ _______ _______ _____ _____    ______ ____
ROOT
ATOM      1  C   UNL     1      26.711  16.742  -3.045  0.00  0.00    +0.400 C 
ATOM      2  N   UNL     1      26.654  15.368  -3.024  0.00  0.00    -0.278 N 
ATOM      3  H   UNL     1      25.719  15.151  -3.493  0.00  0.00    +0.152 HD
ATOM      4  O   UNL     1      25.864  17.346  -3.699  0.00  0.00    -0.226 OA
ENDROOT
BRANCH   1   5
ATOM      5  O   UNL     1      27.651  17.275  -2.336  0.00  0.00    -0.450 OA
BRANCH   5   6
ATOM      6  C   UNL     1      27.868  17.736  -1.023  0.00  0.00    +0.240 C 
BRANCH   6   7
ATOM      7  C   UNL     1      29.319  17.753  -0.506  0.00  0.00    +0.100 C 
BRANCH   7   9
ATOM      8  N   UNL     1      31.071  16.032  -0.199  0.00  0.00    -0.134 NA
ATOM      9  C   UNL     1      29.754  16.389  -0.155  0.00  0.00    +0.086 A 
ATOM     10  C   UNL     1      29.010  15.304   0.249  0.00  0.00    +0.139 A 
ATOM     11  N   UNL     1      29.925  14.298   0.452  0.00  0.00    -0.220 N 
ATOM     12  N   UNL     1      31.167  14.762   0.171  0.00  0.00    -0.061 NA
BRANCH  11  13
ATOM     13  C   UNL     1      29.700  12.965   0.885  0.00  0.00    +0.068 A 
ATOM     14  C   UNL     1      30.690  12.298   1.623  0.00  0.00    +0.028 A 
ATOM     15  C   UNL     1      30.482  10.985   2.053  0.00  0.00    +0.003 A 
ATOM     16  C   UNL     1      29.288  10.331   1.748  0.00  0.00    +0.020 A 
ATOM     17  C   UNL     1      28.306  10.994   1.017  0.00  0.00    +0.043 A 
ATOM     18 CL   UNL     1      26.831  10.187   0.643  0.00  0.00    -0.083 Cl
ATOM     19  C   UNL     1      28.500  12.307   0.584  0.00  0.00    +0.047 A 
ENDBRANCH  11  13
ENDBRANCH   7   9
ENDBRANCH   6   7
ENDBRANCH   5   6
ENDBRANCH   1   5
BRANCH   2  20
ATOM     20  C   UNL     1      27.291  14.102  -2.668  0.00  0.00    +0.152 C 
BRANCH  20  21
ATOM     21  C   UNL     1      26.464  12.828  -2.935  0.00  0.00    +0.193 C 
ATOM     22  O   UNL     1      27.352  11.706  -2.734  0.00  0.00    -0.219 OA
BRANCH  21  23
ATOM     23  C   UNL     1      25.266  12.543  -2.002  0.00  0.00    +0.212 C 
ATOM     24  O   UNL     1      25.443  13.210  -0.742  0.00  0.00    -0.218 OA
BRANCH  23  25
ATOM     25  C   UNL     1      23.881  12.980  -2.613  0.00  0.00    +0.171 C 
ATOM     26  O   UNL     1      23.917  14.289  -3.173  0.00  0.00    -0.343 OA
ATOM     27  C   UNL     1      22.787  15.013  -3.558  0.00  0.00    +0.220 C 
ATOM     28  C   UNL     1      21.728  15.054  -2.442  0.00  0.00    +0.076 C 
ATOM     29  C   UNL     1      21.453  13.604  -2.012  0.00  0.00    +0.177 C 
ATOM     30  O   UNL     1      20.449  13.582  -1.007  0.00  0.00    -0.221 OA
ATOM     31  C   UNL     1      22.769  12.931  -1.514  0.00  0.00    +0.155 C 
BRANCH  31  32
ATOM     32  N   UNL     1      22.510  11.555  -1.099  0.00  0.00    -0.202 NA
ATOM     33  C   UNL     1      22.625  10.982   0.126  0.00  0.00    +0.242 C 
ATOM     34  C   UNL     1      22.013   9.622   0.340  0.00  0.00    +0.096 C 
ATOM     35  O   UNL     1      23.218  11.579   1.023  0.00  0.00    -0.273 OA
ENDBRANCH  31  32
BRANCH  27  36
ATOM     36  C   UNL     1      22.149  14.518  -4.967  0.00  0.00    +0.391 C 
ATOM     37  O   UNL     1      21.017  15.234  -5.108  0.00  0.00    -0.243 OA
ATOM     38  O   UNL     1      23.114  13.828  -5.588  0.00  0.00    -0.243 OA
ENDBRANCH  27  36
ENDBRANCH  23  25
ENDBRANCH  21  23
ENDBRANCH  20  21
ENDBRANCH   2  20
TORSDOF 11
