REMARK VINA RESULT:    -6.698     23.978     26.711
REMARK INTER + INTRA:         -13.237
REMARK INTER:                 -11.231
REMARK INTRA:                  -2.007
REMARK UNBOUND:                -1.841
REMARK  Name = lig_assembled_39.pdb
REMARK  12 active torsions:
REMARK  status: ('A' for Active; 'I' for Inactive)
REMARK    1  A    between atoms: _2  and  _8
REMARK    2  A    between atoms: _5  and  _6
REMARK    3  A    between atoms: _5  and  _14
REMARK    4  A    between atoms: _8  and  _9
REMARK    5  A    between atoms: _14  and  _16
REMARK    6  A    between atoms: _15  and  _20
REMARK    7  A    between atoms: _16  and  _19
REMARK    8  A    between atoms: _24  and  _34
REMARK    9  A    between atoms: _26  and  _27
REMARK   10  A    between atoms: _28  and  _30
REMARK   11  A    between atoms: _30  and  _32
REMARK   12  A    between atoms: _32  and  _34
REMARK                            x       y       z     vdW  Elec       q    Type
REMARK                         _______ _______ _______ _____ _____    ______ ____
ROOT
ATOM      1  C   UNL     1      33.567  42.161   7.798  0.00  0.00    +0.400 C 
ATOM      2  N   UNL     1      34.619  42.487   6.975  0.00  0.00    -0.278 N 
ATOM      3  H   UNL     1      35.441  42.581   7.652  0.00  0.00    +0.152 HD
ATOM      4  O   UNL     1      33.811  41.888   8.971  0.00  0.00    -0.226 OA
ENDROOT
BRANCH   2   5
ATOM      5  C   UNL     1      35.109  42.741   5.623  0.00  0.00    +0.152 C 
BRANCH   5   6
ATOM      6  C   UNL     1      34.254  42.172   4.472  0.00  0.00    +0.193 C 
ATOM      7  O   UNL     1      34.871  42.610   3.241  0.00  0.00    -0.219 OA
BRANCH   6   8
ATOM      8  C   UNL     1      34.169  40.636   4.336  0.00  0.00    +0.212 C 
ATOM      9  O   UNL     1      32.933  40.255   3.711  0.00  0.00    -0.218 OA
BRANCH   8  10
ATOM     10  C   UNL     1      35.362  40.015   3.514  0.00  0.00    +0.171 C 
ATOM     11  O   UNL     1      34.939  39.449   2.278  0.00  0.00    -0.343 OA
ATOM     12  C   UNL     1      35.734  38.628   1.475  0.00  0.00    +0.220 C 
ATOM     13  C   UNL     1      36.363  37.478   2.280  0.00  0.00    +0.076 C 
ATOM     14  C   UNL     1      37.087  38.099   3.486  0.00  0.00    +0.177 C 
ATOM     15  O   UNL     1      37.721  37.080   4.245  0.00  0.00    -0.221 OA
ATOM     16  C   UNL     1      36.078  38.911   4.358  0.00  0.00    +0.155 C 
BRANCH  16  17
ATOM     17  N   UNL     1      36.761  39.497   5.509  0.00  0.00    -0.202 NA
ATOM     18  C   UNL     1      36.400  39.510   6.818  0.00  0.00    +0.242 C 
ATOM     19  C   UNL     1      37.428  39.925   7.838  0.00  0.00    +0.096 C 
ATOM     20  O   UNL     1      35.258  39.185   7.136  0.00  0.00    -0.273 OA
ENDBRANCH  16  17
BRANCH  12  21
ATOM     21  C   UNL     1      36.853  39.442   0.624  0.00  0.00    +0.391 C 
ATOM     22  O   UNL     1      37.664  38.493   0.118  0.00  0.00    -0.243 OA
ATOM     23  O   UNL     1      36.385  40.690   0.497  0.00  0.00    -0.243 OA
ENDBRANCH  12  21
ENDBRANCH   8  10
ENDBRANCH   6   8
ENDBRANCH   5   6
ENDBRANCH   2   5
BRANCH   1  24
ATOM     24  O   UNL     1      32.396  42.204   7.252  0.00  0.00    -0.450 OA
BRANCH  24  25
ATOM     25  C   UNL     1      31.375  41.323   6.843  0.00  0.00    +0.240 C 
BRANCH  25  26
ATOM     26  C   UNL     1      31.512  39.842   7.242  0.00  0.00    +0.100 C 
BRANCH  26  28
ATOM     27  N   UNL     1      30.300  38.739   5.386  0.00  0.00    -0.134 NA
ATOM     28  C   UNL     1      30.377  39.061   6.716  0.00  0.00    +0.086 A 
ATOM     29  C   UNL     1      29.289  38.531   7.373  0.00  0.00    +0.134 A 
ATOM     30  N   UNL     1      28.634  37.830   6.403  0.00  0.00    -0.247 N 
ATOM     31  N   UNL     1      29.211  38.007   5.199  0.00  0.00    -0.065 NA
BRANCH  30  32
ATOM     32  C   UNL     1      27.507  36.922   6.561  0.00  0.00    +0.181 C 
BRANCH  32  33
ATOM     33  C   UNL     1      27.725  35.879   7.642  0.00  0.00    -0.012 A 
ATOM     34  C   UNL     1      28.892  35.086   7.662  0.00  0.00    +0.006 A 
ATOM     35  C   UNL     1      29.103  34.119   8.649  0.00  0.00    +0.000 A 
ATOM     36  C   UNL     1      28.140  33.903   9.626  0.00  0.00    +0.001 A 
ATOM     37  C   UNL     1      26.959  34.640   9.605  0.00  0.00    +0.015 A 
ATOM     38  C   UNL     1      26.746  35.612   8.617  0.00  0.00    +0.023 A 
ATOM     39 BR   UNL     1      25.072  36.513   8.656  0.00  0.00    -0.050 Br
ENDBRANCH  32  33
ENDBRANCH  30  32
ENDBRANCH  26  28
ENDBRANCH  25  26
ENDBRANCH  24  25
ENDBRANCH   1  24
TORSDOF 12
