REMARK VINA RESULT:    -6.572      2.284      4.945
REMARK INTER + INTRA:         -14.876
REMARK INTER:                 -12.560
REMARK INTRA:                  -2.316
REMARK UNBOUND:                -2.540
REMARK  Name = lig_assembled_31.pdb
REMARK  15 active torsions:
REMARK  status: ('A' for Active; 'I' for Inactive)
REMARK    1  A    between atoms: _2  and  _10
REMARK    2  A    between atoms: _3  and  _11
REMARK    3  A    between atoms: _4  and  _13
REMARK    4  A    between atoms: _7  and  _8
REMARK    5  A    between atoms: _7  and  _19
REMARK    6  A    between atoms: _10  and  _11
REMARK    7  A    between atoms: _13  and  _14
REMARK    8  A    between atoms: _19  and  _21
REMARK    9  A    between atoms: _20  and  _25
REMARK   10  A    between atoms: _21  and  _24
REMARK   11  A    between atoms: _29  and  _39
REMARK   12  A    between atoms: _31  and  _32
REMARK   13  A    between atoms: _33  and  _35
REMARK   14  A    between atoms: _35  and  _37
REMARK   15  A    between atoms: _37  and  _39
REMARK                            x       y       z     vdW  Elec       q    Type
REMARK                         _______ _______ _______ _____ _____    ______ ____
ROOT
ATOM      1  C   UNL     1      27.952  17.579  -0.817  0.00  0.00    +0.400 C 
ATOM      2  N   UNL     1      27.078  16.862  -1.600  0.00  0.00    -0.278 N 
ATOM      3  H   UNL     1      26.118  17.175  -1.249  0.00  0.00    +0.152 HD
ATOM      4  O   UNL     1      27.494  18.466  -0.101  0.00  0.00    -0.226 OA
ENDROOT
BRANCH   2   5
ATOM      5  C   UNL     1      26.877  15.899  -2.680  0.00  0.00    +0.152 C 
BRANCH   5   6
ATOM      6  C   UNL     1      25.524  15.158  -2.687  0.00  0.00    +0.193 C 
ATOM      7  O   UNL     1      24.915  15.419  -3.970  0.00  0.00    -0.219 OA
BRANCH   6   8
ATOM      8  C   UNL     1      25.553  13.617  -2.580  0.00  0.00    +0.212 C 
ATOM      9  O   UNL     1      26.819  13.106  -3.027  0.00  0.00    -0.218 OA
BRANCH   8  10
ATOM     10  C   UNL     1      25.283  13.088  -1.119  0.00  0.00    +0.171 C 
ATOM     11  O   UNL     1      26.264  12.152  -0.686  0.00  0.00    -0.343 OA
ATOM     12  C   UNL     1      26.141  11.351   0.452  0.00  0.00    +0.220 C 
ATOM     13  C   UNL     1      24.795  10.606   0.482  0.00  0.00    +0.076 C 
ATOM     14  C   UNL     1      23.683  11.653   0.304  0.00  0.00    +0.177 C 
ATOM     15  O   UNL     1      22.412  11.021   0.365  0.00  0.00    -0.221 OA
ATOM     16  C   UNL     1      23.873  12.415  -1.044  0.00  0.00    +0.155 C 
BRANCH  16  17
ATOM     17  N   UNL     1      22.815  13.406  -1.220  0.00  0.00    -0.202 NA
ATOM     18  C   UNL     1      21.878  13.511  -2.197  0.00  0.00    +0.242 C 
ATOM     19  C   UNL     1      20.722  14.453  -1.982  0.00  0.00    +0.096 C 
ATOM     20  O   UNL     1      21.992  12.843  -3.223  0.00  0.00    -0.273 OA
ENDBRANCH  16  17
BRANCH  12  21
ATOM     21  C   UNL     1      26.412  12.152   1.839  0.00  0.00    +0.391 C 
ATOM     22  O   UNL     1      25.801  11.417   2.789  0.00  0.00    -0.243 OA
ATOM     23  O   UNL     1      27.369  13.047   1.568  0.00  0.00    -0.243 OA
ENDBRANCH  12  21
ENDBRANCH   8  10
ENDBRANCH   6   8
ENDBRANCH   5   6
ENDBRANCH   2   5
BRANCH   1  24
ATOM     24  O   UNL     1      29.191  17.220  -0.890  0.00  0.00    -0.450 OA
BRANCH  24  25
ATOM     25  C   UNL     1      30.141  16.499  -0.140  0.00  0.00    +0.240 C 
BRANCH  25  26
ATOM     26  C   UNL     1      29.846  15.012   0.138  0.00  0.00    +0.100 C 
BRANCH  26  28
ATOM     27  N   UNL     1      31.011  13.115   1.222  0.00  0.00    -0.134 NA
ATOM     28  C   UNL     1      30.820  14.466   1.104  0.00  0.00    +0.086 A 
ATOM     29  C   UNL     1      31.650  15.116   1.990  0.00  0.00    +0.133 A 
ATOM     30  N   UNL     1      32.310  14.104   2.623  0.00  0.00    -0.250 N 
ATOM     31  N   UNL     1      31.929  12.905   2.156  0.00  0.00    -0.065 NA
BRANCH  30  32
ATOM     32  C   UNL     1      33.302  14.203   3.673  0.00  0.00    +0.164 C 
BRANCH  32  33
ATOM     33  C   UNL     1      34.696  13.888   3.150  0.00  0.00    +0.129 C 
BRANCH  33  34
ATOM     34  N   UNL     1      34.960  14.370   1.801  0.00  0.00    -0.298 N 
ATOM     35  H   UNL     1      34.735  15.319   1.537  0.00  0.00    +0.150 HD
ATOM     36  C   UNL     1      35.104  13.447   0.798  0.00  0.00    +0.300 C 
ATOM     37  O   UNL     1      35.117  12.235   1.006  0.00  0.00    -0.253 OA
ATOM     38  N   UNL     1      35.257  13.983  -0.444  0.00  0.00    -0.292 N 
ATOM     39  H   UNL     1      35.203  14.976  -0.619  0.00  0.00    +0.151 HD
BRANCH  38  40
ATOM     40  C   UNL     1      35.421  13.091  -1.566  0.00  0.00    +0.180 C 
BRANCH  40  41
ATOM     41  C   UNL     1      34.259  13.088  -2.491  0.00  0.00    +0.122 A 
ATOM     42  O   UNL     1      34.358  13.748  -3.683  0.00  0.00    -0.466 OA
ATOM     43  C   UNL     1      33.166  13.583  -4.322  0.00  0.00    +0.195 A 
ATOM     44  C   UNL     1      32.304  12.830  -3.559  0.00  0.00    +0.041 A 
ATOM     45  C   UNL     1      33.009  12.511  -2.376  0.00  0.00    +0.046 A 
ENDBRANCH  40  41
ENDBRANCH  38  40
ENDBRANCH  33  34
ENDBRANCH  32  33
ENDBRANCH  30  32
ENDBRANCH  26  28
ENDBRANCH  25  26
ENDBRANCH  24  25
ENDBRANCH   1  24
TORSDOF 15
