REMARK VINA RESULT:    -7.080      1.371      1.911
REMARK INTER + INTRA:         -13.800
REMARK INTER:                 -12.079
REMARK INTRA:                  -1.721
REMARK UNBOUND:                -2.168
REMARK  Name = lig_assembled_86.pdb
REMARK  12 active torsions:
REMARK  status: ('A' for Active; 'I' for Inactive)
REMARK    1  A    between atoms: _2  and  _9
REMARK    2  A    between atoms: _3  and  _12
REMARK    3  A    between atoms: _6  and  _7
REMARK    4  A    between atoms: _6  and  _16
REMARK    5  A    between atoms: _16  and  _18
REMARK    6  A    between atoms: _17  and  _22
REMARK    7  A    between atoms: _18  and  _21
REMARK    8  A    between atoms: _26  and  _36
REMARK    9  A    between atoms: _28  and  _29
REMARK   10  A    between atoms: _30  and  _32
REMARK   11  A    between atoms: _32  and  _34
REMARK   12  A    between atoms: _34  and  _36
REMARK                            x       y       z     vdW  Elec       q    Type
REMARK                         _______ _______ _______ _____ _____    ______ ____
ROOT
ATOM      1  C   UNL     1      27.869  17.356  -1.079  0.00  0.00    +0.400 C 
ATOM      2  N   UNL     1      28.237  16.254  -0.343  0.00  0.00    -0.278 N 
ATOM      3  H   UNL     1      28.501  16.667   0.607  0.00  0.00    +0.152 HD
ATOM      4  O   UNL     1      27.751  18.430  -0.493  0.00  0.00    -0.226 OA
ENDROOT
BRANCH   1   5
ATOM      5  O   UNL     1      27.711  17.156  -2.346  0.00  0.00    -0.450 OA
BRANCH   5   6
ATOM      6  C   UNL     1      26.760  17.400  -3.355  0.00  0.00    +0.240 C 
BRANCH   6   7
ATOM      7  C   UNL     1      26.436  16.245  -4.322  0.00  0.00    +0.100 C 
BRANCH   7   9
ATOM      8  N   UNL     1      25.739  13.910  -3.863  0.00  0.00    -0.134 NA
ATOM      9  C   UNL     1      25.568  15.254  -3.658  0.00  0.00    +0.086 A 
ATOM     10  C   UNL     1      24.528  15.443  -2.779  0.00  0.00    +0.134 A 
ATOM     11  N   UNL     1      24.133  14.180  -2.458  0.00  0.00    -0.248 N 
ATOM     12  N   UNL     1      24.841  13.260  -3.133  0.00  0.00    -0.065 NA
BRANCH  11  13
ATOM     13  C   UNL     1      23.098  13.794  -1.511  0.00  0.00    +0.112 C 
ATOM     14  C   UNL     1      21.695  13.818  -2.151  0.00  0.00    +0.045 C 
ATOM     15  C   UNL     1      20.834  12.588  -1.852  0.00  0.00    +0.059 C 
ATOM     16  C   UNL     1      21.278  11.386  -2.693  0.00  0.00    +0.020 C 
ATOM     17  C   UNL     1      22.256  10.630  -1.797  0.00  0.00    +0.020 C 
ATOM     18  C   UNL     1      22.369  11.494  -0.539  0.00  0.00    +0.059 C 
ATOM     19  N   UNL     1      21.028  12.077  -0.495  0.00  0.00    -0.299 NA
ATOM     20  C   UNL     1      20.759  12.996   0.594  0.00  0.00    +0.105 C 
ATOM     21  C   UNL     1      23.478  12.545  -0.681  0.00  0.00    +0.045 C 
ENDBRANCH  11  13
ENDBRANCH   7   9
ENDBRANCH   6   7
ENDBRANCH   5   6
ENDBRANCH   1   5
BRANCH   2  22
ATOM     22  C   UNL     1      28.411  14.805  -0.275  0.00  0.00    +0.152 C 
BRANCH  22  23
ATOM     23  C   UNL     1      29.471  14.294   0.722  0.00  0.00    +0.193 C 
ATOM     24  O   UNL     1      29.629  12.880   0.472  0.00  0.00    -0.219 OA
BRANCH  23  25
ATOM     25  C   UNL     1      30.900  14.869   0.604  0.00  0.00    +0.212 C 
ATOM     26  O   UNL     1      30.937  16.224   1.079  0.00  0.00    -0.218 OA
BRANCH  25  27
ATOM     27  C   UNL     1      31.978  14.029   1.390  0.00  0.00    +0.171 C 
ATOM     28  O   UNL     1      32.341  14.629   2.629  0.00  0.00    -0.343 OA
ATOM     29  C   UNL     1      33.435  14.235   3.404  0.00  0.00    +0.220 C 
ATOM     30  C   UNL     1      34.726  14.157   2.571  0.00  0.00    +0.076 C 
ATOM     31  C   UNL     1      34.438  13.260   1.355  0.00  0.00    +0.177 C 
ATOM     32  O   UNL     1      35.613  13.121   0.570  0.00  0.00    -0.221 OA
ATOM     33  C   UNL     1      33.263  13.852   0.517  0.00  0.00    +0.155 C 
BRANCH  33  34
ATOM     34  N   UNL     1      32.991  13.007  -0.643  0.00  0.00    -0.202 NA
ATOM     35  C   UNL     1      33.042  13.306  -1.966  0.00  0.00    +0.242 C 
ATOM     36  C   UNL     1      33.002  12.173  -2.957  0.00  0.00    +0.096 C 
ATOM     37  O   UNL     1      33.120  14.481  -2.321  0.00  0.00    -0.273 OA
ENDBRANCH  33  34
BRANCH  29  38
ATOM     38  C   UNL     1      33.177  12.865   4.238  0.00  0.00    +0.391 C 
ATOM     39  O   UNL     1      34.386  12.523   4.727  0.00  0.00    -0.243 OA
ATOM     40  O   UNL     1      31.850  12.760   4.377  0.00  0.00    -0.243 OA
ENDBRANCH  29  38
ENDBRANCH  25  27
ENDBRANCH  23  25
ENDBRANCH  22  23
ENDBRANCH   2  22
TORSDOF 11
