REMARK VINA RESULT:    -7.276      3.639      9.839
REMARK INTER + INTRA:         -14.993
REMARK INTER:                 -11.520
REMARK INTRA:                  -3.473
REMARK UNBOUND:                -1.975
REMARK  Name = lig_assembled_77.pdb
REMARK  14 active torsions:
REMARK  status: ('A' for Active; 'I' for Inactive)
REMARK    1  A    between atoms: _2  and  _9
REMARK    2  A    between atoms: _3  and  _16
REMARK    3  A    between atoms: _6  and  _7
REMARK    4  A    between atoms: _6  and  _22
REMARK    5  A    between atoms: _12  and  _50
REMARK    6  A    between atoms: _13  and  _50
REMARK    7  A    between atoms: _22  and  _24
REMARK    8  A    between atoms: _23  and  _28
REMARK    9  A    between atoms: _24  and  _27
REMARK   10  A    between atoms: _32  and  _42
REMARK   11  A    between atoms: _34  and  _35
REMARK   12  A    between atoms: _36  and  _38
REMARK   13  A    between atoms: _38  and  _40
REMARK   14  A    between atoms: _40  and  _42
REMARK                            x       y       z     vdW  Elec       q    Type
REMARK                         _______ _______ _______ _____ _____    ______ ____
ROOT
ATOM      1  C   UNL     1      26.048   7.346   4.178  0.00  0.00    +0.240 C 
ENDROOT
BRANCH   1   2
ATOM      2  C   UNL     1      24.744   6.741   3.624  0.00  0.00    +0.100 C 
BRANCH   2   4
ATOM      3  N   UNL     1      23.046   8.475   4.095  0.00  0.00    -0.134 NA
ATOM      4  C   UNL     1      23.823   7.809   3.193  0.00  0.00    +0.086 A 
ATOM      5  C   UNL     1      23.580   8.309   1.934  0.00  0.00    +0.139 A 
ATOM      6  N   UNL     1      22.641   9.299   2.119  0.00  0.00    -0.220 N 
ATOM      7  N   UNL     1      22.325   9.371   3.435  0.00  0.00    -0.061 NA
BRANCH   6   8
ATOM      8  C   UNL     1      22.089  10.194   1.165  0.00  0.00    +0.067 A 
ATOM      9  C   UNL     1      22.041   9.856  -0.197  0.00  0.00    +0.030 A 
ATOM     10  C   UNL     1      21.606  10.796  -1.136  0.00  0.00    +0.029 A 
ATOM     11  C   UNL     1      21.218  12.069  -0.714  0.00  0.00    +0.094 A 
ATOM     12  C   UNL     1      21.175  12.384   0.646  0.00  0.00    +0.029 A 
ATOM     13  C   UNL     1      21.623  11.452   1.585  0.00  0.00    +0.030 A 
BRANCH  11  14
ATOM     14  S   UNL     1      20.732  13.287  -1.920  0.00  0.00    +0.025 S 
ATOM     15  O   UNL     1      20.025  12.563  -2.963  0.00  0.00    -0.164 OA
ATOM     16  O   UNL     1      20.088  14.372  -1.205  0.00  0.00    -0.164 OA
BRANCH  14  17
ATOM     17  C   UNL     1      22.195  13.976  -2.665  0.00  0.00    +0.094 A 
ATOM     18  C   UNL     1      23.166  14.612  -1.889  0.00  0.00    +0.029 A 
ATOM     19  C   UNL     1      24.273  15.197  -2.514  0.00  0.00    +0.024 A 
ATOM     20  C   UNL     1      24.446  15.115  -3.902  0.00  0.00    +0.025 A 
ATOM     21  C   UNL     1      23.449  14.502  -4.666  0.00  0.00    +0.024 A 
ATOM     22  C   UNL     1      22.337  13.915  -4.054  0.00  0.00    +0.029 A 
BRANCH  20  23
ATOM     23  N   UNL     1      25.460  15.846  -4.529  0.00  0.00    -0.358 N 
ATOM     24  H   UNL     1      26.249  16.077  -3.934  0.00  0.00    +0.142 HD
ATOM     25  H   UNL     1      25.747  15.477  -5.430  0.00  0.00    +0.142 HD
ENDBRANCH  20  23
ENDBRANCH  14  17
ENDBRANCH  11  14
ENDBRANCH   6   8
ENDBRANCH   2   4
ENDBRANCH   1   2
BRANCH   1  26
ATOM     26  O   UNL     1      26.709   8.303   3.384  0.00  0.00    -0.450 OA
BRANCH  26  27
ATOM     27  C   UNL     1      27.299   8.387   2.237  0.00  0.00    +0.400 C 
ATOM     28  N   UNL     1      28.327   9.298   2.161  0.00  0.00    -0.278 N 
ATOM     29  H   UNL     1      28.790   9.071   1.225  0.00  0.00    +0.152 HD
ATOM     30  O   UNL     1      27.045   7.716   1.240  0.00  0.00    -0.226 OA
BRANCH  28  31
ATOM     31  C   UNL     1      29.043  10.419   2.764  0.00  0.00    +0.152 C 
BRANCH  31  32
ATOM     32  C   UNL     1      28.183  11.434   3.545  0.00  0.00    +0.193 C 
ATOM     33  O   UNL     1      29.048  12.040   4.531  0.00  0.00    -0.219 OA
BRANCH  32  34
ATOM     34  C   UNL     1      27.598  12.629   2.759  0.00  0.00    +0.212 C 
ATOM     35  O   UNL     1      27.469  13.776   3.614  0.00  0.00    -0.218 OA
BRANCH  34  36
ATOM     36  C   UNL     1      28.460  13.031   1.502  0.00  0.00    +0.171 C 
ATOM     37  O   UNL     1      29.154  14.261   1.685  0.00  0.00    -0.343 OA
ATOM     38  C   UNL     1      29.787  14.969   0.661  0.00  0.00    +0.220 C 
ATOM     39  C   UNL     1      28.858  15.177  -0.548  0.00  0.00    +0.076 C 
ATOM     40  C   UNL     1      28.312  13.798  -0.955  0.00  0.00    +0.177 C 
ATOM     41  O   UNL     1      27.476  13.929  -2.096  0.00  0.00    -0.221 OA
ATOM     42  C   UNL     1      27.545  13.150   0.240  0.00  0.00    +0.155 C 
BRANCH  42  43
ATOM     43  N   UNL     1      27.018  11.843  -0.145  0.00  0.00    -0.202 NA
ATOM     44  C   UNL     1      25.735  11.447  -0.339  0.00  0.00    +0.242 C 
ATOM     45  C   UNL     1      25.489  10.125  -1.018  0.00  0.00    +0.096 C 
ATOM     46  O   UNL     1      24.813  12.168   0.038  0.00  0.00    -0.273 OA
ENDBRANCH  42  43
BRANCH  38  47
ATOM     47  C   UNL     1      31.211  14.326   0.215  0.00  0.00    +0.391 C 
ATOM     48  O   UNL     1      31.371  14.694  -1.071  0.00  0.00    -0.243 OA
ATOM     49  O   UNL     1      31.815  13.944   1.347  0.00  0.00    -0.243 OA
ENDBRANCH  38  47
ENDBRANCH  34  36
ENDBRANCH  32  34
ENDBRANCH  31  32
ENDBRANCH  28  31
ENDBRANCH  26  27
ENDBRANCH   1  26
TORSDOF 14
