REMARK VINA RESULT:    -7.659      2.050      2.562
REMARK INTER + INTRA:         -13.649
REMARK INTER:                 -12.217
REMARK INTRA:                  -1.432
REMARK UNBOUND:                -1.064
REMARK  Name = lig_assembled_27.pdb
REMARK  11 active torsions:
REMARK  status: ('A' for Active; 'I' for Inactive)
REMARK    1  A    between atoms: _2  and  _8
REMARK    2  A    between atoms: _5  and  _6
REMARK    3  A    between atoms: _5  and  _13
REMARK    4  A    between atoms: _13  and  _15
REMARK    5  A    between atoms: _14  and  _19
REMARK    6  A    between atoms: _15  and  _18
REMARK    7  A    between atoms: _23  and  _33
REMARK    8  A    between atoms: _25  and  _26
REMARK    9  A    between atoms: _27  and  _29
REMARK   10  A    between atoms: _29  and  _31
REMARK   11  A    between atoms: _31  and  _33
REMARK                            x       y       z     vdW  Elec       q    Type
REMARK                         _______ _______ _______ _____ _____    ______ ____
ROOT
ATOM      1  C   UNL     1      28.994  17.129  -0.562  0.00  0.00    +0.400 C 
ATOM      2  N   UNL     1      29.438  15.879  -0.200  0.00  0.00    -0.278 N 
ATOM      3  H   UNL     1      30.040  16.070   0.662  0.00  0.00    +0.152 HD
ATOM      4  O   UNL     1      29.203  18.063   0.208  0.00  0.00    -0.226 OA
ENDROOT
BRANCH   1   5
ATOM      5  O   UNL     1      28.415  17.205  -1.715  0.00  0.00    -0.450 OA
BRANCH   5   6
ATOM      6  C   UNL     1      27.128  17.396  -2.254  0.00  0.00    +0.240 C 
BRANCH   6   7
ATOM      7  C   UNL     1      26.872  16.883  -3.683  0.00  0.00    +0.100 C 
BRANCH   7   9
ATOM      8  N   UNL     1      25.289  15.357  -4.821  0.00  0.00    -0.134 NA
ATOM      9  C   UNL     1      25.610  16.123  -3.737  0.00  0.00    +0.086 A 
ATOM     10  C   UNL     1      24.598  16.030  -2.808  0.00  0.00    +0.139 A 
ATOM     11  N   UNL     1      23.673  15.181  -3.371  0.00  0.00    -0.220 N 
ATOM     12  N   UNL     1      24.113  14.789  -4.592  0.00  0.00    -0.061 NA
BRANCH  11  13
ATOM     13  C   UNL     1      22.439  14.732  -2.835  0.00  0.00    +0.068 A 
ATOM     14  C   UNL     1      21.234  15.134  -3.434  0.00  0.00    +0.028 A 
ATOM     15  C   UNL     1      20.012  14.701  -2.914  0.00  0.00    +0.003 A 
ATOM     16  C   UNL     1      19.983  13.868  -1.796  0.00  0.00    +0.020 A 
ATOM     17  C   UNL     1      21.179  13.467  -1.204  0.00  0.00    +0.043 A 
ATOM     18 CL   UNL     1      21.144  12.437   0.175  0.00  0.00    -0.083 Cl
ATOM     19  C   UNL     1      22.407  13.891  -1.714  0.00  0.00    +0.047 A 
ENDBRANCH  11  13
ENDBRANCH   7   9
ENDBRANCH   6   7
ENDBRANCH   5   6
ENDBRANCH   1   5
BRANCH   2  20
ATOM     20  C   UNL     1      29.443  14.440  -0.450  0.00  0.00    +0.152 C 
BRANCH  20  21
ATOM     21  C   UNL     1      30.795  13.722  -0.258  0.00  0.00    +0.193 C 
ATOM     22  O   UNL     1      30.598  12.350  -0.667  0.00  0.00    -0.219 OA
BRANCH  21  23
ATOM     23  C   UNL     1      31.990  14.209  -1.107  0.00  0.00    +0.212 C 
ATOM     24  O   UNL     1      32.330  15.562  -0.764  0.00  0.00    -0.218 OA
BRANCH  23  25
ATOM     25  C   UNL     1      33.275  13.310  -0.948  0.00  0.00    +0.171 C 
ATOM     26  O   UNL     1      34.122  13.748   0.109  0.00  0.00    -0.343 OA
ATOM     27  C   UNL     1      35.427  13.293   0.313  0.00  0.00    +0.220 C 
ATOM     28  C   UNL     1      36.268  13.377  -0.973  0.00  0.00    +0.076 C 
ATOM     29  C   UNL     1      35.493  12.645  -2.081  0.00  0.00    +0.177 C 
ATOM     30  O   UNL     1      36.247  12.658  -3.285  0.00  0.00    -0.221 OA
ATOM     31  C   UNL     1      34.093  13.303  -2.281  0.00  0.00    +0.155 C 
BRANCH  31  32
ATOM     32  N   UNL     1      33.356  12.614  -3.338  0.00  0.00    -0.202 NA
ATOM     33  C   UNL     1      33.014  13.044  -4.580  0.00  0.00    +0.242 C 
ATOM     34  C   UNL     1      32.513  12.031  -5.575  0.00  0.00    +0.096 C 
ATOM     35  O   UNL     1      33.121  14.236  -4.860  0.00  0.00    -0.273 OA
ENDBRANCH  31  32
BRANCH  27  36
ATOM     36  C   UNL     1      35.500  11.813   0.979  0.00  0.00    +0.391 C 
ATOM     37  O   UNL     1      36.776  11.416   0.806  0.00  0.00    -0.243 OA
ATOM     38  O   UNL     1      34.379  11.675   1.697  0.00  0.00    -0.243 OA
ENDBRANCH  27  36
ENDBRANCH  23  25
ENDBRANCH  21  23
ENDBRANCH  20  21
ENDBRANCH   2  20
TORSDOF 11
