REMARK VINA RESULT:    -6.201      3.038      5.541
REMARK INTER + INTRA:         -11.878
REMARK INTER:                 -10.189
REMARK INTRA:                  -1.689
REMARK UNBOUND:                -1.689
REMARK  Name = lig_assembled_49.pdb
REMARK  11 active torsions:
REMARK  status: ('A' for Active; 'I' for Inactive)
REMARK    1  A    between atoms: _2  and  _8
REMARK    2  A    between atoms: _5  and  _6
REMARK    3  A    between atoms: _5  and  _12
REMARK    4  A    between atoms: _12  and  _14
REMARK    5  A    between atoms: _13  and  _18
REMARK    6  A    between atoms: _14  and  _17
REMARK    7  A    between atoms: _22  and  _32
REMARK    8  A    between atoms: _24  and  _25
REMARK    9  A    between atoms: _26  and  _28
REMARK   10  A    between atoms: _28  and  _30
REMARK   11  A    between atoms: _30  and  _32
REMARK                            x       y       z     vdW  Elec       q    Type
REMARK                         _______ _______ _______ _____ _____    ______ ____
ROOT
ATOM      1  C   UNL     1      25.856  14.885  -2.905  0.00  0.00    +0.152 C 
ENDROOT
BRANCH   1   3
ATOM      2  C   UNL     1      23.505  14.782  -4.287  0.00  0.00    +0.400 C 
ATOM      3  N   UNL     1      24.807  14.603  -3.881  0.00  0.00    -0.278 N 
ATOM      4  H   UNL     1      25.221  13.982  -4.646  0.00  0.00    +0.152 HD
ATOM      5  O   UNL     1      23.190  14.397  -5.410  0.00  0.00    -0.226 OA
BRANCH   2   6
ATOM      6  O   UNL     1      22.718  15.323  -3.417  0.00  0.00    -0.450 OA
BRANCH   6   7
ATOM      7  C   UNL     1      21.362  15.681  -3.279  0.00  0.00    +0.240 C 
BRANCH   7   8
ATOM      8  C   UNL     1      20.344  14.544  -3.071  0.00  0.00    +0.100 C 
BRANCH   8  10
ATOM      9  N   UNL     1      19.979  14.066  -0.672  0.00  0.00    -0.134 NA
ATOM     10  C   UNL     1      20.650  13.800  -1.835  0.00  0.00    +0.086 A 
ATOM     11  C   UNL     1      21.571  12.802  -1.606  0.00  0.00    +0.134 A 
ATOM     12  N   UNL     1      21.415  12.508  -0.282  0.00  0.00    -0.248 N 
ATOM     13  N   UNL     1      20.456  13.269   0.274  0.00  0.00    -0.065 NA
BRANCH  12  14
ATOM     14  C   UNL     1      22.153  11.547   0.501  0.00  0.00    +0.109 C 
ATOM     15  C   UNL     1      21.745  11.504   1.974  0.00  0.00    +0.027 C 
ATOM     16  C   UNL     1      22.311  10.174   2.443  0.00  0.00    +0.002 C 
ATOM     17  C   UNL     1      22.054   9.227   1.279  0.00  0.00    +0.002 C 
ATOM     18  C   UNL     1      22.017  10.096   0.019  0.00  0.00    +0.027 C 
ENDBRANCH  12  14
ENDBRANCH   8  10
ENDBRANCH   7   8
ENDBRANCH   6   7
ENDBRANCH   2   6
ENDBRANCH   1   3
BRANCH   1  19
ATOM     19  C   UNL     1      26.069  13.820  -1.809  0.00  0.00    +0.193 C 
ATOM     20  O   UNL     1      25.247  12.687  -2.166  0.00  0.00    -0.219 OA
BRANCH  19  21
ATOM     21  C   UNL     1      27.488  13.232  -1.650  0.00  0.00    +0.212 C 
ATOM     22  O   UNL     1      28.194  13.277  -2.901  0.00  0.00    -0.218 OA
BRANCH  21  23
ATOM     23  C   UNL     1      28.352  13.972  -0.558  0.00  0.00    +0.171 C 
ATOM     24  O   UNL     1      29.619  14.390  -1.053  0.00  0.00    -0.343 OA
ATOM     25  C   UNL     1      30.668  14.845  -0.250  0.00  0.00    +0.220 C 
ATOM     26  C   UNL     1      30.959  13.877   0.910  0.00  0.00    +0.076 C 
ATOM     27  C   UNL     1      29.635  13.632   1.652  0.00  0.00    +0.177 C 
ATOM     28  O   UNL     1      29.856  12.773   2.761  0.00  0.00    -0.221 OA
ATOM     29  C   UNL     1      28.574  13.036   0.676  0.00  0.00    +0.155 C 
BRANCH  29  30
ATOM     30  N   UNL     1      27.316  12.796   1.378  0.00  0.00    -0.202 NA
ATOM     31  C   UNL     1      26.726  11.624   1.725  0.00  0.00    +0.242 C 
ATOM     32  C   UNL     1      25.580  11.661   2.703  0.00  0.00    +0.096 C 
ATOM     33  O   UNL     1      27.136  10.571   1.241  0.00  0.00    -0.273 OA
ENDBRANCH  29  30
BRANCH  25  34
ATOM     34  C   UNL     1      30.464  16.367   0.280  0.00  0.00    +0.391 C 
ATOM     35  O   UNL     1      31.214  16.450   1.396  0.00  0.00    -0.243 OA
ATOM     36  O   UNL     1      29.891  17.036  -0.728  0.00  0.00    -0.243 OA
ENDBRANCH  25  34
ENDBRANCH  21  23
ENDBRANCH  19  21
ENDBRANCH   1  19
TORSDOF 11
