REMARK VINA RESULT:    -6.590     22.166     25.537
REMARK INTER + INTRA:         -12.635
REMARK INTER:                 -10.673
REMARK INTRA:                  -1.962
REMARK UNBOUND:                -1.808
REMARK  Name = lig_assembled_8.pdb
REMARK  11 active torsions:
REMARK  status: ('A' for Active; 'I' for Inactive)
REMARK    1  A    between atoms: _2  and  _8
REMARK    2  A    between atoms: _5  and  _6
REMARK    3  A    between atoms: _5  and  _13
REMARK    4  A    between atoms: _13  and  _15
REMARK    5  A    between atoms: _14  and  _19
REMARK    6  A    between atoms: _15  and  _18
REMARK    7  A    between atoms: _23  and  _33
REMARK    8  A    between atoms: _25  and  _26
REMARK    9  A    between atoms: _27  and  _29
REMARK   10  A    between atoms: _29  and  _31
REMARK   11  A    between atoms: _31  and  _33
REMARK                            x       y       z     vdW  Elec       q    Type
REMARK                         _______ _______ _______ _____ _____    ______ ____
ROOT
ATOM      1  C   UNL     1      44.805  26.571  11.056  0.00  0.00    +0.400 C 
ATOM      2  N   UNL     1      45.529  25.888  10.108  0.00  0.00    -0.278 N 
ATOM      3  H   UNL     1      44.823  25.734   9.321  0.00  0.00    +0.152 HD
ATOM      4  O   UNL     1      43.688  26.980  10.748  0.00  0.00    -0.226 OA
ENDROOT
BRANCH   1   5
ATOM      5  O   UNL     1      45.369  26.691  12.213  0.00  0.00    -0.450 OA
BRANCH   5   6
ATOM      6  C   UNL     1      46.537  27.239  12.779  0.00  0.00    +0.240 C 
BRANCH   6   7
ATOM      7  C   UNL     1      47.103  26.556  14.040  0.00  0.00    +0.100 C 
BRANCH   7   9
ATOM      8  N   UNL     1      45.377  27.911  15.170  0.00  0.00    -0.134 NA
ATOM      9  C   UNL     1      46.287  26.902  15.218  0.00  0.00    +0.086 A 
ATOM     10  C   UNL     1      46.263  26.341  16.474  0.00  0.00    +0.139 A 
ATOM     11  N   UNL     1      45.290  27.036  17.172  0.00  0.00    -0.219 N 
ATOM     12  N   UNL     1      44.787  27.986  16.354  0.00  0.00    -0.061 NA
BRANCH  11  13
ATOM     13  C   UNL     1      44.843  26.820  18.512  0.00  0.00    +0.081 A 
ATOM     14  C   UNL     1      44.292  25.559  18.834  0.00  0.00    +0.029 A 
ATOM     15  C   UNL     1      43.811  25.276  20.115  0.00  0.00    +0.002 A 
ATOM     16  C   UNL     1      43.869  26.243  21.106  0.00  0.00    +0.001 A 
ATOM     17  C   UNL     1      44.415  27.490  20.816  0.00  0.00    +0.017 A 
ATOM     18  C   UNL     1      44.906  27.792  19.530  0.00  0.00    +0.043 A 
ATOM     19 BR   UNL     1      45.607  29.556  19.380  0.00  0.00    -0.048 Br
ENDBRANCH  11  13
ENDBRANCH   7   9
ENDBRANCH   6   7
ENDBRANCH   5   6
ENDBRANCH   1   5
BRANCH   2  20
ATOM     20  C   UNL     1      46.805  25.306   9.698  0.00  0.00    +0.152 C 
BRANCH  20  21
ATOM     21  C   UNL     1      47.180  23.961  10.354  0.00  0.00    +0.193 C 
ATOM     22  O   UNL     1      48.055  24.270  11.461  0.00  0.00    -0.219 OA
BRANCH  21  23
ATOM     23  C   UNL     1      46.041  23.130  10.983  0.00  0.00    +0.212 C 
ATOM     24  O   UNL     1      44.844  23.243  10.197  0.00  0.00    -0.218 OA
BRANCH  23  25
ATOM     25  C   UNL     1      46.397  21.603  11.143  0.00  0.00    +0.171 C 
ATOM     26  O   UNL     1      45.639  20.769  10.272  0.00  0.00    -0.343 OA
ATOM     27  C   UNL     1      45.574  19.378  10.371  0.00  0.00    +0.220 C 
ATOM     28  C   UNL     1      45.236  18.923  11.802  0.00  0.00    +0.076 C 
ATOM     29  C   UNL     1      46.243  19.593  12.750  0.00  0.00    +0.177 C 
ATOM     30  O   UNL     1      46.000  19.174  14.086  0.00  0.00    -0.221 OA
ATOM     31  C   UNL     1      46.155  21.146  12.619  0.00  0.00    +0.155 C 
BRANCH  31  32
ATOM     32  N   UNL     1      47.105  21.786  13.524  0.00  0.00    -0.202 NA
ATOM     33  C   UNL     1      46.890  22.704  14.500  0.00  0.00    +0.242 C 
ATOM     34  C   UNL     1      48.000  22.979  15.481  0.00  0.00    +0.096 C 
ATOM     35  O   UNL     1      45.807  23.282  14.563  0.00  0.00    -0.273 OA
ENDBRANCH  31  32
BRANCH  27  36
ATOM     36  C   UNL     1      46.898  18.626   9.803  0.00  0.00    +0.391 C 
ATOM     37  O   UNL     1      46.854  17.391  10.339  0.00  0.00    -0.243 OA
ATOM     38  O   UNL     1      47.357  19.390   8.804  0.00  0.00    -0.243 OA
ENDBRANCH  27  36
ENDBRANCH  23  25
ENDBRANCH  21  23
ENDBRANCH  20  21
ENDBRANCH   2  20
TORSDOF 11
