REMARK VINA RESULT:    -6.882      2.569      7.968
REMARK INTER + INTRA:         -13.816
REMARK INTER:                 -10.895
REMARK INTRA:                  -2.922
REMARK UNBOUND:                -1.904
REMARK  Name = lig_assembled_73.pdb
REMARK  13 active torsions:
REMARK  status: ('A' for Active; 'I' for Inactive)
REMARK    1  A    between atoms: _2  and  _9
REMARK    2  A    between atoms: _3  and  _13
REMARK    3  A    between atoms: _6  and  _7
REMARK    4  A    between atoms: _6  and  _17
REMARK    5  A    between atoms: _12  and  _15
REMARK    6  A    between atoms: _17  and  _19
REMARK    7  A    between atoms: _18  and  _23
REMARK    8  A    between atoms: _19  and  _22
REMARK    9  A    between atoms: _27  and  _37
REMARK   10  A    between atoms: _29  and  _30
REMARK   11  A    between atoms: _31  and  _33
REMARK   12  A    between atoms: _33  and  _35
REMARK   13  A    between atoms: _35  and  _37
REMARK                            x       y       z     vdW  Elec       q    Type
REMARK                         _______ _______ _______ _____ _____    ______ ____
ROOT
ATOM      1  C   UNL     1      25.479  15.851  -4.171  0.00  0.00    +0.400 C 
ATOM      2  N   UNL     1      24.148  15.529  -4.041  0.00  0.00    -0.278 N 
ATOM      3  H   UNL     1      23.922  15.038  -4.964  0.00  0.00    +0.152 HD
ATOM      4  O   UNL     1      26.097  15.387  -5.126  0.00  0.00    -0.226 OA
ENDROOT
BRANCH   2   5
ATOM      5  C   UNL     1      22.938  15.542  -3.223  0.00  0.00    +0.152 C 
BRANCH   5   6
ATOM      6  C   UNL     1      22.866  14.487  -2.100  0.00  0.00    +0.193 C 
ATOM      7  O   UNL     1      21.496  14.461  -1.643  0.00  0.00    -0.219 OA
BRANCH   6   8
ATOM      8  C   UNL     1      23.174  13.021  -2.476  0.00  0.00    +0.212 C 
ATOM      9  O   UNL     1      23.247  12.873  -3.903  0.00  0.00    -0.218 OA
BRANCH   8  10
ATOM     10  C   UNL     1      24.515  12.484  -1.844  0.00  0.00    +0.171 C 
ATOM     11  O   UNL     1      25.467  12.094  -2.829  0.00  0.00    -0.343 OA
ATOM     12  C   UNL     1      26.628  11.366  -2.559  0.00  0.00    +0.220 C 
ATOM     13  C   UNL     1      26.330  10.105  -1.728  0.00  0.00    +0.076 C 
ATOM     14  C   UNL     1      25.538  10.546  -0.486  0.00  0.00    +0.177 C 
ATOM     15  O   UNL     1      25.271   9.420   0.338  0.00  0.00    -0.221 OA
ATOM     16  C   UNL     1      24.219  11.261  -0.915  0.00  0.00    +0.155 C 
BRANCH  16  17
ATOM     17  N   UNL     1      23.461  11.675   0.262  0.00  0.00    -0.202 NA
ATOM     18  C   UNL     1      22.163  11.441   0.585  0.00  0.00    +0.242 C 
ATOM     19  C   UNL     1      21.713  11.728   1.994  0.00  0.00    +0.096 C 
ATOM     20  O   UNL     1      21.394  11.005  -0.269  0.00  0.00    -0.273 OA
ENDBRANCH  16  17
BRANCH  12  21
ATOM     21  C   UNL     1      27.809  12.257  -1.888  0.00  0.00    +0.391 C 
ATOM     22  O   UNL     1      28.602  11.367  -1.260  0.00  0.00    -0.243 OA
ATOM     23  O   UNL     1      27.723  13.469  -2.451  0.00  0.00    -0.243 OA
ENDBRANCH  12  21
ENDBRANCH   8  10
ENDBRANCH   6   8
ENDBRANCH   5   6
ENDBRANCH   2   5
BRANCH   1  24
ATOM     24  O   UNL     1      25.950  16.652  -3.273  0.00  0.00    -0.450 OA
BRANCH  24  25
ATOM     25  C   UNL     1      27.128  17.373  -2.997  0.00  0.00    +0.240 C 
BRANCH  25  26
ATOM     26  C   UNL     1      27.343  17.859  -1.551  0.00  0.00    +0.100 C 
BRANCH  26  28
ATOM     27  N   UNL     1      29.676  17.614  -0.763  0.00  0.00    -0.134 NA
ATOM     28  C   UNL     1      28.425  17.090  -0.907  0.00  0.00    +0.086 A 
ATOM     29  C   UNL     1      28.406  15.822  -0.373  0.00  0.00    +0.139 A 
ATOM     30  N   UNL     1      29.681  15.616   0.098  0.00  0.00    -0.220 N 
ATOM     31  N   UNL     1      30.433  16.713  -0.152  0.00  0.00    -0.061 NA
BRANCH  30  32
ATOM     32  C   UNL     1      30.215  14.472   0.747  0.00  0.00    +0.074 A 
ATOM     33  C   UNL     1      31.599  14.228   0.701  0.00  0.00    +0.032 A 
ATOM     34  C   UNL     1      32.149  13.100   1.327  0.00  0.00    +0.054 A 
ATOM     35  C   UNL     1      31.320  12.204   1.999  0.00  0.00    +0.195 A 
ATOM     36  C   UNL     1      29.949  12.451   2.041  0.00  0.00    +0.316 A 
ATOM     37  C   UNL     1      29.380  13.578   1.429  0.00  0.00    +0.116 A 
BRANCH  36  38
ATOM     38  N   UNL     1      29.059  11.532   2.723  0.00  0.00    +0.083 N 
ATOM     39  O   UNL     1      28.170  10.992   2.053  0.00  0.00    +0.042 OA
ATOM     40  O   UNL     1      29.202  11.429   3.951  0.00  0.00    -0.576 OA
ENDBRANCH  36  38
BRANCH  35  41
ATOM     41  O   UNL     1      31.857  11.119   2.625  0.00  0.00    -0.501 OA
ATOM     42  H   UNL     1      32.792  11.284   2.835  0.00  0.00    +0.292 HD
ENDBRANCH  35  41
ENDBRANCH  30  32
ENDBRANCH  26  28
ENDBRANCH  25  26
ENDBRANCH  24  25
ENDBRANCH   1  24
TORSDOF 13
