REMARK VINA RESULT:    -6.365      2.592      3.889
REMARK INTER + INTRA:         -12.457
REMARK INTER:                 -10.847
REMARK INTRA:                  -1.610
REMARK UNBOUND:                -1.999
REMARK  Name = lig_assembled_57.pdb
REMARK  12 active torsions:
REMARK  status: ('A' for Active; 'I' for Inactive)
REMARK    1  A    between atoms: _2  and  _9
REMARK    2  A    between atoms: _3  and  _12
REMARK    3  A    between atoms: _6  and  _7
REMARK    4  A    between atoms: _6  and  _14
REMARK    5  A    between atoms: _14  and  _16
REMARK    6  A    between atoms: _15  and  _20
REMARK    7  A    between atoms: _16  and  _19
REMARK    8  A    between atoms: _24  and  _34
REMARK    9  A    between atoms: _26  and  _27
REMARK   10  A    between atoms: _28  and  _30
REMARK   11  A    between atoms: _30  and  _32
REMARK   12  A    between atoms: _32  and  _34
REMARK                            x       y       z     vdW  Elec       q    Type
REMARK                         _______ _______ _______ _____ _____    ______ ____
ROOT
ATOM      1  C   UNL     1      27.585  17.822  -1.972  0.00  0.00    +0.400 C 
ATOM      2  N   UNL     1      26.950  17.494  -3.146  0.00  0.00    -0.278 N 
ATOM      3  H   UNL     1      26.230  18.276  -3.265  0.00  0.00    +0.152 HD
ATOM      4  O   UNL     1      27.350  18.919  -1.472  0.00  0.00    -0.226 OA
ENDROOT
BRANCH   1   5
ATOM      5  O   UNL     1      28.361  16.911  -1.483  0.00  0.00    -0.450 OA
BRANCH   5   6
ATOM      6  C   UNL     1      28.838  16.474  -0.232  0.00  0.00    +0.240 C 
BRANCH   6   7
ATOM      7  C   UNL     1      30.342  16.647   0.056  0.00  0.00    +0.100 C 
BRANCH   7   9
ATOM      8  N   UNL     1      31.204  14.451  -0.672  0.00  0.00    -0.134 NA
ATOM      9  C   UNL     1      30.955  15.337   0.337  0.00  0.00    +0.086 A 
ATOM     10  C   UNL     1      31.384  14.794   1.530  0.00  0.00    +0.134 A 
ATOM     11  N   UNL     1      31.966  13.615   1.170  0.00  0.00    -0.248 N 
ATOM     12  N   UNL     1      31.788  13.385  -0.148  0.00  0.00    -0.065 NA
BRANCH  11  13
ATOM     13  C   UNL     1      32.759  12.664   1.940  0.00  0.00    +0.111 C 
ATOM     14  C   UNL     1      34.086  12.362   1.228  0.00  0.00    +0.042 C 
ATOM     15  C   UNL     1      35.048  13.539   1.367  0.00  0.00    +0.086 C 
ATOM     16  N   UNL     1      35.346  13.874   2.764  0.00  0.00    -0.305 NA
ATOM     17  C   UNL     1      34.137  14.111   3.554  0.00  0.00    +0.086 C 
ATOM     18  C   UNL     1      36.250  12.911   3.384  0.00  0.00    +0.104 C 
ATOM     19  C   UNL     1      33.044  13.044   3.402  0.00  0.00    +0.042 C 
ENDBRANCH  11  13
ENDBRANCH   7   9
ENDBRANCH   6   7
ENDBRANCH   5   6
ENDBRANCH   1   5
BRANCH   2  20
ATOM     20  C   UNL     1      26.829  16.587  -4.285  0.00  0.00    +0.152 C 
BRANCH  20  21
ATOM     21  C   UNL     1      25.491  15.831  -4.412  0.00  0.00    +0.193 C 
ATOM     22  O   UNL     1      25.460  15.261  -5.739  0.00  0.00    -0.219 OA
BRANCH  21  23
ATOM     23  C   UNL     1      25.257  14.628  -3.471  0.00  0.00    +0.212 C 
ATOM     24  O   UNL     1      25.720  14.931  -2.145  0.00  0.00    -0.218 OA
BRANCH  23  25
ATOM     25  C   UNL     1      23.746  14.185  -3.388  0.00  0.00    +0.171 C 
ATOM     26  O   UNL     1      22.856  15.291  -3.280  0.00  0.00    -0.343 OA
ATOM     27  C   UNL     1      21.503  15.185  -2.949  0.00  0.00    +0.220 C 
ATOM     28  C   UNL     1      21.290  14.338  -1.683  0.00  0.00    +0.076 C 
ATOM     29  C   UNL     1      22.012  12.997  -1.896  0.00  0.00    +0.177 C 
ATOM     30  O   UNL     1      21.813  12.158  -0.767  0.00  0.00    -0.221 OA
ATOM     31  C   UNL     1      23.531  13.240  -2.161  0.00  0.00    +0.155 C 
BRANCH  31  32
ATOM     32  N   UNL     1      24.221  11.968  -2.357  0.00  0.00    -0.202 NA
ATOM     33  C   UNL     1      25.058  11.298  -1.525  0.00  0.00    +0.242 C 
ATOM     34  C   UNL     1      25.399   9.867  -1.853  0.00  0.00    +0.096 C 
ATOM     35  O   UNL     1      25.513  11.865  -0.534  0.00  0.00    -0.273 OA
ENDBRANCH  31  32
BRANCH  27  36
ATOM     36  C   UNL     1      20.576  14.665  -4.178  0.00  0.00    +0.391 C 
ATOM     37  O   UNL     1      19.413  14.299  -3.605  0.00  0.00    -0.243 OA
ATOM     38  O   UNL     1      21.186  15.070  -5.299  0.00  0.00    -0.243 OA
ENDBRANCH  27  36
ENDBRANCH  23  25
ENDBRANCH  21  23
ENDBRANCH  20  21
ENDBRANCH   2  20
TORSDOF 11
