REMARK VINA RESULT:    -6.041      3.023      9.700
REMARK INTER + INTRA:         -15.991
REMARK INTER:                 -12.046
REMARK INTRA:                  -3.945
REMARK UNBOUND:                -2.358
REMARK  Name = lig_assembled_30.pdb
REMARK  22 active torsions:
REMARK  status: ('A' for Active; 'I' for Inactive)
REMARK    1  A    between atoms: _2  and  _8
REMARK    2  A    between atoms: _4  and  _17
REMARK    3  A    between atoms: _4  and  _18
REMARK    4  A    between atoms: _5  and  _6
REMARK    5  A    between atoms: _5  and  _20
REMARK    6  A    between atoms: _8  and  _9
REMARK    7  A    between atoms: _9  and  _10
REMARK    8  A    between atoms: _10  and  _11
REMARK    9  A    between atoms: _11  and  _12
REMARK   10  A    between atoms: _12  and  _13
REMARK   11  A    between atoms: _13  and  _14
REMARK   12  A    between atoms: _14  and  _15
REMARK   13  A    between atoms: _15  and  _16
REMARK   14  A    between atoms: _16  and  _17
REMARK   15  A    between atoms: _20  and  _22
REMARK   16  A    between atoms: _21  and  _26
REMARK   17  A    between atoms: _22  and  _25
REMARK   18  A    between atoms: _30  and  _40
REMARK   19  A    between atoms: _32  and  _33
REMARK   20  A    between atoms: _34  and  _36
REMARK   21  A    between atoms: _36  and  _38
REMARK   22  A    between atoms: _38  and  _40
REMARK                            x       y       z     vdW  Elec       q    Type
REMARK                         _______ _______ _______ _____ _____    ______ ____
ROOT
ATOM      1  C   UNL     1      27.947  17.791  -1.050  0.00  0.00    +0.400 C 
ATOM      2  N   UNL     1      27.174  17.555  -2.161  0.00  0.00    -0.278 N 
ATOM      3  H   UNL     1      26.204  17.890  -1.864  0.00  0.00    +0.152 HD
ATOM      4  O   UNL     1      27.456  18.441  -0.130  0.00  0.00    -0.226 OA
ENDROOT
BRANCH   1   5
ATOM      5  O   UNL     1      29.130  17.269  -1.069  0.00  0.00    -0.450 OA
BRANCH   5   6
ATOM      6  C   UNL     1      29.859  16.251  -0.423  0.00  0.00    +0.240 C 
BRANCH   6   7
ATOM      7  C   UNL     1      29.062  15.211   0.388  0.00  0.00    +0.100 C 
BRANCH   7   9
ATOM      8  N   UNL     1      29.675  13.034   1.394  0.00  0.00    -0.134 NA
ATOM      9  C   UNL     1      29.979  14.349   1.154  0.00  0.00    +0.086 A 
ATOM     10  C   UNL     1      31.195  14.643   1.731  0.00  0.00    +0.133 A 
ATOM     11  N   UNL     1      31.576  13.467   2.304  0.00  0.00    -0.251 N 
ATOM     12  N   UNL     1      30.662  12.504   2.104  0.00  0.00    -0.065 NA
BRANCH  11  13
ATOM     13  C   UNL     1      32.763  13.204   3.087  0.00  0.00    +0.145 C 
BRANCH  13  14
ATOM     14  C   UNL     1      33.471  14.498   3.468  0.00  0.00    +0.023 C 
BRANCH  14  15
ATOM     15  C   UNL     1      34.984  14.313   3.569  0.00  0.00    +0.002 C 
BRANCH  15  16
ATOM     16  C   UNL     1      35.353  12.849   3.331  0.00  0.00    +0.000 C 
BRANCH  16  17
ATOM     17  C   UNL     1      36.494  12.708   2.327  0.00  0.00    +0.000 C 
BRANCH  17  18
ATOM     18  C   UNL     1      36.013  12.007   1.055  0.00  0.00    +0.000 C 
BRANCH  18  19
ATOM     19  C   UNL     1      36.208  12.901  -0.166  0.00  0.00    +0.000 C 
BRANCH  19  20
ATOM     20  C   UNL     1      35.019  13.841  -0.372  0.00  0.00    +0.001 C 
BRANCH  20  21
ATOM     21  C   UNL     1      33.730  13.040  -0.549  0.00  0.00    +0.011 C 
BRANCH  21  22
ATOM     22  C   UNL     1      32.767  13.718  -1.520  0.00  0.00    +0.120 C 
BRANCH  22  23
ATOM     23  C   UNL     1      31.505  12.906  -1.703  0.00  0.00    +0.305 C 
ATOM     24  O   UNL     1      30.617  13.147  -2.506  0.00  0.00    -0.251 OA
BRANCH  23  25
ATOM     25  O   UNL     1      31.447  11.847  -0.863  0.00  0.00    -0.481 OA
ATOM     26  H   UNL     1      31.574  12.084   0.075  0.00  0.00    +0.295 HD
ENDBRANCH  23  25
ENDBRANCH  22  23
ENDBRANCH  21  22
ENDBRANCH  20  21
ENDBRANCH  19  20
ENDBRANCH  18  19
ENDBRANCH  17  18
ENDBRANCH  16  17
ENDBRANCH  15  16
ENDBRANCH  14  15
ENDBRANCH  13  14
ENDBRANCH  11  13
ENDBRANCH   7   9
ENDBRANCH   6   7
ENDBRANCH   5   6
ENDBRANCH   1   5
BRANCH   2  27
ATOM     27  C   UNL     1      27.088  17.076  -3.539  0.00  0.00    +0.152 C 
BRANCH  27  28
ATOM     28  C   UNL     1      25.907  16.137  -3.860  0.00  0.00    +0.193 C 
ATOM     29  O   UNL     1      25.903  15.949  -5.292  0.00  0.00    -0.219 OA
BRANCH  28  30
ATOM     30  C   UNL     1      25.955  14.705  -3.283  0.00  0.00    +0.212 C 
ATOM     31  O   UNL     1      26.690  14.685  -2.049  0.00  0.00    -0.218 OA
BRANCH  30  32
ATOM     32  C   UNL     1      24.528  14.086  -3.029  0.00  0.00    +0.171 C 
ATOM     33  O   UNL     1      23.803  14.777  -2.018  0.00  0.00    -0.343 OA
ATOM     34  C   UNL     1      22.629  14.304  -1.427  0.00  0.00    +0.220 C 
ATOM     35  C   UNL     1      22.783  12.856  -0.930  0.00  0.00    +0.076 C 
ATOM     36  C   UNL     1      23.298  12.015  -2.109  0.00  0.00    +0.177 C 
ATOM     37  O   UNL     1      23.421  10.656  -1.714  0.00  0.00    -0.221 OA
ATOM     38  C   UNL     1      24.659  12.582  -2.620  0.00  0.00    +0.155 C 
BRANCH  38  39
ATOM     39  N   UNL     1      25.156  11.781  -3.736  0.00  0.00    -0.202 NA
ATOM     40  C   UNL     1      26.306  11.070  -3.850  0.00  0.00    +0.242 C 
ATOM     41  C   UNL     1      26.436  10.097  -4.993  0.00  0.00    +0.096 C 
ATOM     42  O   UNL     1      27.206  11.234  -3.028  0.00  0.00    -0.273 OA
ENDBRANCH  38  39
BRANCH  34  43
ATOM     43  C   UNL     1      21.316  14.475  -2.368  0.00  0.00    +0.391 C 
ATOM     44  O   UNL     1      20.355  13.755  -1.759  0.00  0.00    -0.243 OA
ATOM     45  O   UNL     1      21.589  15.485  -3.204  0.00  0.00    -0.243 OA
ENDBRANCH  34  43
ENDBRANCH  30  32
ENDBRANCH  28  30
ENDBRANCH  27  28
ENDBRANCH   2  27
TORSDOF 22
