REMARK VINA RESULT:    -7.163      2.048      4.482
REMARK INTER + INTRA:         -15.100
REMARK INTER:                 -12.523
REMARK INTRA:                  -2.578
REMARK UNBOUND:                -2.494
REMARK  Name = lig_assembled_79.pdb
REMARK  15 active torsions:
REMARK  status: ('A' for Active; 'I' for Inactive)
REMARK    1  A    between atoms: _2  and  _9
REMARK    2  A    between atoms: _6  and  _7
REMARK    3  A    between atoms: _6  and  _21
REMARK    4  A    between atoms: _9  and  _10
REMARK    5  A    between atoms: _9  and  _11
REMARK    6  A    between atoms: _9  and  _12
REMARK    7  A    between atoms: _12  and  _13
REMARK    8  A    between atoms: _21  and  _23
REMARK    9  A    between atoms: _22  and  _27
REMARK   10  A    between atoms: _23  and  _26
REMARK   11  A    between atoms: _31  and  _41
REMARK   12  A    between atoms: _33  and  _34
REMARK   13  A    between atoms: _35  and  _37
REMARK   14  A    between atoms: _37  and  _39
REMARK   15  A    between atoms: _39  and  _41
REMARK                            x       y       z     vdW  Elec       q    Type
REMARK                         _______ _______ _______ _____ _____    ______ ____
ROOT
ATOM      1  O   UNL     1      27.783  13.081   0.086  0.00  0.00    -0.450 OA
ENDROOT
BRANCH   1   2
ATOM      2  C   UNL     1      27.833  13.626  -1.086  0.00  0.00    +0.400 C 
ATOM      3  N   UNL     1      28.247  14.937  -1.115  0.00  0.00    -0.278 N 
ATOM      4  H   UNL     1      28.405  15.123  -2.156  0.00  0.00    +0.152 HD
ATOM      5  O   UNL     1      27.577  13.075  -2.153  0.00  0.00    -0.226 OA
BRANCH   3   6
ATOM      6  C   UNL     1      28.545  16.164  -0.382  0.00  0.00    +0.152 C 
BRANCH   6   7
ATOM      7  C   UNL     1      30.040  16.505  -0.207  0.00  0.00    +0.193 C 
ATOM      8  O   UNL     1      30.099  17.808   0.413  0.00  0.00    -0.219 OA
BRANCH   7   9
ATOM      9  C   UNL     1      30.876  15.598   0.722  0.00  0.00    +0.212 C 
ATOM     10  O   UNL     1      30.018  14.741   1.492  0.00  0.00    -0.218 OA
BRANCH   9  11
ATOM     11  C   UNL     1      31.919  14.704  -0.051  0.00  0.00    +0.171 C 
ATOM     12  O   UNL     1      31.384  14.149  -1.248  0.00  0.00    -0.343 OA
ATOM     13  C   UNL     1      31.997  13.138  -1.991  0.00  0.00    +0.220 C 
ATOM     14  C   UNL     1      32.399  11.944  -1.107  0.00  0.00    +0.076 C 
ATOM     15  C   UNL     1      33.240  12.493   0.057  0.00  0.00    +0.177 C 
ATOM     16  O   UNL     1      33.672  11.423   0.886  0.00  0.00    -0.221 OA
ATOM     17  C   UNL     1      32.416  13.541   0.868  0.00  0.00    +0.155 C 
BRANCH  17  18
ATOM     18  N   UNL     1      33.209  14.060   1.980  0.00  0.00    -0.202 NA
ATOM     19  C   UNL     1      33.104  13.814   3.310  0.00  0.00    +0.242 C 
ATOM     20  C   UNL     1      34.233  14.247   4.209  0.00  0.00    +0.096 C 
ATOM     21  O   UNL     1      32.102  13.250   3.746  0.00  0.00    -0.273 OA
ENDBRANCH  17  18
BRANCH  13  22
ATOM     22  C   UNL     1      33.245  13.661  -2.890  0.00  0.00    +0.391 C 
ATOM     23  O   UNL     1      34.345  13.292  -2.206  0.00  0.00    -0.243 OA
ATOM     24  O   UNL     1      32.731  13.981  -4.084  0.00  0.00    -0.243 OA
ENDBRANCH  13  22
ENDBRANCH   9  11
ENDBRANCH   7   9
ENDBRANCH   6   7
ENDBRANCH   3   6
ENDBRANCH   1   2
BRANCH   1  25
ATOM     25  C   UNL     1      26.855  12.431   0.922  0.00  0.00    +0.240 C 
BRANCH  25  26
ATOM     26  C   UNL     1      26.317  11.063   0.460  0.00  0.00    +0.100 C 
BRANCH  26  28
ATOM     27  N   UNL     1      23.885  11.470   0.462  0.00  0.00    -0.134 NA
ATOM     28  C   UNL     1      25.031  11.234  -0.239  0.00  0.00    +0.086 A 
ATOM     29  C   UNL     1      24.738  11.189  -1.583  0.00  0.00    +0.134 A 
ATOM     30  N   UNL     1      23.408  11.496  -1.656  0.00  0.00    -0.238 N 
ATOM     31  N   UNL     1      22.890  11.582  -0.405  0.00  0.00    -0.065 NA
BRANCH  30  32
ATOM     32  C   UNL     1      22.477  11.538  -2.821  0.00  0.00    +0.122 C 
ATOM     33  C   UNL     1      21.106  11.038  -2.306  0.00  0.00    +0.044 C 
ATOM     34  C   UNL     1      23.133  10.639  -3.887  0.00  0.00    +0.044 C 
BRANCH  32  35
ATOM     35  C   UNL     1      22.265  12.957  -3.388  0.00  0.00    +0.192 C 
ATOM     36  O   UNL     1      21.293  13.200  -4.109  0.00  0.00    -0.289 OA
BRANCH  35  37
ATOM     37  C   UNL     1      23.211  14.078  -3.121  0.00  0.00    +0.045 A 
ATOM     38  C   UNL     1      23.052  14.862  -1.983  0.00  0.00    +0.095 A 
ATOM     39  N   UNL     1      24.004  15.835  -1.958  0.00  0.00    -0.360 N 
ATOM     40  H   UNL     1      24.100  16.542  -1.241  0.00  0.00    +0.165 HD
ATOM     41  C   UNL     1      24.813  15.728  -3.059  0.00  0.00    +0.047 A 
ATOM     42  C   UNL     1      25.904  16.528  -3.430  0.00  0.00    +0.026 A 
ATOM     43  C   UNL     1      26.575  16.222  -4.613  0.00  0.00    +0.002 A 
ATOM     44  C   UNL     1      26.170  15.151  -5.393  0.00  0.00    +0.001 A 
ATOM     45  C   UNL     1      25.080  14.363  -5.006  0.00  0.00    +0.011 A 
ATOM     46  C   UNL     1      24.360  14.636  -3.814  0.00  0.00    +0.010 A 
ENDBRANCH  35  37
ENDBRANCH  32  35
ENDBRANCH  30  32
ENDBRANCH  26  28
ENDBRANCH  25  26
ENDBRANCH   1  25
TORSDOF 13
