REMARK VINA RESULT:    -7.135      2.035      3.317
REMARK INTER + INTRA:         -13.547
REMARK INTER:                 -12.030
REMARK INTRA:                  -1.517
REMARK UNBOUND:                -1.407
REMARK  Name = lig_assembled_82.pdb
REMARK  14 active torsions:
REMARK  status: ('A' for Active; 'I' for Inactive)
REMARK    1  A    between atoms: _2  and  _8
REMARK    2  A    between atoms: _4  and  _15
REMARK    3  A    between atoms: _5  and  _6
REMARK    4  A    between atoms: _5  and  _17
REMARK    5  A    between atoms: _8  and  _9
REMARK    6  A    between atoms: _15  and  _16
REMARK    7  A    between atoms: _17  and  _19
REMARK    8  A    between atoms: _18  and  _23
REMARK    9  A    between atoms: _19  and  _22
REMARK   10  A    between atoms: _27  and  _37
REMARK   11  A    between atoms: _29  and  _30
REMARK   12  A    between atoms: _31  and  _33
REMARK   13  A    between atoms: _33  and  _35
REMARK   14  A    between atoms: _35  and  _37
REMARK                            x       y       z     vdW  Elec       q    Type
REMARK                         _______ _______ _______ _____ _____    ______ ____
ROOT
ATOM      1  C   UNL     1      29.101  17.212  -0.516  0.00  0.00    +0.400 C 
ATOM      2  N   UNL     1      29.594  16.030  -0.016  0.00  0.00    -0.278 N 
ATOM      3  H   UNL     1      30.270  16.349   0.748  0.00  0.00    +0.152 HD
ATOM      4  O   UNL     1      29.365  18.251   0.084  0.00  0.00    -0.226 OA
ENDROOT
BRANCH   2   5
ATOM      5  C   UNL     1      29.598  14.570  -0.049  0.00  0.00    +0.152 C 
BRANCH   5   6
ATOM      6  C   UNL     1      30.976  13.891   0.092  0.00  0.00    +0.193 C 
ATOM      7  O   UNL     1      31.843  14.503  -0.887  0.00  0.00    -0.219 OA
BRANCH   6   8
ATOM      8  C   UNL     1      31.724  14.064   1.432  0.00  0.00    +0.212 C 
ATOM      9  O   UNL     1      31.304  15.271   2.090  0.00  0.00    -0.218 OA
BRANCH   8  10
ATOM     10  C   UNL     1      31.521  12.854   2.422  0.00  0.00    +0.171 C 
ATOM     11  O   UNL     1      30.201  12.796   2.953  0.00  0.00    -0.343 OA
ATOM     12  C   UNL     1      29.817  11.986   4.024  0.00  0.00    +0.220 C 
ATOM     13  C   UNL     1      30.757  12.152   5.230  0.00  0.00    +0.076 C 
ATOM     14  C   UNL     1      32.194  11.928   4.732  0.00  0.00    +0.177 C 
ATOM     15  O   UNL     1      33.103  12.031   5.819  0.00  0.00    -0.221 OA
ATOM     16  C   UNL     1      32.539  12.952   3.606  0.00  0.00    +0.155 C 
BRANCH  16  17
ATOM     17  N   UNL     1      33.906  12.746   3.134  0.00  0.00    -0.202 NA
ATOM     18  C   UNL     1      34.988  13.560   3.228  0.00  0.00    +0.242 C 
ATOM     19  C   UNL     1      36.345  12.984   2.922  0.00  0.00    +0.096 C 
ATOM     20  O   UNL     1      34.837  14.735   3.559  0.00  0.00    -0.273 OA
ENDBRANCH  16  17
BRANCH  12  21
ATOM     21  C   UNL     1      29.635  10.423   3.620  0.00  0.00    +0.391 C 
ATOM     22  O   UNL     1      29.737   9.749   4.782  0.00  0.00    -0.243 OA
ATOM     23  O   UNL     1      29.161  10.417   2.368  0.00  0.00    -0.243 OA
ENDBRANCH  12  21
ENDBRANCH   8  10
ENDBRANCH   6   8
ENDBRANCH   5   6
ENDBRANCH   2   5
BRANCH   1  24
ATOM     24  O   UNL     1      28.418  17.115  -1.610  0.00  0.00    -0.450 OA
BRANCH  24  25
ATOM     25  C   UNL     1      27.155  17.480  -2.116  0.00  0.00    +0.240 C 
BRANCH  25  26
ATOM     26  C   UNL     1      26.745  16.902  -3.484  0.00  0.00    +0.100 C 
BRANCH  26  28
ATOM     27  N   UNL     1      26.341  14.770  -2.297  0.00  0.00    -0.134 NA
ATOM     28  C   UNL     1      26.033  15.631  -3.323  0.00  0.00    +0.086 A 
ATOM     29  C   UNL     1      25.021  15.068  -4.079  0.00  0.00    +0.134 A 
ATOM     30  N   UNL     1      24.856  13.822  -3.540  0.00  0.00    -0.247 N 
ATOM     31  N   UNL     1      25.587  13.687  -2.418  0.00  0.00    -0.065 NA
BRANCH  30  32
ATOM     32  C   UNL     1      24.101  12.688  -4.079  0.00  0.00    +0.176 C 
BRANCH  32  33
ATOM     33  C   UNL     1      22.642  12.728  -3.696  0.00  0.00    -0.049 C 
ATOM     34  C   UNL     1      22.219  11.966  -2.481  0.00  0.00    +0.023 C 
ATOM     35  C   UNL     1      21.072  12.583  -1.560  0.00  0.00    -0.025 C 
ATOM     36  C   UNL     1      20.719  14.038  -1.226  0.00  0.00    +0.012 C 
ATOM     37  C   UNL     1      20.141  12.073  -2.756  0.00  0.00    -0.000 C 
ATOM     38  C   UNL     1      20.189  12.958  -4.041  0.00  0.00    +0.031 C 
ATOM     39  C   UNL     1      21.266  11.869  -0.198  0.00  0.00    +0.012 C 
ATOM     40  C   UNL     1      21.136  10.890  -2.892  0.00  0.00    +0.012 C 
ATOM     41  C   UNL     1      21.632  13.234  -4.431  0.00  0.00    -0.025 C 
ENDBRANCH  32  33
ENDBRANCH  30  32
ENDBRANCH  26  28
ENDBRANCH  25  26
ENDBRANCH  24  25
ENDBRANCH   1  24
TORSDOF 12
