REMARK VINA RESULT:    -6.225      1.843      3.914
REMARK INTER + INTRA:         -15.186
REMARK INTER:                 -12.633
REMARK INTRA:                  -2.552
REMARK UNBOUND:                -2.957
REMARK  Name = lig_assembled_74.pdb
REMARK  19 active torsions:
REMARK  status: ('A' for Active; 'I' for Inactive)
REMARK    1  A    between atoms: _2  and  _8
REMARK    2  A    between atoms: _4  and  _13
REMARK    3  A    between atoms: _5  and  _6
REMARK    4  A    between atoms: _5  and  _17
REMARK    5  A    between atoms: _8  and  _9
REMARK    6  A    between atoms: _9  and  _10
REMARK    7  A    between atoms: _9  and  _12
REMARK    8  A    between atoms: _10  and  _11
REMARK    9  A    between atoms: _11  and  _15
REMARK   10  A    between atoms: _12  and  _13
REMARK   11  A    between atoms: _13  and  _14
REMARK   12  A    between atoms: _17  and  _19
REMARK   13  A    between atoms: _18  and  _23
REMARK   14  A    between atoms: _19  and  _22
REMARK   15  A    between atoms: _27  and  _37
REMARK   16  A    between atoms: _29  and  _30
REMARK   17  A    between atoms: _31  and  _33
REMARK   18  A    between atoms: _33  and  _35
REMARK   19  A    between atoms: _35  and  _37
REMARK                            x       y       z     vdW  Elec       q    Type
REMARK                         _______ _______ _______ _____ _____    ______ ____
ROOT
ATOM      1  C   UNL     1      28.181  16.717  -0.745  0.00  0.00    +0.400 C 
ATOM      2  N   UNL     1      28.340  15.455  -0.223  0.00  0.00    -0.278 N 
ATOM      3  H   UNL     1      28.781  15.637   0.733  0.00  0.00    +0.152 HD
ATOM      4  O   UNL     1      28.377  17.679  -0.006  0.00  0.00    -0.226 OA
ENDROOT
BRANCH   1   5
ATOM      5  O   UNL     1      27.865  16.769  -1.998  0.00  0.00    -0.450 OA
BRANCH   5   6
ATOM      6  C   UNL     1      26.865  17.317  -2.825  0.00  0.00    +0.240 C 
BRANCH   6   7
ATOM      7  C   UNL     1      26.465  16.519  -4.081  0.00  0.00    +0.100 C 
BRANCH   7   9
ATOM      8  N   UNL     1      25.488  14.254  -4.370  0.00  0.00    -0.134 NA
ATOM      9  C   UNL     1      25.482  15.472  -3.743  0.00  0.00    +0.086 A 
ATOM     10  C   UNL     1      24.511  15.467  -2.764  0.00  0.00    +0.133 A 
ATOM     11  N   UNL     1      24.097  14.166  -2.730  0.00  0.00    -0.251 N 
ATOM     12  N   UNL     1      24.615  13.467  -3.758  0.00  0.00    -0.065 NA
BRANCH  11  13
ATOM     13  C   UNL     1      23.501  13.471  -1.605  0.00  0.00    +0.149 C 
BRANCH  13  14
ATOM     14  C   UNL     1      22.581  12.285  -1.966  0.00  0.00    +0.021 C 
BRANCH  14  15
ATOM     15  C   UNL     1      21.143  12.713  -2.329  0.00  0.00    +0.125 C 
BRANCH  15  16
ATOM     16  C   UNL     1      20.727  14.063  -1.786  0.00  0.00    +0.305 C 
ATOM     17  O   UNL     1      20.761  15.109  -2.413  0.00  0.00    -0.251 OA
BRANCH  16  18
ATOM     18  O   UNL     1      20.238  13.999  -0.534  0.00  0.00    -0.481 OA
ATOM     19  H   UNL     1      19.669  14.743  -0.267  0.00  0.00    +0.295 HD
ENDBRANCH  16  18
ENDBRANCH  15  16
ENDBRANCH  14  15
BRANCH  14  20
ATOM     20  C   UNL     1      22.632  11.233  -0.820  0.00  0.00    +0.009 C 
BRANCH  20  21
ATOM     21  C   UNL     1      22.881  11.792   0.598  0.00  0.00    -0.017 C 
ATOM     22  C   UNL     1      21.696  11.543   1.534  0.00  0.00    +0.007 C 
ATOM     23  C   UNL     1      24.140  11.165   1.209  0.00  0.00    +0.007 C 
ENDBRANCH  20  21
ENDBRANCH  14  20
ENDBRANCH  13  14
ENDBRANCH  11  13
ENDBRANCH   7   9
ENDBRANCH   6   7
ENDBRANCH   5   6
ENDBRANCH   1   5
BRANCH   2  24
ATOM     24  C   UNL     1      28.168  14.013  -0.380  0.00  0.00    +0.152 C 
BRANCH  24  25
ATOM     25  C   UNL     1      28.050  13.198   0.924  0.00  0.00    +0.193 C 
ATOM     26  O   UNL     1      28.730  11.944   0.693  0.00  0.00    -0.219 OA
BRANCH  25  27
ATOM     27  C   UNL     1      28.723  13.772   2.190  0.00  0.00    +0.212 C 
ATOM     28  O   UNL     1      27.751  13.963   3.232  0.00  0.00    -0.218 OA
BRANCH  27  29
ATOM     29  C   UNL     1      29.885  12.865   2.747  0.00  0.00    +0.171 C 
ATOM     30  O   UNL     1      29.682  12.484   4.103  0.00  0.00    -0.343 OA
ATOM     31  C   UNL     1      30.657  11.894   4.911  0.00  0.00    +0.220 C 
ATOM     32  C   UNL     1      31.977  12.683   4.881  0.00  0.00    +0.076 C 
ATOM     33  C   UNL     1      32.377  12.859   3.407  0.00  0.00    +0.177 C 
ATOM     34  O   UNL     1      33.616  13.549   3.323  0.00  0.00    -0.221 OA
ATOM     35  C   UNL     1      31.254  13.613   2.631  0.00  0.00    +0.155 C 
BRANCH  35  36
ATOM     36  N   UNL     1      31.633  13.788   1.231  0.00  0.00    -0.202 NA
ATOM     37  C   UNL     1      31.690  14.919   0.482  0.00  0.00    +0.242 C 
ATOM     38  C   UNL     1      32.396  14.861  -0.847  0.00  0.00    +0.096 C 
ATOM     39  O   UNL     1      31.173  15.952   0.902  0.00  0.00    -0.273 OA
ENDBRANCH  35  36
BRANCH  31  40
ATOM     40  C   UNL     1      30.895  10.319   4.592  0.00  0.00    +0.391 C 
ATOM     41  O   UNL     1      32.064  10.016   5.189  0.00  0.00    -0.243 OA
ATOM     42  O   UNL     1      29.727   9.854   4.130  0.00  0.00    -0.243 OA
ENDBRANCH  31  40
ENDBRANCH  27  29
ENDBRANCH  25  27
ENDBRANCH  24  25
ENDBRANCH   2  24
TORSDOF 17
