REMARK VINA RESULT:    -6.870      1.938      3.197
REMARK INTER + INTRA:         -13.456
REMARK INTER:                 -12.030
REMARK INTRA:                  -1.427
REMARK UNBOUND:                -2.168
REMARK  Name = lig_assembled_86.pdb
REMARK  12 active torsions:
REMARK  status: ('A' for Active; 'I' for Inactive)
REMARK    1  A    between atoms: _2  and  _9
REMARK    2  A    between atoms: _3  and  _12
REMARK    3  A    between atoms: _6  and  _7
REMARK    4  A    between atoms: _6  and  _16
REMARK    5  A    between atoms: _16  and  _18
REMARK    6  A    between atoms: _17  and  _22
REMARK    7  A    between atoms: _18  and  _21
REMARK    8  A    between atoms: _26  and  _36
REMARK    9  A    between atoms: _28  and  _29
REMARK   10  A    between atoms: _30  and  _32
REMARK   11  A    between atoms: _32  and  _34
REMARK   12  A    between atoms: _34  and  _36
REMARK                            x       y       z     vdW  Elec       q    Type
REMARK                         _______ _______ _______ _____ _____    ______ ____
ROOT
ATOM      1  C   UNL     1      28.126  17.179  -0.688  0.00  0.00    +0.400 C 
ATOM      2  N   UNL     1      28.861  16.229  -0.020  0.00  0.00    -0.278 N 
ATOM      3  H   UNL     1      29.156  16.730   0.877  0.00  0.00    +0.152 HD
ATOM      4  O   UNL     1      27.836  18.213  -0.092  0.00  0.00    -0.226 OA
ENDROOT
BRANCH   1   5
ATOM      5  O   UNL     1      27.831  16.898  -1.915  0.00  0.00    -0.450 OA
BRANCH   5   6
ATOM      6  C   UNL     1      27.028  17.393  -2.961  0.00  0.00    +0.240 C 
BRANCH   6   7
ATOM      7  C   UNL     1      26.479  16.374  -3.978  0.00  0.00    +0.100 C 
BRANCH   7   9
ATOM      8  N   UNL     1      26.413  14.017  -3.211  0.00  0.00    -0.134 NA
ATOM      9  C   UNL     1      25.826  15.254  -3.275  0.00  0.00    +0.086 A 
ATOM     10  C   UNL     1      24.630  15.217  -2.598  0.00  0.00    +0.134 A 
ATOM     11  N   UNL     1      24.564  13.946  -2.114  0.00  0.00    -0.248 N 
ATOM     12  N   UNL     1      25.621  13.217  -2.509  0.00  0.00    -0.065 NA
BRANCH  11  13
ATOM     13  C   UNL     1      23.525  13.378  -1.267  0.00  0.00    +0.112 C 
ATOM     14  C   UNL     1      22.128  13.923  -1.625  0.00  0.00    +0.045 C 
ATOM     15  C   UNL     1      21.034  12.857  -1.733  0.00  0.00    +0.059 C 
ATOM     16  C   UNL     1      21.150  12.078  -3.048  0.00  0.00    +0.020 C 
ATOM     17  C   UNL     1      21.986  10.851  -2.696  0.00  0.00    +0.020 C 
ATOM     18  C   UNL     1      22.362  11.052  -1.226  0.00  0.00    +0.059 C 
ATOM     19  N   UNL     1      21.190  11.785  -0.750  0.00  0.00    -0.299 NA
ATOM     20  C   UNL     1      21.196  12.176   0.647  0.00  0.00    +0.105 C 
ATOM     21  C   UNL     1      23.667  11.848  -1.088  0.00  0.00    +0.045 C 
ENDBRANCH  11  13
ENDBRANCH   7   9
ENDBRANCH   6   7
ENDBRANCH   5   6
ENDBRANCH   1   5
BRANCH   2  22
ATOM     22  C   UNL     1      29.395  14.870   0.021  0.00  0.00    +0.152 C 
BRANCH  22  23
ATOM     23  C   UNL     1      30.932  14.743   0.005  0.00  0.00    +0.193 C 
ATOM     24  O   UNL     1      31.442  15.949  -0.606  0.00  0.00    -0.219 OA
BRANCH  23  25
ATOM     25  C   UNL     1      31.657  14.665   1.367  0.00  0.00    +0.212 C 
ATOM     26  O   UNL     1      31.289  15.780   2.196  0.00  0.00    -0.218 OA
BRANCH  25  27
ATOM     27  C   UNL     1      31.364  13.332   2.156  0.00  0.00    +0.171 C 
ATOM     28  O   UNL     1      30.006  13.230   2.572  0.00  0.00    -0.343 OA
ATOM     29  C   UNL     1      29.530  12.285   3.484  0.00  0.00    +0.220 C 
ATOM     30  C   UNL     1      30.376  12.257   4.769  0.00  0.00    +0.076 C 
ATOM     31  C   UNL     1      31.845  12.073   4.353  0.00  0.00    +0.177 C 
ATOM     32  O   UNL     1      32.667  12.000   5.509  0.00  0.00    -0.221 OA
ATOM     33  C   UNL     1      32.287  13.238   3.414  0.00  0.00    +0.155 C 
BRANCH  33  34
ATOM     34  N   UNL     1      33.684  13.071   3.022  0.00  0.00    -0.202 NA
ATOM     35  C   UNL     1      34.772  13.815   3.347  0.00  0.00    +0.242 C 
ATOM     36  C   UNL     1      36.138  13.253   3.049  0.00  0.00    +0.096 C 
ATOM     37  O   UNL     1      34.620  14.916   3.873  0.00  0.00    -0.273 OA
ENDBRANCH  33  34
BRANCH  29  38
ATOM     38  C   UNL     1      29.362  10.799   2.848  0.00  0.00    +0.391 C 
ATOM     39  O   UNL     1      29.312   9.971   3.909  0.00  0.00    -0.243 OA
ATOM     40  O   UNL     1      29.037  10.982   1.563  0.00  0.00    -0.243 OA
ENDBRANCH  29  38
ENDBRANCH  25  27
ENDBRANCH  23  25
ENDBRANCH  22  23
ENDBRANCH   2  22
TORSDOF 11
