REMARK VINA RESULT:    -6.607      3.610     10.446
REMARK INTER + INTRA:         -12.401
REMARK INTER:                 -10.928
REMARK INTRA:                  -1.473
REMARK UNBOUND:                -1.545
REMARK  Name = lig_assembled_48.pdb
REMARK  11 active torsions:
REMARK  status: ('A' for Active; 'I' for Inactive)
REMARK    1  A    between atoms: _2  and  _8
REMARK    2  A    between atoms: _5  and  _6
REMARK    3  A    between atoms: _5  and  _13
REMARK    4  A    between atoms: _13  and  _15
REMARK    5  A    between atoms: _14  and  _19
REMARK    6  A    between atoms: _15  and  _18
REMARK    7  A    between atoms: _23  and  _33
REMARK    8  A    between atoms: _25  and  _26
REMARK    9  A    between atoms: _27  and  _29
REMARK   10  A    between atoms: _29  and  _31
REMARK   11  A    between atoms: _31  and  _33
REMARK                            x       y       z     vdW  Elec       q    Type
REMARK                         _______ _______ _______ _____ _____    ______ ____
ROOT
ATOM      1  C   UNL     1      26.675  16.574  -4.228  0.00  0.00    +0.152 C 
ENDROOT
BRANCH   1   3
ATOM      2  C   UNL     1      27.598  17.766  -1.953  0.00  0.00    +0.400 C 
ATOM      3  N   UNL     1      26.882  17.463  -3.087  0.00  0.00    -0.278 N 
ATOM      4  H   UNL     1      26.166  18.254  -3.146  0.00  0.00    +0.152 HD
ATOM      5  O   UNL     1      27.410  18.858  -1.423  0.00  0.00    -0.226 OA
BRANCH   2   6
ATOM      6  O   UNL     1      28.394  16.839  -1.529  0.00  0.00    -0.450 OA
BRANCH   6   7
ATOM      7  C   UNL     1      28.868  16.313  -0.312  0.00  0.00    +0.240 C 
BRANCH   7   8
ATOM      8  C   UNL     1      30.306  16.673   0.106  0.00  0.00    +0.100 C 
BRANCH   8  10
ATOM      9  N   UNL     1      31.770  14.780  -0.507  0.00  0.00    -0.134 NA
ATOM     10  C   UNL     1      31.056  15.451   0.446  0.00  0.00    +0.086 A 
ATOM     11  C   UNL     1      31.205  14.808   1.656  0.00  0.00    +0.134 A 
ATOM     12  N   UNL     1      32.096  13.810   1.397  0.00  0.00    -0.248 N 
ATOM     13  N   UNL     1      32.372  13.754   0.077  0.00  0.00    -0.065 NA
BRANCH  12  14
ATOM     14  C   UNL     1      32.788  12.895   2.298  0.00  0.00    +0.109 C 
ATOM     15  C   UNL     1      34.170  12.508   1.739  0.00  0.00    +0.027 C 
ATOM     16  C   UNL     1      35.156  13.670   1.830  0.00  0.00    +0.002 C 
ATOM     17  C   UNL     1      35.339  14.115   3.276  0.00  0.00    +0.000 C 
ATOM     18  C   UNL     1      34.014  14.451   3.956  0.00  0.00    +0.002 C 
ATOM     19  C   UNL     1      32.939  13.376   3.755  0.00  0.00    +0.027 C 
ENDBRANCH  12  14
ENDBRANCH   8  10
ENDBRANCH   7   8
ENDBRANCH   6   7
ENDBRANCH   2   6
ENDBRANCH   1   3
BRANCH   1  20
ATOM     20  C   UNL     1      25.332  15.816  -4.263  0.00  0.00    +0.193 C 
ATOM     21  O   UNL     1      25.290  15.105  -5.520  0.00  0.00    -0.219 OA
BRANCH  20  22
ATOM     22  C   UNL     1      25.099  14.724  -3.195  0.00  0.00    +0.212 C 
ATOM     23  O   UNL     1      25.425  15.224  -1.888  0.00  0.00    -0.218 OA
BRANCH  22  24
ATOM     24  C   UNL     1      23.620  14.179  -3.172  0.00  0.00    +0.171 C 
ATOM     25  O   UNL     1      22.651  15.222  -3.204  0.00  0.00    -0.343 OA
ATOM     26  C   UNL     1      21.290  15.041  -2.951  0.00  0.00    +0.220 C 
ATOM     27  C   UNL     1      21.050  14.274  -1.639  0.00  0.00    +0.076 C 
ATOM     28  C   UNL     1      21.875  12.977  -1.704  0.00  0.00    +0.177 C 
ATOM     29  O   UNL     1      21.658  12.209  -0.529  0.00  0.00    -0.221 OA
ATOM     30  C   UNL     1      23.387  13.311  -1.892  0.00  0.00    +0.155 C 
BRANCH  30  31
ATOM     31  N   UNL     1      24.175  12.082  -1.948  0.00  0.00    -0.202 NA
ATOM     32  C   UNL     1      25.088  11.596  -1.069  0.00  0.00    +0.242 C 
ATOM     33  C   UNL     1      25.535  10.166  -1.221  0.00  0.00    +0.096 C 
ATOM     34  O   UNL     1      25.522  12.324  -0.179  0.00  0.00    -0.273 OA
ENDBRANCH  30  31
BRANCH  26  35
ATOM     35  C   UNL     1      20.485  14.368  -4.191  0.00  0.00    +0.391 C 
ATOM     36  O   UNL     1      19.281  14.037  -3.686  0.00  0.00    -0.243 OA
ATOM     37  O   UNL     1      21.187  14.665  -5.292  0.00  0.00    -0.243 OA
ENDBRANCH  26  35
ENDBRANCH  22  24
ENDBRANCH  20  22
ENDBRANCH   1  20
TORSDOF 11
