REMARK VINA RESULT:    -7.090      2.110      3.773
REMARK INTER + INTRA:         -14.054
REMARK INTER:                 -11.622
REMARK INTRA:                  -2.432
REMARK UNBOUND:                -1.577
REMARK  Name = lig_assembled_66.pdb
REMARK  13 active torsions:
REMARK  status: ('A' for Active; 'I' for Inactive)
REMARK    1  A    between atoms: _2  and  _9
REMARK    2  A    between atoms: _6  and  _7
REMARK    3  A    between atoms: _6  and  _16
REMARK    4  A    between atoms: _9  and  _10
REMARK    5  A    between atoms: _14  and  _15
REMARK    6  A    between atoms: _16  and  _18
REMARK    7  A    between atoms: _17  and  _22
REMARK    8  A    between atoms: _18  and  _21
REMARK    9  A    between atoms: _26  and  _36
REMARK   10  A    between atoms: _28  and  _29
REMARK   11  A    between atoms: _30  and  _32
REMARK   12  A    between atoms: _32  and  _34
REMARK   13  A    between atoms: _34  and  _36
REMARK                            x       y       z     vdW  Elec       q    Type
REMARK                         _______ _______ _______ _____ _____    ______ ____
ROOT
ATOM      1  C   UNL     1      28.662  14.331  -0.764  0.00  0.00    +0.400 C 
ATOM      2  N   UNL     1      29.846  13.631  -0.740  0.00  0.00    -0.278 N 
ATOM      3  H   UNL     1      29.578  12.708  -0.274  0.00  0.00    +0.152 HD
ATOM      4  O   UNL     1      27.632  13.737  -0.456  0.00  0.00    -0.226 OA
ENDROOT
BRANCH   1   5
ATOM      5  O   UNL     1      28.757  15.580  -1.084  0.00  0.00    -0.450 OA
BRANCH   5   6
ATOM      6  C   UNL     1      28.277  16.832  -0.654  0.00  0.00    +0.240 C 
BRANCH   6   7
ATOM      7  C   UNL     1      27.642  17.752  -1.714  0.00  0.00    +0.100 C 
BRANCH   7   9
ATOM      8  N   UNL     1      27.113  16.981  -4.008  0.00  0.00    -0.134 NA
ATOM      9  C   UNL     1      26.840  16.961  -2.666  0.00  0.00    +0.086 A 
ATOM     10  C   UNL     1      25.793  16.095  -2.433  0.00  0.00    +0.134 A 
ATOM     11  N   UNL     1      25.513  15.577  -3.666  0.00  0.00    -0.247 N 
ATOM     12  N   UNL     1      26.295  16.127  -4.612  0.00  0.00    -0.065 NA
BRANCH  11  13
ATOM     13  C   UNL     1      24.715  14.403  -3.967  0.00  0.00    +0.180 C 
BRANCH  13  14
ATOM     14  C   UNL     1      23.549  14.217  -3.031  0.00  0.00    -0.025 A 
ATOM     15  C   UNL     1      22.361  14.938  -3.227  0.00  0.00    +0.005 A 
ATOM     16  C   UNL     1      21.247  14.711  -2.416  0.00  0.00    +0.002 A 
ATOM     17  C   UNL     1      21.312  13.774  -1.385  0.00  0.00    +0.019 A 
ATOM     18  C   UNL     1      22.499  13.073  -1.152  0.00  0.00    +0.052 A 
ATOM     19  C   UNL     1      23.612  13.293  -1.974  0.00  0.00    +0.024 A 
BRANCH  18  20
ATOM     20  C   UNL     1      22.574  12.122  -0.082  0.00  0.00    +0.099 C 
ATOM     21  N   UNL     1      22.637  11.345   0.778  0.00  0.00    -0.191 NA
ENDBRANCH  18  20
ENDBRANCH  13  14
ENDBRANCH  11  13
ENDBRANCH   7   9
ENDBRANCH   6   7
ENDBRANCH   5   6
ENDBRANCH   1   5
BRANCH   2  22
ATOM     22  C   UNL     1      31.267  13.579  -1.072  0.00  0.00    +0.152 C 
BRANCH  22  23
ATOM     23  C   UNL     1      32.185  14.535  -0.283  0.00  0.00    +0.193 C 
ATOM     24  O   UNL     1      31.972  15.857  -0.825  0.00  0.00    -0.219 OA
BRANCH  23  25
ATOM     25  C   UNL     1      31.921  14.691   1.231  0.00  0.00    +0.212 C 
ATOM     26  O   UNL     1      30.919  15.694   1.464  0.00  0.00    -0.218 OA
BRANCH  25  27
ATOM     27  C   UNL     1      31.466  13.353   1.927  0.00  0.00    +0.171 C 
ATOM     28  O   UNL     1      30.068  13.321   2.193  0.00  0.00    -0.343 OA
ATOM     29  C   UNL     1      29.441  12.377   3.010  0.00  0.00    +0.220 C 
ATOM     30  C   UNL     1      30.140  12.250   4.375  0.00  0.00    +0.076 C 
ATOM     31  C   UNL     1      31.632  11.989   4.109  0.00  0.00    +0.177 C 
ATOM     32  O   UNL     1      32.319  11.824   5.341  0.00  0.00    -0.221 OA
ATOM     33  C   UNL     1      32.241  13.156   3.271  0.00  0.00    +0.155 C 
BRANCH  33  34
ATOM     34  N   UNL     1      33.660  12.914   3.022  0.00  0.00    -0.202 NA
ATOM     35  C   UNL     1      34.746  13.612   3.442  0.00  0.00    +0.242 C 
ATOM     36  C   UNL     1      36.105  12.981   3.290  0.00  0.00    +0.096 C 
ATOM     37  O   UNL     1      34.597  14.730   3.933  0.00  0.00    -0.273 OA
ENDBRANCH  33  34
BRANCH  29  38
ATOM     38  C   UNL     1      29.255  10.928   2.298  0.00  0.00    +0.391 C 
ATOM     39  O   UNL     1      28.860  10.103   3.287  0.00  0.00    -0.243 OA
ATOM     40  O   UNL     1      29.266  11.160   0.980  0.00  0.00    -0.243 OA
ENDBRANCH  29  38
ENDBRANCH  25  27
ENDBRANCH  23  25
ENDBRANCH  22  23
ENDBRANCH   2  22
TORSDOF 13
