REMARK VINA RESULT:    -6.628      3.776      7.874
REMARK INTER + INTRA:         -13.129
REMARK INTER:                 -10.333
REMARK INTRA:                  -2.797
REMARK UNBOUND:                -1.658
REMARK  Name = lig_assembled_60.pdb
REMARK  13 active torsions:
REMARK  status: ('A' for Active; 'I' for Inactive)
REMARK    1  A    between atoms: _2  and  _9
REMARK    2  A    between atoms: _3  and  _44
REMARK    3  A    between atoms: _6  and  _7
REMARK    4  A    between atoms: _6  and  _16
REMARK    5  A    between atoms: _12  and  _44
REMARK    6  A    between atoms: _16  and  _18
REMARK    7  A    between atoms: _17  and  _22
REMARK    8  A    between atoms: _18  and  _21
REMARK    9  A    between atoms: _26  and  _36
REMARK   10  A    between atoms: _28  and  _29
REMARK   11  A    between atoms: _30  and  _32
REMARK   12  A    between atoms: _32  and  _34
REMARK   13  A    between atoms: _34  and  _36
REMARK                            x       y       z     vdW  Elec       q    Type
REMARK                         _______ _______ _______ _____ _____    ______ ____
ROOT
ATOM      1  C   UNL     1      28.479  17.175  -0.493  0.00  0.00    +0.400 C 
ATOM      2  N   UNL     1      27.861  16.047  -0.978  0.00  0.00    -0.278 N 
ATOM      3  H   UNL     1      26.835  16.195  -0.717  0.00  0.00    +0.152 HD
ATOM      4  O   UNL     1      27.771  18.093  -0.086  0.00  0.00    -0.226 OA
ENDROOT
BRANCH   2   5
ATOM      5  C   UNL     1      27.973  14.773  -1.684  0.00  0.00    +0.152 C 
BRANCH   5   6
ATOM      6  C   UNL     1      26.832  13.762  -1.448  0.00  0.00    +0.193 C 
ATOM      7  O   UNL     1      26.030  13.753  -2.649  0.00  0.00    -0.219 OA
BRANCH   6   8
ATOM      8  C   UNL     1      27.221  12.283  -1.233  0.00  0.00    +0.212 C 
ATOM      9  O   UNL     1      26.861  11.497  -2.380  0.00  0.00    -0.218 OA
BRANCH   8  10
ATOM     10  C   UNL     1      28.756  12.077  -0.942  0.00  0.00    +0.171 C 
ATOM     11  O   UNL     1      29.400  11.286  -1.936  0.00  0.00    -0.343 OA
ATOM     12  C   UNL     1      30.683  10.749  -1.806  0.00  0.00    +0.220 C 
ATOM     13  C   UNL     1      30.852   9.990  -0.478  0.00  0.00    +0.076 C 
ATOM     14  C   UNL     1      30.431  10.941   0.655  0.00  0.00    +0.177 C 
ATOM     15  O   UNL     1      30.607  10.302   1.911  0.00  0.00    -0.221 OA
ATOM     16  C   UNL     1      28.953  11.397   0.452  0.00  0.00    +0.155 C 
BRANCH  16  17
ATOM     17  N   UNL     1      28.546  12.295   1.530  0.00  0.00    -0.202 NA
ATOM     18  C   UNL     1      27.638  12.106   2.521  0.00  0.00    +0.242 C 
ATOM     19  C   UNL     1      27.625  13.076   3.674  0.00  0.00    +0.096 C 
ATOM     20  O   UNL     1      26.857  11.159   2.457  0.00  0.00    -0.273 OA
ENDBRANCH  16  17
BRANCH  12  21
ATOM     21  C   UNL     1      31.866  11.840  -2.026  0.00  0.00    +0.391 C 
ATOM     22  O   UNL     1      32.983  11.237  -1.574  0.00  0.00    -0.243 OA
ATOM     23  O   UNL     1      31.357  12.781  -2.830  0.00  0.00    -0.243 OA
ENDBRANCH  12  21
ENDBRANCH   8  10
ENDBRANCH   6   8
ENDBRANCH   5   6
ENDBRANCH   2   5
BRANCH   1  24
ATOM     24  O   UNL     1      29.771  17.146  -0.485  0.00  0.00    -0.450 OA
BRANCH  24  25
ATOM     25  C   UNL     1      30.822  16.553   0.242  0.00  0.00    +0.240 C 
BRANCH  25  26
ATOM     26  C   UNL     1      31.379  15.214  -0.279  0.00  0.00    +0.100 C 
BRANCH  26  28
ATOM     27  N   UNL     1      33.139  13.785   0.715  0.00  0.00    -0.134 NA
ATOM     28  C   UNL     1      31.940  14.425   0.834  0.00  0.00    +0.086 A 
ATOM     29  C   UNL     1      31.433  14.203   2.092  0.00  0.00    +0.139 A 
ATOM     30  N   UNL     1      32.388  13.443   2.730  0.00  0.00    -0.220 N 
ATOM     31  N   UNL     1      33.400  13.182   1.868  0.00  0.00    -0.061 NA
BRANCH  30  32
ATOM     32  C   UNL     1      32.411  13.000   4.078  0.00  0.00    +0.067 A 
ATOM     33  C   UNL     1      31.233  12.574   4.711  0.00  0.00    +0.030 A 
ATOM     34  C   UNL     1      31.255  12.206   6.058  0.00  0.00    +0.030 A 
ATOM     35  C   UNL     1      32.455  12.250   6.770  0.00  0.00    +0.105 A 
ATOM     36  C   UNL     1      33.639  12.658   6.147  0.00  0.00    +0.030 A 
ATOM     37  C   UNL     1      33.617  13.025   4.799  0.00  0.00    +0.030 A 
BRANCH  35  38
ATOM     38  S   UNL     1      32.455  11.858   8.495  0.00  0.00    +0.056 S 
ATOM     39  O   UNL     1      32.314  10.432   8.660  0.00  0.00    -0.153 OA
ATOM     40  O   UNL     1      33.495  12.618   9.151  0.00  0.00    -0.153 OA
BRANCH  38  41
ATOM     41  N   UNL     1      31.003  12.531   8.997  0.00  0.00    -0.204 NA
ATOM     42  H   UNL     1      31.018  12.671  10.007  0.00  0.00    +0.144 HD
ATOM     43  H   UNL     1      30.226  11.953   8.673  0.00  0.00    +0.144 HD
ENDBRANCH  38  41
ENDBRANCH  35  38
ENDBRANCH  30  32
ENDBRANCH  26  28
ENDBRANCH  25  26
ENDBRANCH  24  25
ENDBRANCH   1  24
TORSDOF 13
