REMARK VINA RESULT:    -6.801      1.838      3.994
REMARK INTER + INTRA:         -13.308
REMARK INTER:                 -11.003
REMARK INTRA:                  -2.305
REMARK UNBOUND:                -2.133
REMARK  Name = lig_assembled_7.pdb
REMARK  14 active torsions:
REMARK  status: ('A' for Active; 'I' for Inactive)
REMARK    1  A    between atoms: _2  and  _8
REMARK    2  A    between atoms: _4  and  _15
REMARK    3  A    between atoms: _5  and  _6
REMARK    4  A    between atoms: _5  and  _16
REMARK    5  A    between atoms: _9  and  _10
REMARK    6  A    between atoms: _12  and  _13
REMARK    7  A    between atoms: _16  and  _18
REMARK    8  A    between atoms: _17  and  _22
REMARK    9  A    between atoms: _18  and  _21
REMARK   10  A    between atoms: _26  and  _36
REMARK   11  A    between atoms: _28  and  _29
REMARK   12  A    between atoms: _30  and  _32
REMARK   13  A    between atoms: _32  and  _34
REMARK   14  A    between atoms: _34  and  _36
REMARK                            x       y       z     vdW  Elec       q    Type
REMARK                         _______ _______ _______ _____ _____    ______ ____
ROOT
ATOM      1  C   UNL     1      27.458  14.603  -2.316  0.00  0.00    +0.400 C 
ATOM      2  N   UNL     1      28.039  15.232  -1.240  0.00  0.00    -0.278 N 
ATOM      3  H   UNL     1      28.250  14.427  -0.568  0.00  0.00    +0.152 HD
ATOM      4  O   UNL     1      27.482  13.376  -2.352  0.00  0.00    -0.226 OA
ENDROOT
BRANCH   1   5
ATOM      5  O   UNL     1      26.905  15.382  -3.187  0.00  0.00    -0.450 OA
BRANCH   5   6
ATOM      6  C   UNL     1      25.838  16.297  -3.277  0.00  0.00    +0.240 C 
BRANCH   6   7
ATOM      7  C   UNL     1      24.456  15.740  -3.670  0.00  0.00    +0.100 C 
BRANCH   7   9
ATOM      8  N   UNL     1      24.173  13.293  -3.571  0.00  0.00    -0.134 NA
ATOM      9  C   UNL     1      24.179  14.494  -2.933  0.00  0.00    +0.086 A 
ATOM     10  C   UNL     1      23.905  14.287  -1.594  0.00  0.00    +0.139 A 
ATOM     11  N   UNL     1      23.690  12.931  -1.470  0.00  0.00    -0.219 N 
ATOM     12  N   UNL     1      23.906  12.354  -2.679  0.00  0.00    -0.061 NA
BRANCH  11  13
ATOM     13  C   UNL     1      23.315  12.167  -0.317  0.00  0.00    +0.073 A 
ATOM     14  C   UNL     1      24.319  11.459   0.409  0.00  0.00    -0.024 A 
ATOM     15  C   UNL     1      23.960  10.705   1.548  0.00  0.00    +0.008 A 
ATOM     16  C   UNL     1      22.642  10.639   1.991  0.00  0.00    -0.050 A 
ATOM     17  C   UNL     1      22.295   9.830   3.205  0.00  0.00    +0.044 C 
ATOM     18  C   UNL     1      21.666  11.333   1.280  0.00  0.00    +0.008 A 
ATOM     19  C   UNL     1      25.797  11.489   0.083  0.00  0.00    +0.046 C 
ATOM     20  C   UNL     1      21.968  12.082   0.119  0.00  0.00    -0.024 A 
ATOM     21  C   UNL     1      20.751  12.649  -0.569  0.00  0.00    +0.046 C 
ENDBRANCH  11  13
ENDBRANCH   7   9
ENDBRANCH   6   7
ENDBRANCH   5   6
ENDBRANCH   1   5
BRANCH   2  22
ATOM     22  C   UNL     1      28.499  16.473  -0.623  0.00  0.00    +0.152 C 
BRANCH  22  23
ATOM     23  C   UNL     1      29.976  16.505  -0.180  0.00  0.00    +0.193 C 
ATOM     24  O   UNL     1      30.152  17.713   0.593  0.00  0.00    -0.219 OA
BRANCH  23  25
ATOM     25  C   UNL     1      30.468  15.376   0.751  0.00  0.00    +0.212 C 
ATOM     26  O   UNL     1      29.352  14.664   1.310  0.00  0.00    -0.218 OA
BRANCH  25  27
ATOM     27  C   UNL     1      31.415  14.341   0.031  0.00  0.00    +0.171 C 
ATOM     28  O   UNL     1      30.975  14.019  -1.284  0.00  0.00    -0.343 OA
ATOM     29  C   UNL     1      31.479  12.962  -2.047  0.00  0.00    +0.220 C 
ATOM     30  C   UNL     1      31.481  11.640  -1.259  0.00  0.00    +0.076 C 
ATOM     31  C   UNL     1      32.219  11.892   0.066  0.00  0.00    +0.177 C 
ATOM     32  O   UNL     1      32.285  10.688   0.817  0.00  0.00    -0.221 OA
ATOM     33  C   UNL     1      31.509  13.025   0.870  0.00  0.00    +0.155 C 
BRANCH  33  34
ATOM     34  N   UNL     1      32.204  13.262   2.133  0.00  0.00    -0.202 NA
ATOM     35  C   UNL     1      31.822  12.971   3.402  0.00  0.00    +0.242 C 
ATOM     36  C   UNL     1      32.854  13.054   4.497  0.00  0.00    +0.096 C 
ATOM     37  O   UNL     1      30.657  12.648   3.627  0.00  0.00    -0.273 OA
ENDBRANCH  33  34
BRANCH  29  38
ATOM     38  C   UNL     1      32.935  13.271  -2.698  0.00  0.00    +0.391 C 
ATOM     39  O   UNL     1      33.265  12.144  -3.359  0.00  0.00    -0.243 OA
ATOM     40  O   UNL     1      33.114  14.593  -2.593  0.00  0.00    -0.243 OA
ENDBRANCH  29  38
ENDBRANCH  25  27
ENDBRANCH  23  25
ENDBRANCH  22  23
ENDBRANCH   2  22
TORSDOF 11
