REMARK VINA RESULT:    -8.331      1.291      3.282
REMARK INTER + INTRA:         -16.143
REMARK INTER:                 -14.364
REMARK INTRA:                  -1.779
REMARK UNBOUND:                -1.480
REMARK  Name = lig_assembled_58.pdb
REMARK  13 active torsions:
REMARK  status: ('A' for Active; 'I' for Inactive)
REMARK    1  A    between atoms: _2  and  _8
REMARK    2  A    between atoms: _5  and  _6
REMARK    3  A    between atoms: _5  and  _20
REMARK    4  A    between atoms: _8  and  _9
REMARK    5  A    between atoms: _8  and  _15
REMARK    6  A    between atoms: _20  and  _22
REMARK    7  A    between atoms: _21  and  _26
REMARK    8  A    between atoms: _22  and  _25
REMARK    9  A    between atoms: _30  and  _40
REMARK   10  A    between atoms: _32  and  _33
REMARK   11  A    between atoms: _34  and  _36
REMARK   12  A    between atoms: _36  and  _38
REMARK   13  A    between atoms: _38  and  _40
REMARK                            x       y       z     vdW  Elec       q    Type
REMARK                         _______ _______ _______ _____ _____    ______ ____
ROOT
ATOM      1  C   UNL     1      27.809  17.313  -1.171  0.00  0.00    +0.400 C 
ATOM      2  N   UNL     1      28.220  16.204  -0.471  0.00  0.00    -0.278 N 
ATOM      3  H   UNL     1      28.398  16.583   0.512  0.00  0.00    +0.152 HD
ATOM      4  O   UNL     1      27.574  18.341  -0.541  0.00  0.00    -0.226 OA
ENDROOT
BRANCH   2   5
ATOM      5  C   UNL     1      28.503  14.771  -0.465  0.00  0.00    +0.152 C 
BRANCH   5   6
ATOM      6  C   UNL     1      29.534  14.286   0.576  0.00  0.00    +0.193 C 
ATOM      7  O   UNL     1      29.712  12.869   0.354  0.00  0.00    -0.219 OA
BRANCH   6   8
ATOM      8  C   UNL     1      30.961  14.871   0.495  0.00  0.00    +0.212 C 
ATOM      9  O   UNL     1      30.971  16.232   0.957  0.00  0.00    -0.218 OA
BRANCH   8  10
ATOM     10  C   UNL     1      32.020  14.050   1.324  0.00  0.00    +0.171 C 
ATOM     11  O   UNL     1      32.344  14.669   2.565  0.00  0.00    -0.343 OA
ATOM     12  C   UNL     1      33.417  14.293   3.377  0.00  0.00    +0.220 C 
ATOM     13  C   UNL     1      34.732  14.211   2.583  0.00  0.00    +0.076 C 
ATOM     14  C   UNL     1      34.485  13.296   1.372  0.00  0.00    +0.177 C 
ATOM     15  O   UNL     1      35.684  13.154   0.623  0.00  0.00    -0.221 OA
ATOM     16  C   UNL     1      33.331  13.869   0.491  0.00  0.00    +0.155 C 
BRANCH  16  17
ATOM     17  N   UNL     1      33.098  13.007  -0.664  0.00  0.00    -0.202 NA
ATOM     18  C   UNL     1      33.148  13.298  -1.989  0.00  0.00    +0.242 C 
ATOM     19  C   UNL     1      33.156  12.157  -2.972  0.00  0.00    +0.096 C 
ATOM     20  O   UNL     1      33.186  14.472  -2.352  0.00  0.00    -0.273 OA
ENDBRANCH  16  17
BRANCH  12  21
ATOM     21  C   UNL     1      33.144  12.932   4.221  0.00  0.00    +0.391 C 
ATOM     22  O   UNL     1      34.341  12.601   4.744  0.00  0.00    -0.243 OA
ATOM     23  O   UNL     1      31.814  12.824   4.329  0.00  0.00    -0.243 OA
ENDBRANCH  12  21
ENDBRANCH   8  10
ENDBRANCH   6   8
ENDBRANCH   5   6
ENDBRANCH   2   5
BRANCH   1  24
ATOM     24  O   UNL     1      27.737  17.171  -2.454  0.00  0.00    -0.450 OA
BRANCH  24  25
ATOM     25  C   UNL     1      26.779  17.238  -3.484  0.00  0.00    +0.240 C 
BRANCH  25  26
ATOM     26  C   UNL     1      26.484  15.944  -4.266  0.00  0.00    +0.100 C 
BRANCH  26  28
ATOM     27  N   UNL     1      24.470  14.636  -4.907  0.00  0.00    -0.134 NA
ATOM     28  C   UNL     1      25.075  15.548  -4.085  0.00  0.00    +0.086 A 
ATOM     29  C   UNL     1      24.177  15.947  -3.122  0.00  0.00    +0.134 A 
ATOM     30  N   UNL     1      23.095  15.130  -3.311  0.00  0.00    -0.240 N 
ATOM     31  N   UNL     1      23.250  14.400  -4.439  0.00  0.00    -0.065 NA
BRANCH  30  32
ATOM     32  C   UNL     1      21.900  14.949  -2.466  0.00  0.00    +0.169 C 
BRANCH  32  33
ATOM     33  C   UNL     1      22.036  13.769  -1.492  0.00  0.00    -0.019 A 
ATOM     34  C   UNL     1      23.277  13.142  -1.276  0.00  0.00    +0.006 A 
ATOM     35  C   UNL     1      23.394  12.067  -0.390  0.00  0.00    +0.000 A 
ATOM     36  C   UNL     1      22.281  11.616   0.314  0.00  0.00    +0.000 A 
ATOM     37  C   UNL     1      21.059  12.256   0.158  0.00  0.00    +0.000 A 
ATOM     38  C   UNL     1      20.942  13.332  -0.720  0.00  0.00    +0.006 A 
ENDBRANCH  32  33
BRANCH  32  39
ATOM     39  C   UNL     1      20.639  14.922  -3.341  0.00  0.00    -0.019 A 
ATOM     40  C   UNL     1      20.037  16.125  -3.749  0.00  0.00    +0.006 A 
ATOM     41  C   UNL     1      18.857  16.112  -4.496  0.00  0.00    +0.000 A 
ATOM     42  C   UNL     1      18.268  14.904  -4.861  0.00  0.00    +0.000 A 
ATOM     43  C   UNL     1      18.845  13.704  -4.465  0.00  0.00    +0.000 A 
ATOM     44  C   UNL     1      20.013  13.714  -3.703  0.00  0.00    +0.006 A 
ENDBRANCH  32  39
ENDBRANCH  30  32
ENDBRANCH  26  28
ENDBRANCH  25  26
ENDBRANCH  24  25
ENDBRANCH   1  24
TORSDOF 13
