REMARK VINA RESULT:    -6.846      2.199      3.030
REMARK INTER + INTRA:         -13.417
REMARK INTER:                 -11.640
REMARK INTRA:                  -1.776
REMARK UNBOUND:                -2.168
REMARK  Name = lig_assembled_86.pdb
REMARK  12 active torsions:
REMARK  status: ('A' for Active; 'I' for Inactive)
REMARK    1  A    between atoms: _2  and  _9
REMARK    2  A    between atoms: _3  and  _12
REMARK    3  A    between atoms: _6  and  _7
REMARK    4  A    between atoms: _6  and  _16
REMARK    5  A    between atoms: _16  and  _18
REMARK    6  A    between atoms: _17  and  _22
REMARK    7  A    between atoms: _18  and  _21
REMARK    8  A    between atoms: _26  and  _36
REMARK    9  A    between atoms: _28  and  _29
REMARK   10  A    between atoms: _30  and  _32
REMARK   11  A    between atoms: _32  and  _34
REMARK   12  A    between atoms: _34  and  _36
REMARK                            x       y       z     vdW  Elec       q    Type
REMARK                         _______ _______ _______ _____ _____    ______ ____
ROOT
ATOM      1  C   UNL     1      28.311  17.648  -0.523  0.00  0.00    +0.400 C 
ATOM      2  N   UNL     1      29.462  17.631   0.230  0.00  0.00    -0.278 N 
ATOM      3  H   UNL     1      29.364  18.497   0.849  0.00  0.00    +0.152 HD
ATOM      4  O   UNL     1      27.432  18.450  -0.221  0.00  0.00    -0.226 OA
ENDROOT
BRANCH   1   5
ATOM      5  O   UNL     1      28.281  16.821  -1.516  0.00  0.00    -0.450 OA
BRANCH   5   6
ATOM      6  C   UNL     1      27.338  16.127  -2.300  0.00  0.00    +0.240 C 
BRANCH   6   7
ATOM      7  C   UNL     1      27.396  14.587  -2.284  0.00  0.00    +0.100 C 
BRANCH   7   9
ATOM      8  N   UNL     1      25.919  12.706  -2.941  0.00  0.00    -0.134 NA
ATOM      9  C   UNL     1      26.069  14.025  -2.597  0.00  0.00    +0.086 A 
ATOM     10  C   UNL     1      24.834  14.629  -2.597  0.00  0.00    +0.134 A 
ATOM     11  N   UNL     1      23.973  13.622  -2.912  0.00  0.00    -0.248 N 
ATOM     12  N   UNL     1      24.630  12.474  -3.149  0.00  0.00    -0.065 NA
BRANCH  11  13
ATOM     13  C   UNL     1      22.522  13.695  -2.992  0.00  0.00    +0.112 C 
ATOM     14  C   UNL     1      21.902  12.352  -3.430  0.00  0.00    +0.045 C 
ATOM     15  C   UNL     1      20.697  11.903  -2.599  0.00  0.00    +0.059 C 
ATOM     16  C   UNL     1      21.139  11.341  -1.243  0.00  0.00    +0.020 C 
ATOM     17  C   UNL     1      21.058  12.531  -0.290  0.00  0.00    +0.020 C 
ATOM     18  C   UNL     1      20.656  13.709  -1.180  0.00  0.00    +0.059 C 
ATOM     19  N   UNL     1      19.847  13.019  -2.185  0.00  0.00    -0.299 NA
ATOM     20  C   UNL     1      19.289  13.843  -3.240  0.00  0.00    +0.105 C 
ATOM     21  C   UNL     1      21.888  14.406  -1.773  0.00  0.00    +0.045 C 
ENDBRANCH  11  13
ENDBRANCH   7   9
ENDBRANCH   6   7
ENDBRANCH   5   6
ENDBRANCH   1   5
BRANCH   2  22
ATOM     22  C   UNL     1      30.720  16.970   0.566  0.00  0.00    +0.152 C 
BRANCH  22  23
ATOM     23  C   UNL     1      30.865  15.508   0.096  0.00  0.00    +0.193 C 
ATOM     24  O   UNL     1      31.970  15.479  -0.835  0.00  0.00    -0.219 OA
BRANCH  23  25
ATOM     25  C   UNL     1      31.229  14.448   1.158  0.00  0.00    +0.212 C 
ATOM     26  O   UNL     1      31.634  15.082   2.382  0.00  0.00    -0.218 OA
BRANCH  25  27
ATOM     27  C   UNL     1      30.051  13.450   1.474  0.00  0.00    +0.171 C 
ATOM     28  O   UNL     1      29.922  13.176   2.865  0.00  0.00    -0.343 OA
ATOM     29  C   UNL     1      29.133  12.155   3.398  0.00  0.00    +0.220 C 
ATOM     30  C   UNL     1      29.416  10.803   2.720  0.00  0.00    +0.076 C 
ATOM     31  C   UNL     1      29.273  11.007   1.203  0.00  0.00    +0.177 C 
ATOM     32  O   UNL     1      29.486   9.775   0.528  0.00  0.00    -0.221 OA
ATOM     33  C   UNL     1      30.270  12.102   0.711  0.00  0.00    +0.155 C 
BRANCH  33  34
ATOM     34  N   UNL     1      30.142  12.294  -0.731  0.00  0.00    -0.202 NA
ATOM     35  C   UNL     1      31.068  12.144  -1.712  0.00  0.00    +0.242 C 
ATOM     36  C   UNL     1      30.597  12.119  -3.143  0.00  0.00    +0.096 C 
ATOM     37  O   UNL     1      32.256  12.032  -1.414  0.00  0.00    -0.273 OA
ENDBRANCH  33  34
BRANCH  29  38
ATOM     38  C   UNL     1      27.545  12.499   3.403  0.00  0.00    +0.391 C 
ATOM     39  O   UNL     1      26.930  11.303   3.478  0.00  0.00    -0.243 OA
ATOM     40  O   UNL     1      27.453  13.815   3.633  0.00  0.00    -0.243 OA
ENDBRANCH  29  38
ENDBRANCH  25  27
ENDBRANCH  23  25
ENDBRANCH  22  23
ENDBRANCH   2  22
TORSDOF 11
