REMARK VINA RESULT:    -7.500      2.667      8.610
REMARK INTER + INTRA:         -14.265
REMARK INTER:                 -12.464
REMARK INTRA:                  -1.800
REMARK UNBOUND:                -1.503
REMARK  Name = lig_assembled_89.pdb
REMARK  14 active torsions:
REMARK  status: ('A' for Active; 'I' for Inactive)
REMARK    1  A    between atoms: _2  and  _11
REMARK    2  A    between atoms: _5  and  _19
REMARK    3  A    between atoms: _8  and  _9
REMARK    4  A    between atoms: _8  and  _24
REMARK    5  A    between atoms: _19  and  _20
REMARK    6  A    between atoms: _19  and  _21
REMARK    7  A    between atoms: _24  and  _26
REMARK    8  A    between atoms: _25  and  _30
REMARK    9  A    between atoms: _26  and  _29
REMARK   10  A    between atoms: _34  and  _44
REMARK   11  A    between atoms: _36  and  _37
REMARK   12  A    between atoms: _38  and  _40
REMARK   13  A    between atoms: _40  and  _42
REMARK   14  A    between atoms: _42  and  _44
REMARK                            x       y       z     vdW  Elec       q    Type
REMARK                         _______ _______ _______ _____ _____    ______ ____
ROOT
ATOM      1  C   UNL     1      26.944  17.350  -3.069  0.00  0.00    +0.240 C 
ENDROOT
BRANCH   1   2
ATOM      2  C   UNL     1      26.862  16.467  -1.809  0.00  0.00    +0.100 C 
BRANCH   2   4
ATOM      3  N   UNL     1      28.989  17.470  -1.069  0.00  0.00    -0.134 NA
ATOM      4  C   UNL     1      28.183  16.375  -1.165  0.00  0.00    +0.087 A 
ATOM      5  C   UNL     1      28.810  15.306  -0.572  0.00  0.00    +0.141 A 
ATOM      6  N   UNL     1      30.006  15.806  -0.094  0.00  0.00    -0.200 N 
ATOM      7  N   UNL     1      30.086  17.118  -0.414  0.00  0.00    -0.059 NA
BRANCH   6   8
ATOM      8  C   UNL     1      30.955  15.087   0.690  0.00  0.00    +0.186 A 
ATOM      9  C   UNL     1      31.952  14.219   0.292  0.00  0.00    +0.158 A 
ATOM     10  C   UNL     1      32.302  13.642  -0.968  0.00  0.00    +0.280 A 
ATOM     11  O   UNL     1      31.514  13.578  -1.902  0.00  0.00    -0.265 OA
ATOM     12  N   UNL     1      33.610  13.120  -1.048  0.00  0.00    -0.302 N 
ATOM     13  C   UNL     1      34.331  12.780   0.158  0.00  0.00    +0.069 A 
ATOM     14  C   UNL     1      35.504  12.012   0.149  0.00  0.00    +0.028 A 
ATOM     15  C   UNL     1      36.149  11.658   1.342  0.00  0.00    +0.002 A 
ATOM     16  C   UNL     1      35.644  12.074   2.569  0.00  0.00    +0.002 A 
ATOM     17  C   UNL     1      34.489  12.848   2.615  0.00  0.00    +0.028 A 
ATOM     18  C   UNL     1      33.838  13.187   1.419  0.00  0.00    +0.072 A 
ATOM     19  N   UNL     1      32.667  13.960   1.430  0.00  0.00    -0.291 N 
ATOM     20  C   UNL     1      32.021  14.578   2.470  0.00  0.00    +0.207 A 
ATOM     21  N   UNL     1      30.987  15.280   2.058  0.00  0.00    -0.216 NA
BRANCH  12  22
ATOM     22  C   UNL     1      34.126  12.743  -2.385  0.00  0.00    +0.085 C 
ATOM     23  C   UNL     1      33.914  13.827  -3.459  0.00  0.00    +0.030 C 
ATOM     24  C   UNL     1      33.556  11.404  -2.856  0.00  0.00    +0.030 C 
ENDBRANCH  12  22
ENDBRANCH   6   8
ENDBRANCH   2   4
ENDBRANCH   1   2
BRANCH   1  25
ATOM     25  O   UNL     1      26.238  16.921  -4.210  0.00  0.00    -0.450 OA
BRANCH  25  26
ATOM     26  C   UNL     1      26.059  15.847  -4.906  0.00  0.00    +0.400 C 
ATOM     27  N   UNL     1      24.866  15.195  -4.699  0.00  0.00    -0.278 N 
ATOM     28  H   UNL     1      24.837  14.476  -5.489  0.00  0.00    +0.152 HD
ATOM     29  O   UNL     1      26.835  15.385  -5.739  0.00  0.00    -0.226 OA
BRANCH  27  30
ATOM     30  C   UNL     1      23.657  15.038  -3.895  0.00  0.00    +0.152 C 
BRANCH  30  31
ATOM     31  C   UNL     1      23.782  14.138  -2.648  0.00  0.00    +0.193 C 
ATOM     32  O   UNL     1      22.997  14.760  -1.607  0.00  0.00    -0.219 OA
BRANCH  31  33
ATOM     33  C   UNL     1      23.224  12.701  -2.745  0.00  0.00    +0.212 C 
ATOM     34  O   UNL     1      23.502  12.141  -4.039  0.00  0.00    -0.218 OA
BRANCH  33  35
ATOM     35  C   UNL     1      23.799  11.732  -1.642  0.00  0.00    +0.171 C 
ATOM     36  O   UNL     1      23.181  11.920  -0.373  0.00  0.00    -0.343 OA
ATOM     37  C   UNL     1      23.657  11.376   0.823  0.00  0.00    +0.220 C 
ATOM     38  C   UNL     1      25.154  11.668   1.026  0.00  0.00    +0.076 C 
ATOM     39  C   UNL     1      25.893  11.199  -0.237  0.00  0.00    +0.177 C 
ATOM     40  O   UNL     1      27.290  11.410  -0.085  0.00  0.00    -0.221 OA
ATOM     41  C   UNL     1      25.341  11.945  -1.492  0.00  0.00    +0.155 C 
BRANCH  41  42
ATOM     42  N   UNL     1      26.045  11.507  -2.694  0.00  0.00    -0.202 NA
ATOM     43  C   UNL     1      27.004  12.140  -3.417  0.00  0.00    +0.242 C 
ATOM     44  C   UNL     1      27.772  11.343  -4.439  0.00  0.00    +0.096 C 
ATOM     45  O   UNL     1      27.222  13.334  -3.223  0.00  0.00    -0.273 OA
ENDBRANCH  41  42
BRANCH  37  46
ATOM     46  C   UNL     1      23.330   9.793   0.989  0.00  0.00    +0.391 C 
ATOM     47  O   UNL     1      24.195   9.356   1.924  0.00  0.00    -0.243 OA
ATOM     48  O   UNL     1      22.156   9.592   0.378  0.00  0.00    -0.243 OA
ENDBRANCH  37  46
ENDBRANCH  33  35
ENDBRANCH  31  33
ENDBRANCH  30  31
ENDBRANCH  27  30
ENDBRANCH  25  26
ENDBRANCH   1  25
TORSDOF 12
