REMARK VINA RESULT:    -6.448      3.211      4.818
REMARK INTER + INTRA:         -13.442
REMARK INTER:                 -11.595
REMARK INTRA:                  -1.847
REMARK UNBOUND:                -2.094
REMARK  Name = lig_assembled_24.pdb
REMARK  14 active torsions:
REMARK  status: ('A' for Active; 'I' for Inactive)
REMARK    1  A    between atoms: _2  and  _8
REMARK    2  A    between atoms: _5  and  _6
REMARK    3  A    between atoms: _5  and  _16
REMARK    4  A    between atoms: _8  and  _9
REMARK    5  A    between atoms: _12  and  _15
REMARK    6  A    between atoms: _13  and  _15
REMARK    7  A    between atoms: _16  and  _18
REMARK    8  A    between atoms: _17  and  _22
REMARK    9  A    between atoms: _18  and  _21
REMARK   10  A    between atoms: _26  and  _36
REMARK   11  A    between atoms: _28  and  _29
REMARK   12  A    between atoms: _30  and  _32
REMARK   13  A    between atoms: _32  and  _34
REMARK   14  A    between atoms: _34  and  _36
REMARK                            x       y       z     vdW  Elec       q    Type
REMARK                         _______ _______ _______ _____ _____    ______ ____
ROOT
ATOM      1  C   UNL     1      29.434  12.377  -1.812  0.00  0.00    +0.400 C 
ATOM      2  N   UNL     1      30.735  12.012  -2.064  0.00  0.00    -0.278 N 
ATOM      3  H   UNL     1      30.720  11.742  -3.098  0.00  0.00    +0.152 HD
ATOM      4  O   UNL     1      28.668  12.488  -2.766  0.00  0.00    -0.226 OA
ENDROOT
BRANCH   1   5
ATOM      5  O   UNL     1      29.130  12.542  -0.566  0.00  0.00    -0.450 OA
BRANCH   5   6
ATOM      6  C   UNL     1      28.611  13.537   0.284  0.00  0.00    +0.240 C 
BRANCH   6   7
ATOM      7  C   UNL     1      29.373  14.874   0.362  0.00  0.00    +0.100 C 
BRANCH   7   9
ATOM      8  N   UNL     1      28.990  17.221  -0.328  0.00  0.00    -0.134 NA
ATOM      9  C   UNL     1      28.717  15.888  -0.484  0.00  0.00    +0.086 A 
ATOM     10  C   UNL     1      27.811  15.731  -1.509  0.00  0.00    +0.134 A 
ATOM     11  N   UNL     1      27.623  16.995  -1.985  0.00  0.00    -0.247 N 
ATOM     12  N   UNL     1      28.308  17.891  -1.244  0.00  0.00    -0.065 NA
BRANCH  11  13
ATOM     13  C   UNL     1      26.881  17.475  -3.140  0.00  0.00    +0.180 C 
BRANCH  13  14
ATOM     14  C   UNL     1      26.012  16.438  -3.809  0.00  0.00    -0.026 A 
ATOM     15  C   UNL     1      24.800  16.043  -3.227  0.00  0.00    +0.009 A 
ATOM     16  C   UNL     1      24.001  15.083  -3.854  0.00  0.00    +0.046 A 
ATOM     17  C   UNL     1      24.386  14.519  -5.071  0.00  0.00    +0.120 A 
ATOM     18  C   UNL     1      25.601  14.889  -5.642  0.00  0.00    +0.046 A 
ATOM     19  C   UNL     1      26.410  15.845  -5.016  0.00  0.00    +0.009 A 
BRANCH  17  20
ATOM     20  O   UNL     1      23.533  13.578  -5.577  0.00  0.00    -0.495 OA
ATOM     21  C   UNL     1      22.146  13.874  -5.445  0.00  0.00    +0.277 C 
ENDBRANCH  17  20
ENDBRANCH  13  14
ENDBRANCH  11  13
ENDBRANCH   7   9
ENDBRANCH   6   7
ENDBRANCH   5   6
ENDBRANCH   1   5
BRANCH   2  22
ATOM     22  C   UNL     1      32.099  11.845  -1.568  0.00  0.00    +0.152 C 
BRANCH  22  23
ATOM     23  C   UNL     1      33.118  12.916  -2.009  0.00  0.00    +0.193 C 
ATOM     24  O   UNL     1      32.528  13.615  -3.128  0.00  0.00    -0.219 OA
BRANCH  23  25
ATOM     25  C   UNL     1      33.465  14.031  -0.998  0.00  0.00    +0.212 C 
ATOM     26  O   UNL     1      32.537  15.121  -1.115  0.00  0.00    -0.218 OA
BRANCH  25  27
ATOM     27  C   UNL     1      33.476  13.536   0.498  0.00  0.00    +0.171 C 
ATOM     28  O   UNL     1      32.674  14.348   1.349  0.00  0.00    -0.343 OA
ATOM     29  C   UNL     1      32.694  14.287   2.745  0.00  0.00    +0.220 C 
ATOM     30  C   UNL     1      34.128  14.372   3.298  0.00  0.00    +0.076 C 
ATOM     31  C   UNL     1      34.961  13.290   2.591  0.00  0.00    +0.177 C 
ATOM     32  O   UNL     1      36.289  13.298   3.096  0.00  0.00    -0.221 OA
ATOM     33  C   UNL     1      34.940  13.519   1.048  0.00  0.00    +0.155 C 
BRANCH  33  34
ATOM     34  N   UNL     1      35.737  12.498   0.373  0.00  0.00    -0.202 NA
ATOM     35  C   UNL     1      36.738  12.637  -0.534  0.00  0.00    +0.242 C 
ATOM     36  C   UNL     1      37.589  11.434  -0.849  0.00  0.00    +0.096 C 
ATOM     37  O   UNL     1      36.926  13.727  -1.069  0.00  0.00    -0.273 OA
ENDBRANCH  33  34
BRANCH  29  38
ATOM     38  C   UNL     1      31.896  13.008   3.349  0.00  0.00    +0.391 C 
ATOM     39  O   UNL     1      31.318  12.423   2.281  0.00  0.00    -0.243 OA
ATOM     40  O   UNL     1      32.349  12.845   4.598  0.00  0.00    -0.243 OA
ENDBRANCH  29  38
ENDBRANCH  25  27
ENDBRANCH  23  25
ENDBRANCH  22  23
ENDBRANCH   2  22
TORSDOF 13
