REMARK VINA RESULT:    -7.221      2.877      8.951
REMARK INTER + INTRA:         -13.790
REMARK INTER:                 -11.831
REMARK INTRA:                  -1.960
REMARK UNBOUND:                -1.503
REMARK  Name = lig_assembled_89.pdb
REMARK  14 active torsions:
REMARK  status: ('A' for Active; 'I' for Inactive)
REMARK    1  A    between atoms: _2  and  _11
REMARK    2  A    between atoms: _5  and  _19
REMARK    3  A    between atoms: _8  and  _9
REMARK    4  A    between atoms: _8  and  _24
REMARK    5  A    between atoms: _19  and  _20
REMARK    6  A    between atoms: _19  and  _21
REMARK    7  A    between atoms: _24  and  _26
REMARK    8  A    between atoms: _25  and  _30
REMARK    9  A    between atoms: _26  and  _29
REMARK   10  A    between atoms: _34  and  _44
REMARK   11  A    between atoms: _36  and  _37
REMARK   12  A    between atoms: _38  and  _40
REMARK   13  A    between atoms: _40  and  _42
REMARK   14  A    between atoms: _42  and  _44
REMARK                            x       y       z     vdW  Elec       q    Type
REMARK                         _______ _______ _______ _____ _____    ______ ____
ROOT
ATOM      1  C   UNL     1      30.536  16.697   0.001  0.00  0.00    +0.240 C 
ENDROOT
BRANCH   1   2
ATOM      2  C   UNL     1      31.585  15.610  -0.302  0.00  0.00    +0.100 C 
BRANCH   2   4
ATOM      3  N   UNL     1      31.122  13.218   0.074  0.00  0.00    -0.134 NA
ATOM      4  C   UNL     1      31.388  14.452   0.586  0.00  0.00    +0.087 A 
ATOM      5  C   UNL     1      31.445  14.364   1.957  0.00  0.00    +0.141 A 
ATOM      6  N   UNL     1      31.231  13.030   2.244  0.00  0.00    -0.200 N 
ATOM      7  N   UNL     1      31.036  12.363   1.083  0.00  0.00    -0.059 NA
BRANCH   6   8
ATOM      8  C   UNL     1      31.301  12.435   3.538  0.00  0.00    +0.186 A 
ATOM      9  C   UNL     1      32.376  11.863   4.188  0.00  0.00    +0.158 A 
ATOM     10  C   UNL     1      33.711  11.548   3.784  0.00  0.00    +0.280 A 
ATOM     11  O   UNL     1      34.032  11.441   2.608  0.00  0.00    -0.265 OA
ATOM     12  N   UNL     1      34.624  11.336   4.837  0.00  0.00    -0.302 N 
ATOM     13  C   UNL     1      34.142  11.003   6.160  0.00  0.00    +0.069 A 
ATOM     14  C   UNL     1      34.982  10.514   7.171  0.00  0.00    +0.028 A 
ATOM     15  C   UNL     1      34.473  10.152   8.426  0.00  0.00    +0.002 A 
ATOM     16  C   UNL     1      33.116  10.283   8.702  0.00  0.00    +0.002 A 
ATOM     17  C   UNL     1      32.256  10.776   7.726  0.00  0.00    +0.028 A 
ATOM     18  C   UNL     1      32.768  11.122   6.467  0.00  0.00    +0.072 A 
ATOM     19  N   UNL     1      31.927  11.616   5.457  0.00  0.00    -0.291 N 
ATOM     20  C   UNL     1      30.594  11.936   5.491  0.00  0.00    +0.207 A 
ATOM     21  N   UNL     1      30.183  12.446   4.349  0.00  0.00    -0.216 NA
BRANCH  12  22
ATOM     22  C   UNL     1      36.065  11.261   4.501  0.00  0.00    +0.085 C 
ATOM     23  C   UNL     1      36.549  12.403   3.587  0.00  0.00    +0.030 C 
ATOM     24  C   UNL     1      36.438   9.903   3.905  0.00  0.00    +0.030 C 
ENDBRANCH  12  22
ENDBRANCH   6   8
ENDBRANCH   2   4
ENDBRANCH   1   2
BRANCH   1  25
ATOM     25  O   UNL     1      29.310  16.626  -0.689  0.00  0.00    -0.450 OA
BRANCH  25  26
ATOM     26  C   UNL     1      28.175  17.242  -0.736  0.00  0.00    +0.400 C 
ATOM     27  N   UNL     1      27.263  16.743  -1.636  0.00  0.00    -0.278 N 
ATOM     28  H   UNL     1      26.358  17.250  -1.379  0.00  0.00    +0.152 HD
ATOM     29  O   UNL     1      27.838  18.196  -0.038  0.00  0.00    -0.226 OA
BRANCH  27  30
ATOM     30  C   UNL     1      26.986  15.863  -2.769  0.00  0.00    +0.152 C 
BRANCH  30  31
ATOM     31  C   UNL     1      25.530  15.377  -2.911  0.00  0.00    +0.193 C 
ATOM     32  O   UNL     1      25.129  15.658  -4.270  0.00  0.00    -0.219 OA
BRANCH  31  33
ATOM     33  C   UNL     1      25.260  13.866  -2.735  0.00  0.00    +0.212 C 
ATOM     34  O   UNL     1      26.101  13.101  -3.614  0.00  0.00    -0.218 OA
BRANCH  33  35
ATOM     35  C   UNL     1      25.480  13.360  -1.259  0.00  0.00    +0.171 C 
ATOM     36  O   UNL     1      26.738  12.715  -1.083  0.00  0.00    -0.343 OA
ATOM     37  C   UNL     1      27.088  11.966   0.043  0.00  0.00    +0.220 C 
ATOM     38  C   UNL     1      26.016  10.917   0.387  0.00  0.00    +0.076 C 
ATOM     39  C   UNL     1      24.669  11.650   0.491  0.00  0.00    +0.177 C 
ATOM     40  O   UNL     1      23.646  10.730   0.848  0.00  0.00    -0.221 OA
ATOM     41  C   UNL     1      24.341  12.367  -0.855  0.00  0.00    +0.155 C 
BRANCH  41  42
ATOM     42  N   UNL     1      23.058  13.059  -0.763  0.00  0.00    -0.202 NA
ATOM     43  C   UNL     1      21.890  12.811  -1.407  0.00  0.00    +0.242 C 
ATOM     44  C   UNL     1      20.640  13.489  -0.909  0.00  0.00    +0.096 C 
ATOM     45  O   UNL     1      21.877  12.046  -2.369  0.00  0.00    -0.273 OA
ENDBRANCH  41  42
BRANCH  37  46
ATOM     46  C   UNL     1      27.468  12.877   1.333  0.00  0.00    +0.391 C 
ATOM     47  O   UNL     1      27.431  12.029   2.380  0.00  0.00    -0.243 OA
ATOM     48  O   UNL     1      27.960  14.022   0.846  0.00  0.00    -0.243 OA
ENDBRANCH  37  46
ENDBRANCH  33  35
ENDBRANCH  31  33
ENDBRANCH  30  31
ENDBRANCH  27  30
ENDBRANCH  25  26
ENDBRANCH   1  25
TORSDOF 12
