REMARK VINA RESULT:    -6.890      3.226      9.525
REMARK INTER + INTRA:         -17.159
REMARK INTER:                 -13.762
REMARK INTRA:                  -3.397
REMARK UNBOUND:                -3.824
REMARK  Name = lig_assembled_81.pdb
REMARK  17 active torsions:
REMARK  status: ('A' for Active; 'I' for Inactive)
REMARK    1  A    between atoms: _2  and  _11
REMARK    2  A    between atoms: _7  and  _23
REMARK    3  A    between atoms: _8  and  _9
REMARK    4  A    between atoms: _8  and  _25
REMARK    5  A    between atoms: _13  and  _14
REMARK    6  A    between atoms: _20  and  _21
REMARK    7  A    between atoms: _21  and  _22
REMARK    8  A    between atoms: _22  and  _24
REMARK    9  A    between atoms: _23  and  _24
REMARK   10  A    between atoms: _25  and  _27
REMARK   11  A    between atoms: _26  and  _31
REMARK   12  A    between atoms: _27  and  _30
REMARK   13  A    between atoms: _35  and  _45
REMARK   14  A    between atoms: _37  and  _38
REMARK   15  A    between atoms: _39  and  _41
REMARK   16  A    between atoms: _41  and  _43
REMARK   17  A    between atoms: _43  and  _45
REMARK                            x       y       z     vdW  Elec       q    Type
REMARK                         _______ _______ _______ _____ _____    ______ ____
ROOT
ATOM      1  C   UNL     1      31.609  15.413  -0.098  0.00  0.00    +0.096 C 
ENDROOT
BRANCH   1   3
ATOM      2  N   UNL     1      31.637  13.046   0.542  0.00  0.00    -0.133 NA
ATOM      3  C   UNL     1      31.496  14.347   0.919  0.00  0.00    +0.066 C 
ATOM      4  C   UNL     1      31.226  14.389   2.273  0.00  0.00    +0.120 C 
ATOM      5  N   UNL     1      31.356  13.074   2.698  0.00  0.00    -0.187 N 
ATOM      6  N   UNL     1      31.414  12.289   1.603  0.00  0.00    -0.010 NA
BRANCH   5   7
ATOM      7  C   UNL     1      31.233  12.559   4.032  0.00  0.00    +0.150 A 
ATOM      8  C   UNL     1      32.257  12.553   5.013  0.00  0.00    +0.022 A 
ATOM      9  C   UNL     1      31.874  11.905   6.217  0.00  0.00    +0.081 A 
ATOM     10  N   UNL     1      30.664  11.294   6.348  0.00  0.00    -0.214 NA
ATOM     11  C   UNL     1      29.800  11.344   5.348  0.00  0.00    +0.215 A 
ATOM     12  N   UNL     1      28.623  10.645   5.467  0.00  0.00    -0.327 N 
ATOM     13  H   UNL     1      28.396  10.472   6.434  0.00  0.00    +0.145 HD
ATOM     14  H   UNL     1      27.909  11.007   4.855  0.00  0.00    +0.145 HD
ATOM     15  N   UNL     1      29.997  12.027   4.238  0.00  0.00    -0.198 NA
BRANCH   9  16
ATOM     16  C   UNL     1      32.680  11.749   7.487  0.00  0.00    +0.001 A 
ATOM     17  C   UNL     1      33.858  10.989   7.609  0.00  0.00    +0.010 A 
ATOM     18  C   UNL     1      34.571  10.892   8.816  0.00  0.00    +0.001 A 
ATOM     19  C   UNL     1      34.167  11.601   9.931  0.00  0.00    +0.000 A 
ATOM     20  C   UNL     1      33.038  12.413   9.845  0.00  0.00    +0.001 A 
ATOM     21  C   UNL     1      32.309  12.469   8.648  0.00  0.00    +0.010 A 
ENDBRANCH   9  16
BRANCH   8  22
ATOM     22  C   UNL     1      33.626  13.235   4.968  0.00  0.00    +0.069 C 
BRANCH  22  23
ATOM     23  C   UNL     1      34.834  12.535   4.376  0.00  0.00    +0.164 C 
BRANCH  23  24
ATOM     24  O   UNL     1      35.728  13.350   3.609  0.00  0.00    -0.380 OA
BRANCH  24  25
ATOM     25  C   UNL     1      34.927  13.980   2.591  0.00  0.00    +0.156 C 
ATOM     26  C   UNL     1      35.119  13.326   1.243  0.00  0.00    +0.034 C 
ENDBRANCH  24  25
ENDBRANCH  23  24
ENDBRANCH  22  23
ENDBRANCH   8  22
ENDBRANCH   5   7
ENDBRANCH   1   3
BRANCH   1  27
ATOM     27  C   UNL     1      30.691  16.596   0.262  0.00  0.00    +0.240 C 
BRANCH  27  28
ATOM     28  O   UNL     1      29.665  16.923  -0.646  0.00  0.00    -0.450 OA
BRANCH  28  29
ATOM     29  C   UNL     1      28.394  17.159  -0.646  0.00  0.00    +0.400 C 
ATOM     30  N   UNL     1      27.608  16.187  -1.220  0.00  0.00    -0.278 N 
ATOM     31  H   UNL     1      26.617  16.475  -0.943  0.00  0.00    +0.152 HD
ATOM     32  O   UNL     1      27.838  18.141  -0.162  0.00  0.00    -0.226 OA
BRANCH  30  33
ATOM     33  C   UNL     1      27.522  14.974  -2.029  0.00  0.00    +0.152 C 
BRANCH  33  34
ATOM     34  C   UNL     1      26.127  14.631  -2.592  0.00  0.00    +0.193 C 
ATOM     35  O   UNL     1      26.232  14.700  -4.032  0.00  0.00    -0.219 OA
BRANCH  34  36
ATOM     36  C   UNL     1      25.572  13.217  -2.314  0.00  0.00    +0.212 C 
ATOM     37  O   UNL     1      26.352  12.227  -3.004  0.00  0.00    -0.218 OA
BRANCH  36  38
ATOM     38  C   UNL     1      25.536  12.851  -0.781  0.00  0.00    +0.171 C 
ATOM     39  O   UNL     1      26.672  12.098  -0.370  0.00  0.00    -0.343 OA
ATOM     40  C   UNL     1      26.780  11.440   0.857  0.00  0.00    +0.220 C 
ATOM     41  C   UNL     1      25.553  10.555   1.140  0.00  0.00    +0.076 C 
ATOM     42  C   UNL     1      24.302  11.435   0.985  0.00  0.00    +0.177 C 
ATOM     43  O   UNL     1      23.139  10.673   1.275  0.00  0.00    -0.221 OA
ATOM     44  C   UNL     1      24.242  12.035  -0.454  0.00  0.00    +0.155 C 
BRANCH  44  45
ATOM     45  N   UNL     1      23.051  12.866  -0.608  0.00  0.00    -0.202 NA
ATOM     46  C   UNL     1      21.939  12.660  -1.359  0.00  0.00    +0.242 C 
ATOM     47  C   UNL     1      20.735  13.529  -1.108  0.00  0.00    +0.096 C 
ATOM     48  O   UNL     1      21.940  11.778  -2.216  0.00  0.00    -0.273 OA
ENDBRANCH  44  45
BRANCH  40  49
ATOM     49  C   UNL     1      27.095  12.438   2.100  0.00  0.00    +0.391 C 
ATOM     50  O   UNL     1      26.734  11.748   3.200  0.00  0.00    -0.243 OA
ATOM     51  O   UNL     1      27.857  13.419   1.602  0.00  0.00    -0.243 OA
ENDBRANCH  40  49
ENDBRANCH  36  38
ENDBRANCH  34  36
ENDBRANCH  33  34
ENDBRANCH  30  33
ENDBRANCH  28  29
ENDBRANCH  27  28
ENDBRANCH   1  27
TORSDOF 16
