REMARK VINA RESULT:    -6.501      2.591      9.866
REMARK INTER + INTRA:         -12.440
REMARK INTER:                 -10.977
REMARK INTRA:                  -1.464
REMARK UNBOUND:                -1.188
REMARK  Name = lig_assembled_35.pdb
REMARK  14 active torsions:
REMARK  status: ('A' for Active; 'I' for Inactive)
REMARK    1  A    between atoms: _2  and  _8
REMARK    2  A    between atoms: _4  and  _8
REMARK    3  A    between atoms: _4  and  _10
REMARK    4  A    between atoms: _5  and  _6
REMARK    5  A    between atoms: _5  and  _12
REMARK    6  A    between atoms: _8  and  _9
REMARK    7  A    between atoms: _12  and  _14
REMARK    8  A    between atoms: _13  and  _18
REMARK    9  A    between atoms: _14  and  _17
REMARK   10  A    between atoms: _22  and  _32
REMARK   11  A    between atoms: _24  and  _25
REMARK   12  A    between atoms: _26  and  _28
REMARK   13  A    between atoms: _28  and  _30
REMARK   14  A    between atoms: _30  and  _32
REMARK                            x       y       z     vdW  Elec       q    Type
REMARK                         _______ _______ _______ _____ _____    ______ ____
ROOT
ATOM      1  C   UNL     1      26.532  15.506  -2.577  0.00  0.00    +0.152 C 
ENDROOT
BRANCH   1   3
ATOM      2  C   UNL     1      27.811  17.610  -1.400  0.00  0.00    +0.400 C 
ATOM      3  N   UNL     1      26.860  16.787  -1.955  0.00  0.00    -0.278 N 
ATOM      4  H   UNL     1      25.968  17.374  -1.911  0.00  0.00    +0.152 HD
ATOM      5  O   UNL     1      27.506  18.779  -1.178  0.00  0.00    -0.226 OA
BRANCH   2   6
ATOM      6  O   UNL     1      28.946  17.053  -1.132  0.00  0.00    -0.450 OA
BRANCH   6   7
ATOM      7  C   UNL     1      29.870  16.967  -0.073  0.00  0.00    +0.240 C 
BRANCH   7   8
ATOM      8  C   UNL     1      30.156  15.570   0.510  0.00  0.00    +0.100 C 
BRANCH   8  10
ATOM      9  N   UNL     1      32.210  15.764  -0.856  0.00  0.00    -0.134 NA
ATOM     10  C   UNL     1      31.353  14.986  -0.124  0.00  0.00    +0.086 A 
ATOM     11  C   UNL     1      31.815  13.689  -0.122  0.00  0.00    +0.134 A 
ATOM     12  N   UNL     1      32.962  13.745  -0.858  0.00  0.00    -0.238 N 
ATOM     13  N   UNL     1      33.183  14.990  -1.315  0.00  0.00    -0.065 NA
BRANCH  12  14
ATOM     14  C   UNL     1      33.890  12.688  -1.210  0.00  0.00    +0.214 C 
ATOM     15  C   UNL     1      34.347  12.823  -2.660  0.00  0.00    +0.045 C 
BRANCH  14  16
ATOM     16  C   UNL     1      35.057  12.632  -0.245  0.00  0.00    +0.329 C 
ATOM     17  O   UNL     1      35.475  11.606   0.275  0.00  0.00    -0.249 OA
BRANCH  16  18
ATOM     18  O   UNL     1      35.611  13.838   0.034  0.00  0.00    -0.479 OA
ATOM     19  H   UNL     1      35.063  14.443   0.575  0.00  0.00    +0.295 HD
ENDBRANCH  16  18
ENDBRANCH  14  16
ENDBRANCH  12  14
ENDBRANCH   8  10
ENDBRANCH   7   8
ENDBRANCH   6   7
ENDBRANCH   2   6
ENDBRANCH   1   3
BRANCH   1  20
ATOM     20  C   UNL     1      25.489  15.549  -3.712  0.00  0.00    +0.193 C 
ATOM     21  O   UNL     1      26.207  15.868  -4.924  0.00  0.00    -0.219 OA
BRANCH  20  22
ATOM     22  C   UNL     1      24.738  14.240  -4.042  0.00  0.00    +0.212 C 
ATOM     23  O   UNL     1      25.649  13.253  -4.551  0.00  0.00    -0.218 OA
BRANCH  22  24
ATOM     24  C   UNL     1      23.973  13.630  -2.806  0.00  0.00    +0.171 C 
ATOM     25  O   UNL     1      24.463  12.345  -2.439  0.00  0.00    -0.343 OA
ATOM     26  C   UNL     1      23.820  11.481  -1.549  0.00  0.00    +0.220 C 
ATOM     27  C   UNL     1      22.338  11.287  -1.913  0.00  0.00    +0.076 C 
ATOM     28  C   UNL     1      21.704  12.682  -2.032  0.00  0.00    +0.177 C 
ATOM     29  O   UNL     1      20.320  12.559  -2.329  0.00  0.00    -0.221 OA
ATOM     30  C   UNL     1      22.445  13.518  -3.122  0.00  0.00    +0.155 C 
BRANCH  30  31
ATOM     31  N   UNL     1      21.841  14.842  -3.243  0.00  0.00    -0.202 NA
ATOM     32  C   UNL     1      21.208  15.414  -4.299  0.00  0.00    +0.242 C 
ATOM     33  C   UNL     1      20.420  16.676  -4.063  0.00  0.00    +0.096 C 
ATOM     34  O   UNL     1      21.289  14.894  -5.410  0.00  0.00    -0.273 OA
ENDBRANCH  30  31
BRANCH  26  35
ATOM     35  C   UNL     1      24.002  11.905   0.009  0.00  0.00    +0.391 C 
ATOM     36  O   UNL     1      22.999  11.281   0.658  0.00  0.00    -0.243 OA
ATOM     37  O   UNL     1      25.221  12.449   0.105  0.00  0.00    -0.243 OA
ENDBRANCH  26  35
ENDBRANCH  22  24
ENDBRANCH  20  22
ENDBRANCH   1  20
TORSDOF 13
