REMARK VINA RESULT:    -6.343      3.502     10.476
REMARK INTER + INTRA:         -12.595
REMARK INTER:                 -11.734
REMARK INTRA:                  -0.861
REMARK UNBOUND:                -2.544
REMARK  Name = lig_assembled_65.pdb
REMARK  11 active torsions:
REMARK  status: ('A' for Active; 'I' for Inactive)
REMARK    1  A    between atoms: _8  and  _14
REMARK    2  A    between atoms: _9  and  _10
REMARK    3  A    between atoms: _9  and  _15
REMARK    4  A    between atoms: _15  and  _17
REMARK    5  A    between atoms: _16  and  _21
REMARK    6  A    between atoms: _17  and  _20
REMARK    7  A    between atoms: _25  and  _35
REMARK    8  A    between atoms: _27  and  _28
REMARK    9  A    between atoms: _29  and  _31
REMARK   10  A    between atoms: _31  and  _33
REMARK   11  A    between atoms: _33  and  _35
REMARK                            x       y       z     vdW  Elec       q    Type
REMARK                         _______ _______ _______ _____ _____    ______ ____
ROOT
ATOM      1  C   UNL     1      27.714  17.791  -1.500  0.00  0.00    +0.400 C 
ATOM      2  N   UNL     1      26.805  16.910  -2.036  0.00  0.00    -0.278 N 
ATOM      3  H   UNL     1      25.882  17.445  -1.984  0.00  0.00    +0.152 HD
ATOM      4  O   UNL     1      27.346  18.943  -1.283  0.00  0.00    -0.226 OA
ENDROOT
BRANCH   1   5
ATOM      5  O   UNL     1      28.884  17.303  -1.245  0.00  0.00    -0.450 OA
BRANCH   5   6
ATOM      6  C   UNL     1      29.583  16.710  -0.175  0.00  0.00    +0.240 C 
BRANCH   6   7
ATOM      7  C   UNL     1      29.650  15.171  -0.136  0.00  0.00    +0.100 C 
BRANCH   7   9
ATOM      8  N   UNL     1      31.959  14.469  -0.687  0.00  0.00    -0.134 NA
ATOM      9  C   UNL     1      31.001  14.725   0.253  0.00  0.00    +0.087 A 
ATOM     10  C   UNL     1      31.526  14.495   1.503  0.00  0.00    +0.146 A 
ATOM     11  N   UNL     1      32.822  14.087   1.273  0.00  0.00    -0.155 N 
ATOM     12  C   UNL     1      33.790  13.707   2.249  0.00  0.00    +0.416 C 
ATOM     13  N   UNL     1      35.009  13.339   1.833  0.00  0.00    +0.041 NA
ATOM     14  C   UNL     1      35.851  12.984   2.801  0.00  0.00    +0.339 C 
ATOM     15  C   UNL     1      37.225  12.548   2.398  0.00  0.00    +0.149 C 
ATOM     16  N   UNL     1      35.551  12.978   4.100  0.00  0.00    +0.007 NA
ATOM     17  C   UNL     1      34.316  13.346   4.403  0.00  0.00    +0.386 C 
ATOM     18  N   UNL     1      33.962  13.342   5.736  0.00  0.00    -0.296 N 
ATOM     19  H   UNL     1      34.781  13.405   6.324  0.00  0.00    +0.148 HD
ATOM     20  H   UNL     1      33.207  13.988   5.916  0.00  0.00    +0.148 HD
ATOM     21  N   UNL     1      33.404  13.739   3.532  0.00  0.00    -0.290 NA
ATOM     22  N   UNL     1      33.066  14.084  -0.062  0.00  0.00    -0.056 NA
ENDBRANCH   7   9
ENDBRANCH   6   7
ENDBRANCH   5   6
ENDBRANCH   1   5
BRANCH   2  23
ATOM     23  C   UNL     1      26.544  15.607  -2.643  0.00  0.00    +0.152 C 
BRANCH  23  24
ATOM     24  C   UNL     1      25.388  15.553  -3.663  0.00  0.00    +0.193 C 
ATOM     25  O   UNL     1      25.943  15.941  -4.940  0.00  0.00    -0.219 OA
BRANCH  24  26
ATOM     26  C   UNL     1      24.733  14.179  -3.929  0.00  0.00    +0.212 C 
ATOM     27  O   UNL     1      25.721  13.226  -4.353  0.00  0.00    -0.218 OA
BRANCH  26  28
ATOM     28  C   UNL     1      23.975  13.596  -2.676  0.00  0.00    +0.171 C 
ATOM     29  O   UNL     1      24.430  12.296  -2.317  0.00  0.00    -0.343 OA
ATOM     30  C   UNL     1      23.778  11.455  -1.412  0.00  0.00    +0.220 C 
ATOM     31  C   UNL     1      22.283  11.309  -1.745  0.00  0.00    +0.076 C 
ATOM     32  C   UNL     1      21.693  12.725  -1.853  0.00  0.00    +0.177 C 
ATOM     33  O   UNL     1      20.300  12.647  -2.121  0.00  0.00    -0.221 OA
ATOM     34  C   UNL     1      22.438  13.534  -2.960  0.00  0.00    +0.155 C 
BRANCH  34  35
ATOM     35  N   UNL     1      21.876  14.878  -3.071  0.00  0.00    -0.202 NA
ATOM     36  C   UNL     1      21.273  15.482  -4.126  0.00  0.00    +0.242 C 
ATOM     37  C   UNL     1      20.521  16.764  -3.883  0.00  0.00    +0.096 C 
ATOM     38  O   UNL     1      21.353  14.974  -5.243  0.00  0.00    -0.273 OA
ENDBRANCH  34  35
BRANCH  30  39
ATOM     39  C   UNL     1      24.006  11.874   0.141  0.00  0.00    +0.391 C 
ATOM     40  O   UNL     1      25.176  12.541   0.153  0.00  0.00    -0.243 OA
ATOM     41  O   UNL     1      22.833  11.672   0.754  0.00  0.00    -0.243 OA
ENDBRANCH  30  39
ENDBRANCH  26  28
ENDBRANCH  24  26
ENDBRANCH  23  24
ENDBRANCH   2  23
TORSDOF 10
