REMARK VINA RESULT:    -5.612      3.482      9.418
REMARK INTER + INTRA:         -12.135
REMARK INTER:                 -10.186
REMARK INTRA:                  -1.949
REMARK UNBOUND:                -2.422
REMARK  Name = lig_assembled_53.pdb
REMARK  13 active torsions:
REMARK  status: ('A' for Active; 'I' for Inactive)
REMARK    1  A    between atoms: _2  and  _8
REMARK    2  A    between atoms: _4  and  _8
REMARK    3  A    between atoms: _4  and  _9
REMARK    4  A    between atoms: _5  and  _6
REMARK    5  A    between atoms: _5  and  _11
REMARK    6  A    between atoms: _11  and  _13
REMARK    7  A    between atoms: _12  and  _17
REMARK    8  A    between atoms: _13  and  _16
REMARK    9  A    between atoms: _21  and  _31
REMARK   10  A    between atoms: _23  and  _24
REMARK   11  A    between atoms: _25  and  _27
REMARK   12  A    between atoms: _27  and  _29
REMARK   13  A    between atoms: _29  and  _31
REMARK                            x       y       z     vdW  Elec       q    Type
REMARK                         _______ _______ _______ _____ _____    ______ ____
ROOT
ATOM      1  C   UNL     1      26.863  15.447  -2.534  0.00  0.00    +0.152 C 
ENDROOT
BRANCH   1   3
ATOM      2  C   UNL     1      27.947  17.543  -1.164  0.00  0.00    +0.400 C 
ATOM      3  N   UNL     1      27.069  16.668  -1.759  0.00  0.00    -0.278 N 
ATOM      4  H   UNL     1      26.113  17.103  -1.561  0.00  0.00    +0.152 HD
ATOM      5  O   UNL     1      27.507  18.613  -0.750  0.00  0.00    -0.226 OA
BRANCH   2   6
ATOM      6  O   UNL     1      29.169  17.132  -1.069  0.00  0.00    -0.450 OA
BRANCH   6   7
ATOM      7  C   UNL     1      30.153  16.926  -0.082  0.00  0.00    +0.240 C 
BRANCH   7   8
ATOM      8  C   UNL     1      30.738  15.507   0.053  0.00  0.00    +0.100 C 
BRANCH   8  10
ATOM      9  N   UNL     1      28.576  14.637   0.890  0.00  0.00    -0.134 NA
ATOM     10  C   UNL     1      29.939  14.708   0.999  0.00  0.00    +0.086 A 
ATOM     11  C   UNL     1      30.344  13.947   2.072  0.00  0.00    +0.134 A 
ATOM     12  N   UNL     1      29.182  13.493   2.618  0.00  0.00    -0.241 N 
ATOM     13  N   UNL     1      28.123  13.872   1.874  0.00  0.00    -0.065 NA
BRANCH  12  14
ATOM     14  C   UNL     1      28.957  12.581   3.720  0.00  0.00    +0.265 C 
BRANCH  14  15
ATOM     15  C   UNL     1      28.470  11.211   3.333  0.00  0.00    +0.326 C 
ATOM     16  O   UNL     1      28.987  10.142   3.621  0.00  0.00    -0.249 OA
BRANCH  15  17
ATOM     17  O   UNL     1      27.341  11.256   2.574  0.00  0.00    -0.479 OA
ATOM     18  H   UNL     1      27.474  11.215   1.608  0.00  0.00    +0.295 HD
ENDBRANCH  15  17
ENDBRANCH  14  15
ENDBRANCH  12  14
ENDBRANCH   8  10
ENDBRANCH   7   8
ENDBRANCH   6   7
ENDBRANCH   2   6
ENDBRANCH   1   3
BRANCH   1  19
ATOM     19  C   UNL     1      25.795  15.520  -3.645  0.00  0.00    +0.193 C 
ATOM     20  O   UNL     1      26.494  15.808  -4.875  0.00  0.00    -0.219 OA
BRANCH  19  21
ATOM     21  C   UNL     1      24.991  14.236  -3.949  0.00  0.00    +0.212 C 
ATOM     22  O   UNL     1      25.846  13.234  -4.525  0.00  0.00    -0.218 OA
BRANCH  21  23
ATOM     23  C   UNL     1      24.284  13.626  -2.680  0.00  0.00    +0.171 C 
ATOM     24  O   UNL     1      24.810  12.353  -2.318  0.00  0.00    -0.343 OA
ATOM     25  C   UNL     1      24.217  11.487  -1.396  0.00  0.00    +0.220 C 
ATOM     26  C   UNL     1      22.726  11.263  -1.703  0.00  0.00    +0.076 C 
ATOM     27  C   UNL     1      22.063  12.647  -1.812  0.00  0.00    +0.177 C 
ATOM     28  O   UNL     1      20.671  12.496  -2.056  0.00  0.00    -0.221 OA
ATOM     29  C   UNL     1      22.748  13.484  -2.936  0.00  0.00    +0.155 C 
BRANCH  29  30
ATOM     30  N   UNL     1      22.117  14.796  -3.048  0.00  0.00    -0.202 NA
ATOM     31  C   UNL     1      21.466  15.360  -4.098  0.00  0.00    +0.242 C 
ATOM     32  C   UNL     1      20.654  16.605  -3.851  0.00  0.00    +0.096 C 
ATOM     33  O   UNL     1      21.552  14.847  -5.212  0.00  0.00    -0.273 OA
ENDBRANCH  29  30
BRANCH  25  34
ATOM     34  C   UNL     1      24.449  11.930   0.149  0.00  0.00    +0.391 C 
ATOM     35  O   UNL     1      23.427  11.372   0.828  0.00  0.00    -0.243 OA
ATOM     36  O   UNL     1      25.696  12.412   0.213  0.00  0.00    -0.243 OA
ENDBRANCH  25  34
ENDBRANCH  21  23
ENDBRANCH  19  21
ENDBRANCH   1  19
TORSDOF 13
