REMARK VINA RESULT:    -6.201      1.799      3.697
REMARK INTER + INTRA:         -13.229
REMARK INTER:                 -11.906
REMARK INTRA:                  -1.323
REMARK UNBOUND:                -1.953
REMARK  Name = lig_assembled_13.pdb
REMARK  15 active torsions:
REMARK  status: ('A' for Active; 'I' for Inactive)
REMARK    1  A    between atoms: _2  and  _8
REMARK    2  A    between atoms: _4  and  _10
REMARK    3  A    between atoms: _5  and  _6
REMARK    4  A    between atoms: _5  and  _13
REMARK    5  A    between atoms: _8  and  _9
REMARK    6  A    between atoms: _9  and  _11
REMARK    7  A    between atoms: _10  and  _11
REMARK    8  A    between atoms: _13  and  _15
REMARK    9  A    between atoms: _14  and  _19
REMARK   10  A    between atoms: _15  and  _18
REMARK   11  A    between atoms: _23  and  _33
REMARK   12  A    between atoms: _25  and  _26
REMARK   13  A    between atoms: _27  and  _29
REMARK   14  A    between atoms: _29  and  _31
REMARK   15  A    between atoms: _31  and  _33
REMARK                            x       y       z     vdW  Elec       q    Type
REMARK                         _______ _______ _______ _____ _____    ______ ____
ROOT
ATOM      1  C   UNL     1      28.397  14.554   0.586  0.00  0.00    +0.152 C 
ENDROOT
BRANCH   1   3
ATOM      2  C   UNL     1      28.802  17.043  -0.456  0.00  0.00    +0.400 C 
ATOM      3  N   UNL     1      28.861  15.915   0.327  0.00  0.00    -0.278 N 
ATOM      4  H   UNL     1      29.559  16.180   1.091  0.00  0.00    +0.152 HD
ATOM      5  O   UNL     1      29.352  18.062  -0.047  0.00  0.00    -0.226 OA
BRANCH   2   6
ATOM      6  O   UNL     1      28.187  16.909  -1.585  0.00  0.00    -0.450 OA
BRANCH   6   7
ATOM      7  C   UNL     1      27.122  17.495  -2.297  0.00  0.00    +0.240 C 
BRANCH   7   8
ATOM      8  C   UNL     1      27.029  17.200  -3.807  0.00  0.00    +0.100 C 
BRANCH   8  10
ATOM      9  N   UNL     1      25.831  15.636  -5.304  0.00  0.00    -0.134 NA
ATOM     10  C   UNL     1      25.962  16.219  -4.074  0.00  0.00    +0.086 A 
ATOM     11  C   UNL     1      24.977  15.743  -3.242  0.00  0.00    +0.134 A 
ATOM     12  N   UNL     1      24.238  14.924  -4.044  0.00  0.00    -0.241 N 
ATOM     13  N   UNL     1      24.780  14.825  -5.269  0.00  0.00    -0.065 NA
BRANCH  12  14
ATOM     14  C   UNL     1      23.079  14.133  -3.695  0.00  0.00    +0.265 C 
BRANCH  14  15
ATOM     15  C   UNL     1      22.199  14.834  -2.699  0.00  0.00    +0.329 C 
ATOM     16  O   UNL     1      21.926  14.450  -1.572  0.00  0.00    -0.249 OA
BRANCH  15  17
ATOM     17  O   UNL     1      21.652  15.938  -3.293  0.00  0.00    -0.464 OA
BRANCH  17  18
ATOM     18  C   UNL     1      20.751  15.658  -4.376  0.00  0.00    +0.229 C 
ATOM     19  C   UNL     1      19.334  15.852  -3.863  0.00  0.00    +0.048 C 
ENDBRANCH  17  18
ENDBRANCH  15  17
ENDBRANCH  14  15
ENDBRANCH  12  14
ENDBRANCH   8  10
ENDBRANCH   7   8
ENDBRANCH   6   7
ENDBRANCH   2   6
ENDBRANCH   1   3
BRANCH   1  20
ATOM     20  C   UNL     1      28.801  13.945   1.944  0.00  0.00    +0.193 C 
ATOM     21  O   UNL     1      27.620  13.313   2.484  0.00  0.00    -0.219 OA
BRANCH  20  22
ATOM     22  C   UNL     1      29.867  12.827   1.937  0.00  0.00    +0.212 C 
ATOM     23  O   UNL     1      29.410  11.701   1.171  0.00  0.00    -0.218 OA
BRANCH  22  24
ATOM     24  C   UNL     1      31.259  13.295   1.364  0.00  0.00    +0.171 C 
ATOM     25  O   UNL     1      31.362  13.108  -0.044  0.00  0.00    -0.343 OA
ATOM     26  C   UNL     1      32.553  13.207  -0.768  0.00  0.00    +0.220 C 
ATOM     27  C   UNL     1      33.673  12.359  -0.140  0.00  0.00    +0.076 C 
ATOM     28  C   UNL     1      33.780  12.757   1.341  0.00  0.00    +0.177 C 
ATOM     29  O   UNL     1      34.831  12.029   1.961  0.00  0.00    -0.221 OA
ATOM     30  C   UNL     1      32.419  12.513   2.063  0.00  0.00    +0.155 C 
BRANCH  30  31
ATOM     31  N   UNL     1      32.519  12.884   3.473  0.00  0.00    -0.202 NA
ATOM     32  C   UNL     1      32.669  12.097   4.569  0.00  0.00    +0.242 C 
ATOM     33  C   UNL     1      33.041  12.752   5.874  0.00  0.00    +0.096 C 
ATOM     34  O   UNL     1      32.501  10.883   4.472  0.00  0.00    -0.273 OA
ENDBRANCH  30  31
BRANCH  26  35
ATOM     35  C   UNL     1      33.033  14.738  -1.019  0.00  0.00    +0.391 C 
ATOM     36  O   UNL     1      31.943  15.489  -0.770  0.00  0.00    -0.243 OA
ATOM     37  O   UNL     1      34.370  14.702  -1.078  0.00  0.00    -0.243 OA
ENDBRANCH  26  35
ENDBRANCH  22  24
ENDBRANCH  20  22
ENDBRANCH   1  20
TORSDOF 14
