REMARK VINA RESULT:    -6.572      1.531      2.413
REMARK INTER + INTRA:         -13.660
REMARK INTER:                 -12.383
REMARK INTRA:                  -1.277
REMARK UNBOUND:                -2.094
REMARK  Name = lig_assembled_24.pdb
REMARK  14 active torsions:
REMARK  status: ('A' for Active; 'I' for Inactive)
REMARK    1  A    between atoms: _2  and  _8
REMARK    2  A    between atoms: _5  and  _6
REMARK    3  A    between atoms: _5  and  _16
REMARK    4  A    between atoms: _8  and  _9
REMARK    5  A    between atoms: _12  and  _15
REMARK    6  A    between atoms: _13  and  _15
REMARK    7  A    between atoms: _16  and  _18
REMARK    8  A    between atoms: _17  and  _22
REMARK    9  A    between atoms: _18  and  _21
REMARK   10  A    between atoms: _26  and  _36
REMARK   11  A    between atoms: _28  and  _29
REMARK   12  A    between atoms: _30  and  _32
REMARK   13  A    between atoms: _32  and  _34
REMARK   14  A    between atoms: _34  and  _36
REMARK                            x       y       z     vdW  Elec       q    Type
REMARK                         _______ _______ _______ _____ _____    ______ ____
ROOT
ATOM      1  C   UNL     1      27.771  17.436  -1.137  0.00  0.00    +0.400 C 
ATOM      2  N   UNL     1      28.393  16.590  -0.249  0.00  0.00    -0.278 N 
ATOM      3  H   UNL     1      28.614  17.223   0.583  0.00  0.00    +0.152 HD
ATOM      4  O   UNL     1      27.465  18.560  -0.748  0.00  0.00    -0.226 OA
ENDROOT
BRANCH   1   5
ATOM      5  O   UNL     1      27.594  16.966  -2.328  0.00  0.00    -0.450 OA
BRANCH   5   6
ATOM      6  C   UNL     1      26.788  17.200  -3.459  0.00  0.00    +0.240 C 
BRANCH   6   7
ATOM      7  C   UNL     1      26.462  15.994  -4.361  0.00  0.00    +0.100 C 
BRANCH   7   9
ATOM      8  N   UNL     1      24.462  14.681  -4.996  0.00  0.00    -0.134 NA
ATOM      9  C   UNL     1      25.083  15.532  -4.121  0.00  0.00    +0.086 A 
ATOM     10  C   UNL     1      24.228  15.806  -3.077  0.00  0.00    +0.134 A 
ATOM     11  N   UNL     1      23.130  15.039  -3.334  0.00  0.00    -0.247 N 
ATOM     12  N   UNL     1      23.263  14.393  -4.511  0.00  0.00    -0.065 NA
BRANCH  11  13
ATOM     13  C   UNL     1      21.936  14.792  -2.540  0.00  0.00    +0.180 C 
BRANCH  13  14
ATOM     14  C   UNL     1      22.086  13.714  -1.494  0.00  0.00    -0.026 A 
ATOM     15  C   UNL     1      23.334  13.124  -1.253  0.00  0.00    +0.009 A 
ATOM     16  C   UNL     1      23.463  12.128  -0.282  0.00  0.00    +0.046 A 
ATOM     17  C   UNL     1      22.362  11.721   0.473  0.00  0.00    +0.120 A 
ATOM     18  C   UNL     1      21.114  12.285   0.222  0.00  0.00    +0.046 A 
ATOM     19  C   UNL     1      20.975  13.279  -0.755  0.00  0.00    +0.009 A 
BRANCH  17  20
ATOM     20  O   UNL     1      22.607  10.726   1.379  0.00  0.00    -0.495 OA
ATOM     21  C   UNL     1      23.587  11.027   2.367  0.00  0.00    +0.277 C 
ENDBRANCH  17  20
ENDBRANCH  13  14
ENDBRANCH  11  13
ENDBRANCH   7   9
ENDBRANCH   6   7
ENDBRANCH   5   6
ENDBRANCH   1   5
BRANCH   2  22
ATOM     22  C   UNL     1      28.863  15.243   0.065  0.00  0.00    +0.152 C 
BRANCH  22  23
ATOM     23  C   UNL     1      30.370  14.984  -0.138  0.00  0.00    +0.193 C 
ATOM     24  O   UNL     1      30.991  16.274  -0.327  0.00  0.00    -0.219 OA
BRANCH  23  25
ATOM     25  C   UNL     1      31.150  14.348   1.034  0.00  0.00    +0.212 C 
ATOM     26  O   UNL     1      30.284  13.514   1.819  0.00  0.00    -0.218 OA
BRANCH  25  27
ATOM     27  C   UNL     1      32.388  13.491   0.567  0.00  0.00    +0.171 C 
ATOM     28  O   UNL     1      33.582  14.261   0.472  0.00  0.00    -0.343 OA
ATOM     29  C   UNL     1      34.757  13.820  -0.142  0.00  0.00    +0.220 C 
ATOM     30  C   UNL     1      34.490  13.266  -1.552  0.00  0.00    +0.076 C 
ATOM     31  C   UNL     1      33.386  12.204  -1.431  0.00  0.00    +0.177 C 
ATOM     32  O   UNL     1      33.128  11.629  -2.704  0.00  0.00    -0.221 OA
ATOM     33  C   UNL     1      32.096  12.837  -0.822  0.00  0.00    +0.155 C 
BRANCH  33  34
ATOM     34  N   UNL     1      31.041  11.832  -0.712  0.00  0.00    -0.202 NA
ATOM     35  C   UNL     1      29.995  11.577  -1.538  0.00  0.00    +0.242 C 
ATOM     36  C   UNL     1      29.227  10.296  -1.346  0.00  0.00    +0.096 C 
ATOM     37  O   UNL     1      29.702  12.388  -2.415  0.00  0.00    -0.273 OA
ENDBRANCH  33  34
BRANCH  29  38
ATOM     38  C   UNL     1      35.605  12.769   0.762  0.00  0.00    +0.391 C 
ATOM     39  O   UNL     1      36.496  12.221  -0.087  0.00  0.00    -0.243 OA
ATOM     40  O   UNL     1      35.313  13.058   2.036  0.00  0.00    -0.243 OA
ENDBRANCH  29  38
ENDBRANCH  25  27
ENDBRANCH  23  25
ENDBRANCH  22  23
ENDBRANCH   2  22
TORSDOF 13
