REMARK VINA RESULT:    -7.053      3.781      9.692
REMARK INTER + INTRA:         -13.203
REMARK INTER:                 -11.534
REMARK INTRA:                  -1.668
REMARK UNBOUND:                -1.202
REMARK  Name = lig_assembled_38.pdb
REMARK  12 active torsions:
REMARK  status: ('A' for Active; 'I' for Inactive)
REMARK    1  A    between atoms: _2  and  _8
REMARK    2  A    between atoms: _5  and  _6
REMARK    3  A    between atoms: _5  and  _14
REMARK    4  A    between atoms: _8  and  _9
REMARK    5  A    between atoms: _14  and  _16
REMARK    6  A    between atoms: _15  and  _20
REMARK    7  A    between atoms: _16  and  _19
REMARK    8  A    between atoms: _24  and  _34
REMARK    9  A    between atoms: _26  and  _27
REMARK   10  A    between atoms: _28  and  _30
REMARK   11  A    between atoms: _30  and  _32
REMARK   12  A    between atoms: _32  and  _34
REMARK                            x       y       z     vdW  Elec       q    Type
REMARK                         _______ _______ _______ _____ _____    ______ ____
ROOT
ATOM      1  C   UNL     1      28.012  17.721  -0.753  0.00  0.00    +0.400 C 
ATOM      2  N   UNL     1      27.234  17.540  -1.872  0.00  0.00    -0.278 N 
ATOM      3  H   UNL     1      26.243  17.726  -1.517  0.00  0.00    +0.152 HD
ATOM      4  O   UNL     1      27.482  18.193   0.250  0.00  0.00    -0.226 OA
ENDROOT
BRANCH   2   5
ATOM      5  C   UNL     1      27.157  17.230  -3.297  0.00  0.00    +0.152 C 
BRANCH   5   6
ATOM      6  C   UNL     1      26.113  16.171  -3.707  0.00  0.00    +0.193 C 
ATOM      7  O   UNL     1      26.176  16.062  -5.147  0.00  0.00    -0.219 OA
BRANCH   6   8
ATOM      8  C   UNL     1      26.323  14.727  -3.201  0.00  0.00    +0.212 C 
ATOM      9  O   UNL     1      27.051  14.730  -1.963  0.00  0.00    -0.218 OA
BRANCH   8  10
ATOM     10  C   UNL     1      24.975  13.938  -2.991  0.00  0.00    +0.171 C 
ATOM     11  O   UNL     1      24.008  14.688  -2.263  0.00  0.00    -0.343 OA
ATOM     12  C   UNL     1      22.833  14.153  -1.730  0.00  0.00    +0.220 C 
ATOM     13  C   UNL     1      23.109  12.888  -0.898  0.00  0.00    +0.076 C 
ATOM     14  C   UNL     1      23.918  11.922  -1.779  0.00  0.00    +0.177 C 
ATOM     15  O   UNL     1      24.167  10.717  -1.070  0.00  0.00    -0.221 OA
ATOM     16  C   UNL     1      25.250  12.597  -2.234  0.00  0.00    +0.155 C 
BRANCH  16  17
ATOM     17  N   UNL     1      26.025  11.680  -3.066  0.00  0.00    -0.202 NA
ATOM     18  C   UNL     1      27.215  11.077  -2.815  0.00  0.00    +0.242 C 
ATOM     19  C   UNL     1      27.649   9.950  -3.716  0.00  0.00    +0.096 C 
ATOM     20  O   UNL     1      27.902  11.458  -1.870  0.00  0.00    -0.273 OA
ENDBRANCH  16  17
BRANCH  12  21
ATOM     21  C   UNL     1      21.676  13.897  -2.841  0.00  0.00    +0.391 C 
ATOM     22  O   UNL     1      20.735  13.174  -2.202  0.00  0.00    -0.243 OA
ATOM     23  O   UNL     1      21.941  14.734  -3.851  0.00  0.00    -0.243 OA
ENDBRANCH  12  21
ENDBRANCH   8  10
ENDBRANCH   6   8
ENDBRANCH   5   6
ENDBRANCH   2   5
BRANCH   1  24
ATOM     24  O   UNL     1      29.242  17.341  -0.859  0.00  0.00    -0.450 OA
BRANCH  24  25
ATOM     25  C   UNL     1      30.217  16.654  -0.108  0.00  0.00    +0.240 C 
BRANCH  25  26
ATOM     26  C   UNL     1      29.873  15.231   0.371  0.00  0.00    +0.100 C 
BRANCH  26  28
ATOM     27  N   UNL     1      31.573  13.499   0.864  0.00  0.00    -0.134 NA
ATOM     28  C   UNL     1      30.972  14.685   1.192  0.00  0.00    +0.086 A 
ATOM     29  C   UNL     1      31.584  15.208   2.309  0.00  0.00    +0.134 A 
ATOM     30  N   UNL     1      32.587  14.321   2.580  0.00  0.00    -0.247 N 
ATOM     31  N   UNL     1      32.567  13.289   1.716  0.00  0.00    -0.065 NA
BRANCH  30  32
ATOM     32  C   UNL     1      33.717  14.509   3.472  0.00  0.00    +0.180 C 
BRANCH  32  33
ATOM     33  C   UNL     1      33.970  13.330   4.379  0.00  0.00    -0.025 A 
ATOM     34  C   UNL     1      35.030  12.445   4.133  0.00  0.00    +0.005 A 
ATOM     35  C   UNL     1      35.314  11.408   5.026  0.00  0.00    +0.001 A 
ATOM     36  C   UNL     1      34.542  11.242   6.175  0.00  0.00    +0.015 A 
ATOM     37  C   UNL     1      33.481  12.109   6.421  0.00  0.00    +0.018 A 
ATOM     38 BR   UNL     1      32.436  11.896   7.983  0.00  0.00    -0.050 Br
ATOM     39  C   UNL     1      33.192  13.148   5.534  0.00  0.00    +0.020 A 
ENDBRANCH  32  33
ENDBRANCH  30  32
ENDBRANCH  26  28
ENDBRANCH  25  26
ENDBRANCH  24  25
ENDBRANCH   1  24
TORSDOF 12
