REMARK VINA RESULT:    -6.751      1.722      3.396
REMARK INTER + INTRA:         -14.392
REMARK INTER:                 -12.894
REMARK INTRA:                  -1.497
REMARK UNBOUND:                -2.115
REMARK  Name = lig_assembled_26.pdb
REMARK  15 active torsions:
REMARK  status: ('A' for Active; 'I' for Inactive)
REMARK    1  A    between atoms: _2  and  _8
REMARK    2  A    between atoms: _5  and  _6
REMARK    3  A    between atoms: _5  and  _18
REMARK    4  A    between atoms: _8  and  _9
REMARK    5  A    between atoms: _8  and  _10
REMARK    6  A    between atoms: _10  and  _11
REMARK    7  A    between atoms: _11  and  _12
REMARK    8  A    between atoms: _18  and  _20
REMARK    9  A    between atoms: _19  and  _24
REMARK   10  A    between atoms: _20  and  _23
REMARK   11  A    between atoms: _28  and  _38
REMARK   12  A    between atoms: _30  and  _31
REMARK   13  A    between atoms: _32  and  _34
REMARK   14  A    between atoms: _34  and  _36
REMARK   15  A    between atoms: _36  and  _38
REMARK                            x       y       z     vdW  Elec       q    Type
REMARK                         _______ _______ _______ _____ _____    ______ ____
ROOT
ATOM      1  C   UNL     1      28.265  16.660  -0.856  0.00  0.00    +0.400 C 
ATOM      2  N   UNL     1      28.556  15.751   0.133  0.00  0.00    -0.278 N 
ATOM      3  H   UNL     1      29.181  16.304   0.801  0.00  0.00    +0.152 HD
ATOM      4  O   UNL     1      28.588  17.832  -0.679  0.00  0.00    -0.226 OA
ENDROOT
BRANCH   2   5
ATOM      5  C   UNL     1      28.387  14.405   0.675  0.00  0.00    +0.152 C 
BRANCH   5   6
ATOM      6  C   UNL     1      28.997  14.152   2.069  0.00  0.00    +0.193 C 
ATOM      7  O   UNL     1      27.939  13.618   2.895  0.00  0.00    -0.219 OA
BRANCH   6   8
ATOM      8  C   UNL     1      30.132  13.110   2.175  0.00  0.00    +0.212 C 
ATOM      9  O   UNL     1      29.706  11.848   1.635  0.00  0.00    -0.218 OA
BRANCH   8  10
ATOM     10  C   UNL     1      31.455  13.552   1.442  0.00  0.00    +0.171 C 
ATOM     11  O   UNL     1      31.418  13.294   0.042  0.00  0.00    -0.343 OA
ATOM     12  C   UNL     1      32.530  13.359  -0.801  0.00  0.00    +0.220 C 
ATOM     13  C   UNL     1      33.714  12.547  -0.247  0.00  0.00    +0.076 C 
ATOM     14  C   UNL     1      33.966  13.020   1.194  0.00  0.00    +0.177 C 
ATOM     15  O   UNL     1      35.079  12.327   1.740  0.00  0.00    -0.221 OA
ATOM     16  C   UNL     1      32.685  12.810   2.060  0.00  0.00    +0.155 C 
BRANCH  16  17
ATOM     17  N   UNL     1      32.923  13.252   3.432  0.00  0.00    -0.202 NA
ATOM     18  C   UNL     1      32.926  12.537   4.586  0.00  0.00    +0.242 C 
ATOM     19  C   UNL     1      33.490  13.182   5.825  0.00  0.00    +0.096 C 
ATOM     20  O   UNL     1      32.474  11.394   4.593  0.00  0.00    -0.273 OA
ENDBRANCH  16  17
BRANCH  12  21
ATOM     21  C   UNL     1      32.971  14.877  -1.176  0.00  0.00    +0.391 C 
ATOM     22  O   UNL     1      31.950  15.649  -0.754  0.00  0.00    -0.243 OA
ATOM     23  O   UNL     1      34.274  14.821  -1.475  0.00  0.00    -0.243 OA
ENDBRANCH  12  21
ENDBRANCH   8  10
ENDBRANCH   6   8
ENDBRANCH   5   6
ENDBRANCH   2   5
BRANCH   1  24
ATOM     24  O   UNL     1      27.696  16.176  -1.911  0.00  0.00    -0.450 OA
BRANCH  24  25
ATOM     25  C   UNL     1      26.446  16.210  -2.561  0.00  0.00    +0.240 C 
BRANCH  25  26
ATOM     26  C   UNL     1      26.108  15.046  -3.512  0.00  0.00    +0.100 C 
BRANCH  26  28
ATOM     27  N   UNL     1      24.116  14.277  -4.776  0.00  0.00    -0.134 NA
ATOM     28  C   UNL     1      24.651  14.952  -3.711  0.00  0.00    +0.086 A 
ATOM     29  C   UNL     1      23.632  15.466  -2.945  0.00  0.00    +0.134 A 
ATOM     30  N   UNL     1      22.498  15.096  -3.605  0.00  0.00    -0.248 N 
ATOM     31  N   UNL     1      22.794  14.355  -4.692  0.00  0.00    -0.065 NA
BRANCH  30  32
ATOM     32  C   UNL     1      21.105  15.327  -3.252  0.00  0.00    +0.113 C 
ATOM     33  C   UNL     1      20.112  15.078  -4.396  0.00  0.00    +0.033 C 
BRANCH  32  34
ATOM     34  C   UNL     1      20.688  14.593  -1.965  0.00  0.00    +0.106 C 
BRANCH  34  35
ATOM     35  C   UNL     1      20.987  13.105  -1.978  0.00  0.00    +0.165 C 
ATOM     36  O   UNL     1      20.606  12.366  -2.884  0.00  0.00    -0.292 OA
BRANCH  35  37
ATOM     37  C   UNL     1      21.733  12.511  -0.830  0.00  0.00    +0.017 A 
ATOM     38  C   UNL     1      21.098  12.096   0.347  0.00  0.00    +0.011 A 
ATOM     39  C   UNL     1      21.841  11.508   1.374  0.00  0.00    +0.001 A 
ATOM     40  C   UNL     1      23.218  11.338   1.235  0.00  0.00    +0.000 A 
ATOM     41  C   UNL     1      23.859  11.759   0.073  0.00  0.00    +0.001 A 
ATOM     42  C   UNL     1      23.121  12.344  -0.957  0.00  0.00    +0.011 A 
ENDBRANCH  35  37
ENDBRANCH  34  35
ENDBRANCH  32  34
ENDBRANCH  30  32
ENDBRANCH  26  28
ENDBRANCH  25  26
ENDBRANCH  24  25
ENDBRANCH   1  24
TORSDOF 14
