REMARK VINA RESULT:    -6.194      1.971      3.539
REMARK INTER + INTRA:         -12.176
REMARK INTER:                 -10.451
REMARK INTRA:                  -1.725
REMARK UNBOUND:                -1.999
REMARK  Name = lig_assembled_57.pdb
REMARK  12 active torsions:
REMARK  status: ('A' for Active; 'I' for Inactive)
REMARK    1  A    between atoms: _2  and  _9
REMARK    2  A    between atoms: _3  and  _12
REMARK    3  A    between atoms: _6  and  _7
REMARK    4  A    between atoms: _6  and  _14
REMARK    5  A    between atoms: _14  and  _16
REMARK    6  A    between atoms: _15  and  _20
REMARK    7  A    between atoms: _16  and  _19
REMARK    8  A    between atoms: _24  and  _34
REMARK    9  A    between atoms: _26  and  _27
REMARK   10  A    between atoms: _28  and  _30
REMARK   11  A    between atoms: _30  and  _32
REMARK   12  A    between atoms: _32  and  _34
REMARK                            x       y       z     vdW  Elec       q    Type
REMARK                         _______ _______ _______ _____ _____    ______ ____
ROOT
ATOM      1  C   UNL     1      27.824  17.597  -1.385  0.00  0.00    +0.400 C 
ATOM      2  N   UNL     1      26.864  16.708  -1.807  0.00  0.00    -0.278 N 
ATOM      3  H   UNL     1      25.959  17.273  -1.745  0.00  0.00    +0.152 HD
ATOM      4  O   UNL     1      27.499  18.771  -1.231  0.00  0.00    -0.226 OA
ENDROOT
BRANCH   1   5
ATOM      5  O   UNL     1      28.992  17.092  -1.156  0.00  0.00    -0.450 OA
BRANCH   5   6
ATOM      6  C   UNL     1      29.979  17.095  -0.151  0.00  0.00    +0.240 C 
BRANCH   6   7
ATOM      7  C   UNL     1      30.660  15.753   0.180  0.00  0.00    +0.100 C 
BRANCH   7   9
ATOM      8  N   UNL     1      29.548  13.750  -0.742  0.00  0.00    -0.134 NA
ATOM      9  C   UNL     1      29.652  14.681   0.253  0.00  0.00    +0.086 A 
ATOM     10  C   UNL     1      28.723  14.400   1.232  0.00  0.00    +0.134 A 
ATOM     11  N   UNL     1      28.145  13.236   0.820  0.00  0.00    -0.248 N 
ATOM     12  N   UNL     1      28.598  12.893  -0.404  0.00  0.00    -0.065 NA
BRANCH  11  13
ATOM     13  C   UNL     1      27.222  12.333   1.497  0.00  0.00    +0.111 C 
ATOM     14  C   UNL     1      27.658  10.872   1.314  0.00  0.00    +0.042 C 
ATOM     15  C   UNL     1      28.871  10.562   2.187  0.00  0.00    +0.086 C 
ATOM     16  N   UNL     1      28.621  10.787   3.615  0.00  0.00    -0.305 NA
ATOM     17  C   UNL     1      28.129  12.137   3.892  0.00  0.00    +0.086 C 
ATOM     18  C   UNL     1      27.785   9.746   4.203  0.00  0.00    +0.104 C 
ATOM     19  C   UNL     1      26.977  12.605   2.990  0.00  0.00    +0.042 C 
ENDBRANCH  11  13
ENDBRANCH   7   9
ENDBRANCH   6   7
ENDBRANCH   5   6
ENDBRANCH   1   5
BRANCH   2  20
ATOM     20  C   UNL     1      26.536  15.375  -2.306  0.00  0.00    +0.152 C 
BRANCH  20  21
ATOM     21  C   UNL     1      25.073  15.154  -2.743  0.00  0.00    +0.193 C 
ATOM     22  O   UNL     1      24.881  15.921  -3.952  0.00  0.00    -0.219 OA
BRANCH  21  23
ATOM     23  C   UNL     1      24.650  13.719  -3.126  0.00  0.00    +0.212 C 
ATOM     24  O   UNL     1      25.791  12.845  -3.135  0.00  0.00    -0.218 OA
BRANCH  23  25
ATOM     25  C   UNL     1      23.558  13.112  -2.165  0.00  0.00    +0.171 C 
ATOM     26  O   UNL     1      23.823  11.756  -1.821  0.00  0.00    -0.343 OA
ATOM     27  C   UNL     1      22.908  10.909  -1.191  0.00  0.00    +0.220 C 
ATOM     28  C   UNL     1      21.545  10.912  -1.905  0.00  0.00    +0.076 C 
ATOM     29  C   UNL     1      21.091  12.376  -2.031  0.00  0.00    +0.177 C 
ATOM     30  O   UNL     1      19.814  12.432  -2.650  0.00  0.00    -0.221 OA
ATOM     31  C   UNL     1      22.147  13.198  -2.834  0.00  0.00    +0.155 C 
BRANCH  31  32
ATOM     32  N   UNL     1      21.716  14.588  -2.962  0.00  0.00    -0.202 NA
ATOM     33  C   UNL     1      21.432  15.309  -4.076  0.00  0.00    +0.242 C 
ATOM     34  C   UNL     1      20.727  16.630  -3.913  0.00  0.00    +0.096 C 
ATOM     35  O   UNL     1      21.752  14.872  -5.180  0.00  0.00    -0.273 OA
ENDBRANCH  31  32
BRANCH  27  36
ATOM     36  C   UNL     1      22.750  11.196   0.400  0.00  0.00    +0.391 C 
ATOM     37  O   UNL     1      23.956  11.650   0.793  0.00  0.00    -0.243 OA
ATOM     38  O   UNL     1      21.435  11.166   0.652  0.00  0.00    -0.243 OA
ENDBRANCH  27  36
ENDBRANCH  23  25
ENDBRANCH  21  23
ENDBRANCH  20  21
ENDBRANCH   2  20
TORSDOF 11
