REMARK VINA RESULT:    -7.673      1.993      2.630
REMARK INTER + INTRA:         -14.276
REMARK INTER:                 -12.282
REMARK INTRA:                  -1.994
REMARK UNBOUND:                -1.669
REMARK  Name = lig_assembled_70.pdb
REMARK  11 active torsions:
REMARK  status: ('A' for Active; 'I' for Inactive)
REMARK    1  A    between atoms: _2  and  _9
REMARK    2  A    between atoms: _6  and  _7
REMARK    3  A    between atoms: _6  and  _17
REMARK    4  A    between atoms: _17  and  _19
REMARK    5  A    between atoms: _18  and  _23
REMARK    6  A    between atoms: _19  and  _22
REMARK    7  A    between atoms: _27  and  _37
REMARK    8  A    between atoms: _29  and  _30
REMARK    9  A    between atoms: _31  and  _33
REMARK   10  A    between atoms: _33  and  _35
REMARK   11  A    between atoms: _35  and  _37
REMARK                            x       y       z     vdW  Elec       q    Type
REMARK                         _______ _______ _______ _____ _____    ______ ____
ROOT
ATOM      1  C   UNL     1      27.852  17.500  -0.939  0.00  0.00    +0.400 C 
ATOM      2  N   UNL     1      28.505  16.491  -0.271  0.00  0.00    -0.278 N 
ATOM      3  H   UNL     1      28.665  16.902   0.702  0.00  0.00    +0.152 HD
ATOM      4  O   UNL     1      27.465  18.468  -0.290  0.00  0.00    -0.226 OA
ENDROOT
BRANCH   1   5
ATOM      5  O   UNL     1      27.734  17.341  -2.216  0.00  0.00    -0.450 OA
BRANCH   5   6
ATOM      6  C   UNL     1      26.750  17.442  -3.219  0.00  0.00    +0.240 C 
BRANCH   6   7
ATOM      7  C   UNL     1      26.660  16.297  -4.246  0.00  0.00    +0.100 C 
BRANCH   7   9
ATOM      8  N   UNL     1      25.865  13.950  -4.327  0.00  0.00    -0.134 NA
ATOM      9  C   UNL     1      25.935  15.147  -3.674  0.00  0.00    +0.086 A 
ATOM     10  C   UNL     1      25.251  15.048  -2.485  0.00  0.00    +0.140 A 
ATOM     11  N   UNL     1      24.785  13.755  -2.448  0.00  0.00    -0.218 N 
ATOM     12  N   UNL     1      25.158  13.112  -3.578  0.00  0.00    -0.060 NA
BRANCH  11  13
ATOM     13  C   UNL     1      24.054  13.118  -1.424  0.00  0.00    +0.086 A 
ATOM     14  C   UNL     1      22.668  13.121  -1.444  0.00  0.00    +0.139 A 
ATOM     15  N   UNL     1      21.901  12.490  -0.517  0.00  0.00    -0.253 NA
ATOM     16  C   UNL     1      22.521  11.817   0.471  0.00  0.00    +0.071 A 
ATOM     17  C   UNL     1      23.926  11.773   0.580  0.00  0.00    +0.002 A 
ATOM     18  C   UNL     1      24.537  11.060   1.627  0.00  0.00    +0.010 A 
ATOM     19  C   UNL     1      23.761  10.371   2.555  0.00  0.00    +0.001 A 
ATOM     20  C   UNL     1      22.376  10.403   2.447  0.00  0.00    +0.002 A 
ATOM     21  C   UNL     1      21.772  11.129   1.415  0.00  0.00    +0.028 A 
ATOM     22  C   UNL     1      24.690  12.445  -0.382  0.00  0.00    +0.039 A 
ENDBRANCH  11  13
ENDBRANCH   7   9
ENDBRANCH   6   7
ENDBRANCH   5   6
ENDBRANCH   1   5
BRANCH   2  23
ATOM     23  C   UNL     1      29.053  15.137  -0.290  0.00  0.00    +0.152 C 
BRANCH  23  24
ATOM     24  C   UNL     1      30.588  15.023  -0.189  0.00  0.00    +0.193 C 
ATOM     25  O   UNL     1      31.106  16.372  -0.200  0.00  0.00    -0.219 OA
BRANCH  24  26
ATOM     26  C   UNL     1      31.175  14.395   1.094  0.00  0.00    +0.212 C 
ATOM     27  O   UNL     1      31.377  15.402   2.099  0.00  0.00    -0.218 OA
BRANCH  26  28
ATOM     28  C   UNL     1      30.274  13.253   1.699  0.00  0.00    +0.171 C 
ATOM     29  O   UNL     1      30.071  13.400   3.101  0.00  0.00    -0.343 OA
ATOM     30  C   UNL     1      29.525  12.414   3.926  0.00  0.00    +0.220 C 
ATOM     31  C   UNL     1      30.225  11.057   3.734  0.00  0.00    +0.076 C 
ATOM     32  C   UNL     1      30.199  10.732   2.231  0.00  0.00    +0.177 C 
ATOM     33  O   UNL     1      30.799   9.465   2.002  0.00  0.00    -0.221 OA
ATOM     34  C   UNL     1      30.920  11.856   1.425  0.00  0.00    +0.155 C 
BRANCH  34  35
ATOM     35  N   UNL     1      30.903  11.547  -0.003  0.00  0.00    -0.202 NA
ATOM     36  C   UNL     1      31.935  11.427  -0.877  0.00  0.00    +0.242 C 
ATOM     37  C   UNL     1      31.662  10.812  -2.225  0.00  0.00    +0.096 C 
ATOM     38  O   UNL     1      33.055  11.816  -0.553  0.00  0.00    -0.273 OA
ENDBRANCH  34  35
BRANCH  30  39
ATOM     39  C   UNL     1      27.912  12.277   3.791  0.00  0.00    +0.391 C 
ATOM     40  O   UNL     1      27.632  11.029   4.214  0.00  0.00    -0.243 OA
ATOM     41  O   UNL     1      27.450  13.520   3.607  0.00  0.00    -0.243 OA
ENDBRANCH  30  39
ENDBRANCH  26  28
ENDBRANCH  24  26
ENDBRANCH  23  24
ENDBRANCH   2  23
TORSDOF 11
