REMARK VINA RESULT:    -6.730      2.017      3.008
REMARK INTER + INTRA:         -13.306
REMARK INTER:                 -11.313
REMARK INTRA:                  -1.993
REMARK UNBOUND:                -1.658
REMARK  Name = lig_assembled_60.pdb
REMARK  13 active torsions:
REMARK  status: ('A' for Active; 'I' for Inactive)
REMARK    1  A    between atoms: _2  and  _9
REMARK    2  A    between atoms: _3  and  _44
REMARK    3  A    between atoms: _6  and  _7
REMARK    4  A    between atoms: _6  and  _16
REMARK    5  A    between atoms: _12  and  _44
REMARK    6  A    between atoms: _16  and  _18
REMARK    7  A    between atoms: _17  and  _22
REMARK    8  A    between atoms: _18  and  _21
REMARK    9  A    between atoms: _26  and  _36
REMARK   10  A    between atoms: _28  and  _29
REMARK   11  A    between atoms: _30  and  _32
REMARK   12  A    between atoms: _32  and  _34
REMARK   13  A    between atoms: _34  and  _36
REMARK                            x       y       z     vdW  Elec       q    Type
REMARK                         _______ _______ _______ _____ _____    ______ ____
ROOT
ATOM      1  C   UNL     1      28.266  17.145  -0.971  0.00  0.00    +0.400 C 
ATOM      2  N   UNL     1      28.568  16.020  -0.241  0.00  0.00    -0.278 N 
ATOM      3  H   UNL     1      29.446  16.303   0.298  0.00  0.00    +0.152 HD
ATOM      4  O   UNL     1      28.885  18.178  -0.727  0.00  0.00    -0.226 OA
ENDROOT
BRANCH   2   5
ATOM      5  C   UNL     1      28.227  14.649   0.130  0.00  0.00    +0.152 C 
BRANCH   5   6
ATOM      6  C   UNL     1      29.407  13.664   0.250  0.00  0.00    +0.193 C 
ATOM      7  O   UNL     1      28.953  12.570   1.077  0.00  0.00    -0.219 OA
BRANCH   6   8
ATOM      8  C   UNL     1      29.908  12.987  -1.044  0.00  0.00    +0.212 C 
ATOM      9  O   UNL     1      29.317  13.609  -2.197  0.00  0.00    -0.218 OA
BRANCH   8  10
ATOM     10  C   UNL     1      31.476  13.023  -1.201  0.00  0.00    +0.171 C 
ATOM     11  O   UNL     1      32.017  14.325  -1.002  0.00  0.00    -0.343 OA
ATOM     12  C   UNL     1      33.328  14.690  -1.316  0.00  0.00    +0.220 C 
ATOM     13  C   UNL     1      33.706  14.284  -2.751  0.00  0.00    +0.076 C 
ATOM     14  C   UNL     1      33.396  12.786  -2.905  0.00  0.00    +0.177 C 
ATOM     15  O   UNL     1      33.765  12.349  -4.206  0.00  0.00    -0.221 OA
ATOM     16  C   UNL     1      31.885  12.517  -2.624  0.00  0.00    +0.155 C 
BRANCH  16  17
ATOM     17  N   UNL     1      31.586  11.095  -2.776  0.00  0.00    -0.202 NA
ATOM     18  C   UNL     1      30.851  10.460  -3.723  0.00  0.00    +0.242 C 
ATOM     19  C   UNL     1      30.946   8.959  -3.815  0.00  0.00    +0.096 C 
ATOM     20  O   UNL     1      30.133  11.115  -4.476  0.00  0.00    -0.273 OA
ENDBRANCH  16  17
BRANCH  12  21
ATOM     21  C   UNL     1      34.423  14.160  -0.239  0.00  0.00    +0.391 C 
ATOM     22  O   UNL     1      33.705  13.826   0.851  0.00  0.00    -0.243 OA
ATOM     23  O   UNL     1      35.557  13.972  -0.925  0.00  0.00    -0.243 OA
ENDBRANCH  12  21
ENDBRANCH   8  10
ENDBRANCH   6   8
ENDBRANCH   5   6
ENDBRANCH   2   5
BRANCH   1  24
ATOM     24  O   UNL     1      27.362  16.995  -1.883  0.00  0.00    -0.450 OA
BRANCH  24  25
ATOM     25  C   UNL     1      27.090  17.420  -3.199  0.00  0.00    +0.240 C 
BRANCH  25  26
ATOM     26  C   UNL     1      26.021  16.644  -3.990  0.00  0.00    +0.100 C 
BRANCH  26  28
ATOM     27  N   UNL     1      26.495  14.229  -3.710  0.00  0.00    -0.134 NA
ATOM     28  C   UNL     1      25.770  15.333  -3.362  0.00  0.00    +0.086 A 
ATOM     29  C   UNL     1      24.861  14.986  -2.391  0.00  0.00    +0.139 A 
ATOM     30  N   UNL     1      25.095  13.652  -2.145  0.00  0.00    -0.220 N 
ATOM     31  N   UNL     1      26.072  13.210  -2.973  0.00  0.00    -0.061 NA
BRANCH  30  32
ATOM     32  C   UNL     1      24.491  12.812  -1.173  0.00  0.00    +0.067 A 
ATOM     33  C   UNL     1      23.105  12.851  -0.957  0.00  0.00    +0.030 A 
ATOM     34  C   UNL     1      22.531  12.071   0.049  0.00  0.00    +0.030 A 
ATOM     35  C   UNL     1      23.339  11.241   0.830  0.00  0.00    +0.105 A 
ATOM     36  C   UNL     1      24.719  11.181   0.613  0.00  0.00    +0.030 A 
ATOM     37  C   UNL     1      25.293  11.961  -0.394  0.00  0.00    +0.030 A 
BRANCH  35  38
ATOM     38  S   UNL     1      22.611  10.318   2.152  0.00  0.00    +0.056 S 
ATOM     39  O   UNL     1      21.767   9.284   1.605  0.00  0.00    -0.153 OA
ATOM     40  O   UNL     1      23.621  10.050   3.151  0.00  0.00    -0.153 OA
BRANCH  38  41
ATOM     41  N   UNL     1      21.578  11.452   2.832  0.00  0.00    -0.204 NA
ATOM     42  H   UNL     1      20.610  11.173   2.679  0.00  0.00    +0.144 HD
ATOM     43  H   UNL     1      21.802  12.381   2.470  0.00  0.00    +0.144 HD
ENDBRANCH  38  41
ENDBRANCH  35  38
ENDBRANCH  30  32
ENDBRANCH  26  28
ENDBRANCH  25  26
ENDBRANCH  24  25
ENDBRANCH   1  24
TORSDOF 13
