REMARK VINA RESULT:    -6.829      2.145      2.520
REMARK INTER + INTRA:         -13.008
REMARK INTER:                 -11.603
REMARK INTRA:                  -1.405
REMARK UNBOUND:                -1.188
REMARK  Name = lig_assembled_35.pdb
REMARK  14 active torsions:
REMARK  status: ('A' for Active; 'I' for Inactive)
REMARK    1  A    between atoms: _2  and  _8
REMARK    2  A    between atoms: _4  and  _8
REMARK    3  A    between atoms: _4  and  _10
REMARK    4  A    between atoms: _5  and  _6
REMARK    5  A    between atoms: _5  and  _12
REMARK    6  A    between atoms: _8  and  _9
REMARK    7  A    between atoms: _12  and  _14
REMARK    8  A    between atoms: _13  and  _18
REMARK    9  A    between atoms: _14  and  _17
REMARK   10  A    between atoms: _22  and  _32
REMARK   11  A    between atoms: _24  and  _25
REMARK   12  A    between atoms: _26  and  _28
REMARK   13  A    between atoms: _28  and  _30
REMARK   14  A    between atoms: _30  and  _32
REMARK                            x       y       z     vdW  Elec       q    Type
REMARK                         _______ _______ _______ _____ _____    ______ ____
ROOT
ATOM      1  C   UNL     1      28.709  14.537   0.552  0.00  0.00    +0.152 C 
ENDROOT
BRANCH   1   3
ATOM      2  C   UNL     1      28.263  17.013  -0.503  0.00  0.00    +0.400 C 
ATOM      3  N   UNL     1      28.616  15.977   0.329  0.00  0.00    -0.278 N 
ATOM      4  H   UNL     1      28.971  16.474   1.206  0.00  0.00    +0.152 HD
ATOM      5  O   UNL     1      28.249  18.150  -0.038  0.00  0.00    -0.226 OA
BRANCH   2   6
ATOM      6  O   UNL     1      28.004  16.686  -1.726  0.00  0.00    -0.450 OA
BRANCH   6   7
ATOM      7  C   UNL     1      27.101  15.881  -2.448  0.00  0.00    +0.240 C 
BRANCH   7   8
ATOM      8  C   UNL     1      26.137  16.589  -3.419  0.00  0.00    +0.100 C 
BRANCH   8  10
ATOM      9  N   UNL     1      24.936  14.699  -4.474  0.00  0.00    -0.134 NA
ATOM     10  C   UNL     1      24.925  15.773  -3.622  0.00  0.00    +0.086 A 
ATOM     11  C   UNL     1      23.669  15.896  -3.072  0.00  0.00    +0.134 A 
ATOM     12  N   UNL     1      22.966  14.862  -3.616  0.00  0.00    -0.238 N 
ATOM     13  N   UNL     1      23.726  14.160  -4.474  0.00  0.00    -0.065 NA
BRANCH  12  14
ATOM     14  C   UNL     1      21.582  14.476  -3.418  0.00  0.00    +0.214 C 
ATOM     15  C   UNL     1      21.271  14.302  -1.934  0.00  0.00    +0.045 C 
BRANCH  14  16
ATOM     16  C   UNL     1      20.634  15.448  -4.090  0.00  0.00    +0.329 C 
ATOM     17  O   UNL     1      19.589  15.848  -3.595  0.00  0.00    -0.249 OA
BRANCH  16  18
ATOM     18  O   UNL     1      21.018  15.838  -5.331  0.00  0.00    -0.479 OA
ATOM     19  H   UNL     1      21.313  16.768  -5.412  0.00  0.00    +0.295 HD
ENDBRANCH  16  18
ENDBRANCH  14  16
ENDBRANCH  12  14
ENDBRANCH   8  10
ENDBRANCH   7   8
ENDBRANCH   6   7
ENDBRANCH   2   6
ENDBRANCH   1   3
BRANCH   1  20
ATOM     20  C   UNL     1      30.134  13.958   0.672  0.00  0.00    +0.193 C 
ATOM     21  O   UNL     1      29.993  12.523   0.766  0.00  0.00    -0.219 OA
BRANCH  20  22
ATOM     22  C   UNL     1      31.096  14.174  -0.517  0.00  0.00    +0.212 C 
ATOM     23  O   UNL     1      31.404  15.569  -0.667  0.00  0.00    -0.218 OA
BRANCH  22  24
ATOM     24  C   UNL     1      32.447  13.372  -0.380  0.00  0.00    +0.171 C 
ATOM     25  O   UNL     1      33.278  13.872   0.662  0.00  0.00    -0.343 OA
ATOM     26  C   UNL     1      34.616  13.515   0.844  0.00  0.00    +0.220 C 
ATOM     27  C   UNL     1      35.426  13.658  -0.456  0.00  0.00    +0.076 C 
ATOM     28  C   UNL     1      34.688  12.869  -1.551  0.00  0.00    +0.177 C 
ATOM     29  O   UNL     1      35.418  12.936  -2.767  0.00  0.00    -0.221 OA
ATOM     30  C   UNL     1      33.240  13.422  -1.727  0.00  0.00    +0.155 C 
BRANCH  30  31
ATOM     31  N   UNL     1      32.537  12.680  -2.771  0.00  0.00    -0.202 NA
ATOM     32  C   UNL     1      32.494  12.897  -4.110  0.00  0.00    +0.242 C 
ATOM     33  C   UNL     1      31.936  11.811  -4.993  0.00  0.00    +0.096 C 
ATOM     34  O   UNL     1      32.906  13.962  -4.567  0.00  0.00    -0.273 OA
ENDBRANCH  30  31
BRANCH  26  35
ATOM     35  C   UNL     1      34.808  12.045   1.508  0.00  0.00    +0.391 C 
ATOM     36  O   UNL     1      36.140  11.898   1.648  0.00  0.00    -0.243 OA
ATOM     37  O   UNL     1      33.596  11.671   1.937  0.00  0.00    -0.243 OA
ENDBRANCH  26  35
ENDBRANCH  22  24
ENDBRANCH  20  22
ENDBRANCH   1  20
TORSDOF 13
