REMARK VINA RESULT:    -5.967      2.947      9.887
REMARK INTER + INTRA:         -13.136
REMARK INTER:                 -11.807
REMARK INTRA:                  -1.329
REMARK UNBOUND:                -2.286
REMARK  Name = lig_assembled_62.pdb
REMARK  15 active torsions:
REMARK  status: ('A' for Active; 'I' for Inactive)
REMARK    1  A    between atoms: _2  and  _9
REMARK    2  A    between atoms: _5  and  _9
REMARK    3  A    between atoms: _6  and  _7
REMARK    4  A    between atoms: _6  and  _14
REMARK    5  A    between atoms: _9  and  _10
REMARK    6  A    between atoms: _10  and  _13
REMARK    7  A    between atoms: _11  and  _13
REMARK    8  A    between atoms: _14  and  _16
REMARK    9  A    between atoms: _15  and  _20
REMARK   10  A    between atoms: _16  and  _19
REMARK   11  A    between atoms: _24  and  _34
REMARK   12  A    between atoms: _26  and  _27
REMARK   13  A    between atoms: _28  and  _30
REMARK   14  A    between atoms: _30  and  _32
REMARK   15  A    between atoms: _32  and  _34
REMARK                            x       y       z     vdW  Elec       q    Type
REMARK                         _______ _______ _______ _____ _____    ______ ____
ROOT
ATOM      1  C   UNL     1      25.936  15.775  -4.784  0.00  0.00    +0.400 C 
ATOM      2  N   UNL     1      24.732  15.117  -4.695  0.00  0.00    -0.278 N 
ATOM      3  H   UNL     1      24.716  14.511  -5.576  0.00  0.00    +0.152 HD
ATOM      4  O   UNL     1      26.728  15.420  -5.653  0.00  0.00    -0.226 OA
ENDROOT
BRANCH   2   5
ATOM      5  C   UNL     1      23.501  14.869  -3.949  0.00  0.00    +0.152 C 
BRANCH   5   6
ATOM      6  C   UNL     1      23.618  13.911  -2.745  0.00  0.00    +0.193 C 
ATOM      7  O   UNL     1      24.913  14.147  -2.150  0.00  0.00    -0.219 OA
BRANCH   6   8
ATOM      8  C   UNL     1      22.619  14.100  -1.582  0.00  0.00    +0.212 C 
ATOM      9  O   UNL     1      21.457  14.817  -2.029  0.00  0.00    -0.218 OA
BRANCH   8  10
ATOM     10  C   UNL     1      22.153  12.741  -0.933  0.00  0.00    +0.171 C 
ATOM     11  O   UNL     1      23.080  12.247   0.028  0.00  0.00    -0.343 OA
ATOM     12  C   UNL     1      23.041  10.961   0.572  0.00  0.00    +0.220 C 
ATOM     13  C   UNL     1      22.941   9.882  -0.521  0.00  0.00    +0.076 C 
ATOM     14  C   UNL     1      21.745  10.242  -1.418  0.00  0.00    +0.177 C 
ATOM     15  O   UNL     1      21.583   9.253  -2.424  0.00  0.00    -0.221 OA
ATOM     16  C   UNL     1      21.948  11.658  -2.042  0.00  0.00    +0.155 C 
BRANCH  16  17
ATOM     17  N   UNL     1      20.817  12.001  -2.900  0.00  0.00    -0.202 NA
ATOM     18  C   UNL     1      20.716  11.977  -4.253  0.00  0.00    +0.242 C 
ATOM     19  C   UNL     1      19.347  12.095  -4.871  0.00  0.00    +0.096 C 
ATOM     20  O   UNL     1      21.732  11.860  -4.937  0.00  0.00    -0.273 OA
ENDBRANCH  16  17
BRANCH  12  21
ATOM     21  C   UNL     1      21.893  10.771   1.705  0.00  0.00    +0.391 C 
ATOM     22  O   UNL     1      21.883   9.451   1.973  0.00  0.00    -0.243 OA
ATOM     23  O   UNL     1      21.609  12.000   2.153  0.00  0.00    -0.243 OA
ENDBRANCH  12  21
ENDBRANCH   8  10
ENDBRANCH   6   8
ENDBRANCH   5   6
ENDBRANCH   2   5
BRANCH   1  24
ATOM     24  O   UNL     1      26.107  16.744  -3.945  0.00  0.00    -0.450 OA
BRANCH  24  25
ATOM     25  C   UNL     1      27.149  17.541  -3.432  0.00  0.00    +0.240 C 
BRANCH  25  26
ATOM     26  C   UNL     1      27.156  17.812  -1.916  0.00  0.00    +0.100 C 
BRANCH  26  28
ATOM     27  N   UNL     1      29.379  17.543  -0.857  0.00  0.00    -0.134 NA
ATOM     28  C   UNL     1      28.189  16.994  -1.253  0.00  0.00    +0.086 A 
ATOM     29  C   UNL     1      28.182  15.657  -0.924  0.00  0.00    +0.134 A 
ATOM     30  N   UNL     1      29.400  15.448  -0.345  0.00  0.00    -0.237 N 
ATOM     31  N   UNL     1      30.113  16.590  -0.302  0.00  0.00    -0.065 NA
BRANCH  30  32
ATOM     32  C   UNL     1      29.959  14.233   0.219  0.00  0.00    +0.219 C 
BRANCH  32  33
ATOM     33  C   UNL     1      29.801  14.229   1.730  0.00  0.00    +0.237 C 
ATOM     34  O   UNL     1      30.739  14.263   2.525  0.00  0.00    -0.274 OA
ATOM     35  N   UNL     1      28.516  14.251   2.201  0.00  0.00    -0.328 N 
ATOM     36  H   UNL     1      27.700  14.317   1.606  0.00  0.00    +0.145 HD
ATOM     37  H   UNL     1      28.381  14.259   3.204  0.00  0.00    +0.145 HD
ENDBRANCH  32  33
BRANCH  32  38
ATOM     38  C   UNL     1      31.426  14.077  -0.177  0.00  0.00    +0.195 C 
BRANCH  38  39
ATOM     39  O   UNL     1      31.601  12.838  -0.877  0.00  0.00    -0.380 OA
ATOM     40  C   UNL     1      32.963  12.430  -0.894  0.00  0.00    +0.194 C 
ENDBRANCH  38  39
ENDBRANCH  32  38
ENDBRANCH  30  32
ENDBRANCH  26  28
ENDBRANCH  25  26
ENDBRANCH  24  25
ENDBRANCH   1  24
TORSDOF 14
