REMARK VINA RESULT:    -7.362      1.471      2.323
REMARK INTER + INTRA:         -13.705
REMARK INTER:                 -12.192
REMARK INTRA:                  -1.513
REMARK UNBOUND:                -1.609
REMARK  Name = lig_assembled_87.pdb
REMARK  12 active torsions:
REMARK  status: ('A' for Active; 'I' for Inactive)
REMARK    1  A    between atoms: _2  and  _9
REMARK    2  A    between atoms: _3  and  _12
REMARK    3  A    between atoms: _6  and  _7
REMARK    4  A    between atoms: _6  and  _16
REMARK    5  A    between atoms: _16  and  _18
REMARK    6  A    between atoms: _17  and  _22
REMARK    7  A    between atoms: _18  and  _21
REMARK    8  A    between atoms: _26  and  _36
REMARK    9  A    between atoms: _28  and  _29
REMARK   10  A    between atoms: _30  and  _32
REMARK   11  A    between atoms: _32  and  _34
REMARK   12  A    between atoms: _34  and  _36
REMARK                            x       y       z     vdW  Elec       q    Type
REMARK                         _______ _______ _______ _____ _____    ______ ____
ROOT
ATOM      1  C   UNL     1      28.215  17.185  -0.523  0.00  0.00    +0.400 C 
ATOM      2  N   UNL     1      28.974  16.157  -0.014  0.00  0.00    -0.278 N 
ATOM      3  H   UNL     1      29.215  16.493   0.972  0.00  0.00    +0.152 HD
ATOM      4  O   UNL     1      27.857  18.075   0.244  0.00  0.00    -0.226 OA
ENDROOT
BRANCH   1   5
ATOM      5  O   UNL     1      27.974  17.127  -1.792  0.00  0.00    -0.450 OA
BRANCH   5   6
ATOM      6  C   UNL     1      27.055  17.639  -2.729  0.00  0.00    +0.240 C 
BRANCH   6   7
ATOM      7  C   UNL     1      26.990  16.955  -4.108  0.00  0.00    +0.100 C 
BRANCH   7   9
ATOM      8  N   UNL     1      25.549  15.335  -5.292  0.00  0.00    -0.134 NA
ATOM      9  C   UNL     1      25.902  15.962  -4.130  0.00  0.00    +0.086 A 
ATOM     10  C   UNL     1      25.110  15.492  -3.106  0.00  0.00    +0.134 A 
ATOM     11  N   UNL     1      24.376  14.489  -3.679  0.00  0.00    -0.248 N 
ATOM     12  N   UNL     1      24.570  14.491  -5.014  0.00  0.00    -0.065 NA
BRANCH  11  13
ATOM     13  C   UNL     1      23.464  13.494  -3.084  0.00  0.00    +0.112 C 
ATOM     14  C   UNL     1      22.304  13.036  -4.012  0.00  0.00    +0.045 C 
ATOM     15  C   UNL     1      20.884  13.298  -3.484  0.00  0.00    +0.059 C 
ATOM     16  C   UNL     1      20.463  12.264  -2.429  0.00  0.00    +0.020 C 
ATOM     17  C   UNL     1      20.773  12.930  -1.089  0.00  0.00    +0.020 C 
ATOM     18  C   UNL     1      21.511  14.211  -1.478  0.00  0.00    +0.059 C 
ATOM     19  N   UNL     1      20.792  14.528  -2.708  0.00  0.00    -0.299 NA
ATOM     20  C   UNL     1      21.121  15.768  -3.377  0.00  0.00    +0.105 C 
ATOM     21  C   UNL     1      23.005  13.935  -1.662  0.00  0.00    +0.045 C 
ENDBRANCH  11  13
ENDBRANCH   7   9
ENDBRANCH   6   7
ENDBRANCH   5   6
ENDBRANCH   1   5
BRANCH   2  22
ATOM     22  C   UNL     1      29.571  14.838  -0.206  0.00  0.00    +0.152 C 
BRANCH  22  23
ATOM     23  C   UNL     1      31.111  14.772  -0.128  0.00  0.00    +0.193 C 
ATOM     24  O   UNL     1      31.608  16.014  -0.672  0.00  0.00    -0.219 OA
BRANCH  23  25
ATOM     25  C   UNL     1      31.752  14.680   1.274  0.00  0.00    +0.212 C 
ATOM     26  O   UNL     1      31.291  15.756   2.108  0.00  0.00    -0.218 OA
BRANCH  25  27
ATOM     27  C   UNL     1      31.462  13.315   2.006  0.00  0.00    +0.171 C 
ATOM     28  O   UNL     1      30.759  13.489   3.232  0.00  0.00    -0.343 OA
ATOM     29  C   UNL     1      30.588  12.489   4.192  0.00  0.00    +0.220 C 
ATOM     30  C   UNL     1      31.922  11.812   4.554  0.00  0.00    +0.076 C 
ATOM     31  C   UNL     1      32.575  11.346   3.242  0.00  0.00    +0.177 C 
ATOM     32  O   UNL     1      33.796  10.676   3.524  0.00  0.00    -0.221 OA
ATOM     33  C   UNL     1      32.803  12.563   2.293  0.00  0.00    +0.155 C 
BRANCH  33  34
ATOM     34  N   UNL     1      33.430  12.126   1.049  0.00  0.00    -0.202 NA
ATOM     35  C   UNL     1      34.560  12.572   0.443  0.00  0.00    +0.242 C 
ATOM     36  C   UNL     1      35.143  11.750  -0.677  0.00  0.00    +0.096 C 
ATOM     37  O   UNL     1      35.077  13.622   0.819  0.00  0.00    -0.273 OA
ENDBRANCH  33  34
BRANCH  29  38
ATOM     38  C   UNL     1      29.453  11.397   3.793  0.00  0.00    +0.391 C 
ATOM     39  O   UNL     1      29.670  10.353   4.617  0.00  0.00    -0.243 OA
ATOM     40  O   UNL     1      28.566  12.048   3.030  0.00  0.00    -0.243 OA
ENDBRANCH  29  38
ENDBRANCH  25  27
ENDBRANCH  23  25
ENDBRANCH  22  23
ENDBRANCH   2  22
TORSDOF 11
