REMARK VINA RESULT:    -6.547      3.119      4.904
REMARK INTER + INTRA:         -14.774
REMARK INTER:                 -13.177
REMARK INTRA:                  -1.596
REMARK UNBOUND:                -1.720
REMARK  Name = lig_assembled_54.pdb
REMARK  19 active torsions:
REMARK  status: ('A' for Active; 'I' for Inactive)
REMARK    1  A    between atoms: _2  and  _8
REMARK    2  A    between atoms: _4  and  _13
REMARK    3  A    between atoms: _5  and  _6
REMARK    4  A    between atoms: _5  and  _16
REMARK    5  A    between atoms: _8  and  _9
REMARK    6  A    between atoms: _9  and  _10
REMARK    7  A    between atoms: _10  and  _14
REMARK    8  A    between atoms: _10  and  _15
REMARK    9  A    between atoms: _11  and  _12
REMARK   10  A    between atoms: _11  and  _15
REMARK   11  A    between atoms: _13  and  _14
REMARK   12  A    between atoms: _16  and  _18
REMARK   13  A    between atoms: _17  and  _22
REMARK   14  A    between atoms: _18  and  _21
REMARK   15  A    between atoms: _26  and  _36
REMARK   16  A    between atoms: _28  and  _29
REMARK   17  A    between atoms: _30  and  _32
REMARK   18  A    between atoms: _32  and  _34
REMARK   19  A    between atoms: _34  and  _36
REMARK                            x       y       z     vdW  Elec       q    Type
REMARK                         _______ _______ _______ _____ _____    ______ ____
ROOT
ATOM      1  C   UNL     1      28.319  17.685  -0.518  0.00  0.00    +0.400 C 
ATOM      2  N   UNL     1      29.526  17.541   0.125  0.00  0.00    -0.278 N 
ATOM      3  H   UNL     1      29.477  18.267   0.908  0.00  0.00    +0.152 HD
ATOM      4  O   UNL     1      27.465  18.397   0.006  0.00  0.00    -0.226 OA
ENDROOT
BRANCH   1   5
ATOM      5  O   UNL     1      28.209  17.068  -1.648  0.00  0.00    -0.450 OA
BRANCH   5   6
ATOM      6  C   UNL     1      27.274  16.283  -2.351  0.00  0.00    +0.240 C 
BRANCH   6   7
ATOM      7  C   UNL     1      26.671  16.877  -3.638  0.00  0.00    +0.100 C 
BRANCH   7   9
ATOM      8  N   UNL     1      25.742  15.422  -5.414  0.00  0.00    -0.134 NA
ATOM      9  C   UNL     1      25.627  15.979  -4.167  0.00  0.00    +0.086 A 
ATOM     10  C   UNL     1      24.458  15.539  -3.584  0.00  0.00    +0.133 A 
ATOM     11  N   UNL     1      23.929  14.690  -4.508  0.00  0.00    -0.251 N 
ATOM     12  N   UNL     1      24.699  14.627  -5.610  0.00  0.00    -0.065 NA
BRANCH  11  13
ATOM     13  C   UNL     1      22.742  13.866  -4.398  0.00  0.00    +0.150 C 
BRANCH  13  14
ATOM     14  C   UNL     1      21.487  14.627  -4.798  0.00  0.00    +0.084 C 
BRANCH  14  15
ATOM     15  C   UNL     1      20.638  15.076  -3.604  0.00  0.00    +0.252 C 
BRANCH  15  16
ATOM     16  O   UNL     1      20.565  16.504  -3.560  0.00  0.00    -0.352 OA
BRANCH  16  17
ATOM     17  C   UNL     1      19.973  17.094  -4.715  0.00  0.00    +0.159 C 
ATOM     18  C   UNL     1      18.484  16.812  -4.699  0.00  0.00    +0.034 C 
ENDBRANCH  16  17
ENDBRANCH  15  16
BRANCH  15  19
ATOM     19  O   UNL     1      21.268  14.584  -2.415  0.00  0.00    -0.352 OA
BRANCH  19  20
ATOM     20  C   UNL     1      20.334  14.007  -1.500  0.00  0.00    +0.159 C 
ATOM     21  C   UNL     1      20.913  12.722  -0.946  0.00  0.00    +0.034 C 
ENDBRANCH  19  20
ENDBRANCH  15  19
ENDBRANCH  14  15
ENDBRANCH  13  14
ENDBRANCH  11  13
ENDBRANCH   7   9
ENDBRANCH   6   7
ENDBRANCH   5   6
ENDBRANCH   1   5
BRANCH   2  22
ATOM     22  C   UNL     1      30.808  16.849   0.223  0.00  0.00    +0.152 C 
BRANCH  22  23
ATOM     23  C   UNL     1      30.744  15.343   0.552  0.00  0.00    +0.193 C 
ATOM     24  O   UNL     1      31.119  14.638  -0.652  0.00  0.00    -0.219 OA
BRANCH  23  25
ATOM     25  C   UNL     1      31.710  14.805   1.631  0.00  0.00    +0.212 C 
ATOM     26  O   UNL     1      31.823  15.741   2.715  0.00  0.00    -0.218 OA
BRANCH  25  27
ATOM     27  C   UNL     1      31.276  13.407   2.216  0.00  0.00    +0.171 C 
ATOM     28  O   UNL     1      29.895  13.360   2.556  0.00  0.00    -0.343 OA
ATOM     29  C   UNL     1      29.303  12.343   3.309  0.00  0.00    +0.220 C 
ATOM     30  C   UNL     1      30.075  12.075   4.613  0.00  0.00    +0.076 C 
ATOM     31  C   UNL     1      31.545  11.830   4.237  0.00  0.00    +0.177 C 
ATOM     32  O   UNL     1      32.298  11.537   5.406  0.00  0.00    -0.221 OA
ATOM     33  C   UNL     1      32.123  13.070   3.487  0.00  0.00    +0.155 C 
BRANCH  33  34
ATOM     34  N   UNL     1      33.522  12.844   3.135  0.00  0.00    -0.202 NA
ATOM     35  C   UNL     1      34.640  13.477   3.573  0.00  0.00    +0.242 C 
ATOM     36  C   UNL     1      35.979  12.852   3.275  0.00  0.00    +0.096 C 
ATOM     37  O   UNL     1      34.537  14.531   4.196  0.00  0.00    -0.273 OA
ENDBRANCH  33  34
BRANCH  29  38
ATOM     38  C   UNL     1      29.057  10.974   2.469  0.00  0.00    +0.391 C 
ATOM     39  O   UNL     1      28.881  10.020   3.403  0.00  0.00    -0.243 OA
ATOM     40  O   UNL     1      28.824  11.353   1.206  0.00  0.00    -0.243 OA
ENDBRANCH  29  38
ENDBRANCH  25  27
ENDBRANCH  23  25
ENDBRANCH  22  23
ENDBRANCH   2  22
TORSDOF 17
