REMARK VINA RESULT:    -6.748      1.614      2.919
REMARK INTER + INTRA:         -13.996
REMARK INTER:                 -12.982
REMARK INTRA:                  -1.014
REMARK UNBOUND:                -2.513
REMARK  Name = lig_assembled_28.pdb
REMARK  12 active torsions:
REMARK  status: ('A' for Active; 'I' for Inactive)
REMARK    1  A    between atoms: _2  and  _8
REMARK    2  A    between atoms: _5  and  _6
REMARK    3  A    between atoms: _5  and  _17
REMARK    4  A    between atoms: _8  and  _9
REMARK    5  A    between atoms: _17  and  _19
REMARK    6  A    between atoms: _18  and  _23
REMARK    7  A    between atoms: _19  and  _22
REMARK    8  A    between atoms: _27  and  _37
REMARK    9  A    between atoms: _29  and  _30
REMARK   10  A    between atoms: _31  and  _33
REMARK   11  A    between atoms: _33  and  _35
REMARK   12  A    between atoms: _35  and  _37
REMARK                            x       y       z     vdW  Elec       q    Type
REMARK                         _______ _______ _______ _____ _____    ______ ____
ROOT
ATOM      1  C   UNL     1      27.838  17.450  -1.024  0.00  0.00    +0.400 C 
ATOM      2  N   UNL     1      28.461  16.558  -0.184  0.00  0.00    -0.278 N 
ATOM      3  H   UNL     1      28.648  17.135   0.695  0.00  0.00    +0.152 HD
ATOM      4  O   UNL     1      27.496  18.536  -0.565  0.00  0.00    -0.226 OA
ENDROOT
BRANCH   2   5
ATOM      5  C   UNL     1      28.957  15.203   0.046  0.00  0.00    +0.152 C 
BRANCH   5   6
ATOM      6  C   UNL     1      30.490  15.029   0.032  0.00  0.00    +0.193 C 
ATOM      7  O   UNL     1      31.012  15.870   1.085  0.00  0.00    -0.219 OA
BRANCH   6   8
ATOM      8  C   UNL     1      31.053  13.625   0.345  0.00  0.00    +0.212 C 
ATOM      9  O   UNL     1      31.907  13.179  -0.721  0.00  0.00    -0.218 OA
BRANCH   8  10
ATOM     10  C   UNL     1      31.861  13.563   1.697  0.00  0.00    +0.171 C 
ATOM     11  O   UNL     1      33.218  13.179   1.507  0.00  0.00    -0.343 OA
ATOM     12  C   UNL     1      34.085  12.812   2.539  0.00  0.00    +0.220 C 
ATOM     13  C   UNL     1      33.462  11.745   3.456  0.00  0.00    +0.076 C 
ATOM     14  C   UNL     1      32.094  12.274   3.917  0.00  0.00    +0.177 C 
ATOM     15  O   UNL     1      31.490  11.340   4.802  0.00  0.00    -0.221 OA
ATOM     16  C   UNL     1      31.182  12.556   2.682  0.00  0.00    +0.155 C 
BRANCH  16  17
ATOM     17  N   UNL     1      29.879  13.052   3.117  0.00  0.00    -0.202 NA
ATOM     18  C   UNL     1      28.640  12.544   2.896  0.00  0.00    +0.242 C 
ATOM     19  C   UNL     1      27.490  13.087   3.704  0.00  0.00    +0.096 C 
ATOM     20  O   UNL     1      28.486  11.662   2.054  0.00  0.00    -0.273 OA
ENDBRANCH  16  17
BRANCH  12  21
ATOM     21  C   UNL     1      34.649  14.075   3.391  0.00  0.00    +0.391 C 
ATOM     22  O   UNL     1      35.988  13.924   3.392  0.00  0.00    -0.243 OA
ATOM     23  O   UNL     1      33.625  14.929   3.507  0.00  0.00    -0.243 OA
ENDBRANCH  12  21
ENDBRANCH   8  10
ENDBRANCH   6   8
ENDBRANCH   5   6
ENDBRANCH   2   5
BRANCH   1  24
ATOM     24  O   UNL     1      27.699  17.062  -2.249  0.00  0.00    -0.450 OA
BRANCH  24  25
ATOM     25  C   UNL     1      26.814  17.237  -3.331  0.00  0.00    +0.240 C 
BRANCH  25  26
ATOM     26  C   UNL     1      26.526  16.011  -4.219  0.00  0.00    +0.100 C 
BRANCH  26  28
ATOM     27  N   UNL     1      24.559  14.655  -4.881  0.00  0.00    -0.134 NA
ATOM     28  C   UNL     1      25.138  15.552  -4.025  0.00  0.00    +0.086 A 
ATOM     29  C   UNL     1      24.240  15.869  -3.031  0.00  0.00    +0.134 A 
ATOM     30  N   UNL     1      23.169  15.058  -3.278  0.00  0.00    -0.247 N 
ATOM     31  N   UNL     1      23.348  14.368  -4.421  0.00  0.00    -0.065 NA
BRANCH  30  32
ATOM     32  C   UNL     1      21.984  14.788  -2.475  0.00  0.00    +0.180 C 
BRANCH  32  33
ATOM     33  C   UNL     1      22.166  13.660  -1.486  0.00  0.00    -0.022 A 
ATOM     34  C   UNL     1      23.456  13.195  -1.174  0.00  0.00    +0.055 A 
ATOM     35  C   UNL     1      23.579  12.244  -0.183  0.00  0.00    +0.167 A 
ATOM     36  O   UNL     1      24.751  11.731   0.280  0.00  0.00    -0.453 OA
ATOM     37  C   UNL     1      24.271  10.909   1.366  0.00  0.00    +0.466 C 
ATOM     38  O   UNL     1      22.831  10.833   1.433  0.00  0.00    -0.453 OA
ATOM     39  C   UNL     1      22.487  11.732   0.473  0.00  0.00    +0.166 A 
ATOM     40  C   UNL     1      21.204  12.136   0.169  0.00  0.00    +0.050 A 
ATOM     41  C   UNL     1      21.046  13.115  -0.816  0.00  0.00    +0.009 A 
ENDBRANCH  32  33
ENDBRANCH  30  32
ENDBRANCH  26  28
ENDBRANCH  25  26
ENDBRANCH  24  25
ENDBRANCH   1  24
TORSDOF 12
