REMARK VINA RESULT:    -6.203      2.399      5.051
REMARK INTER + INTRA:         -12.431
REMARK INTER:                 -10.943
REMARK INTRA:                  -1.488
REMARK UNBOUND:                -1.696
REMARK  Name = lig_assembled_72.pdb
REMARK  15 active torsions:
REMARK  status: ('A' for Active; 'I' for Inactive)
REMARK    1  A    between atoms: _2  and  _8
REMARK    2  A    between atoms: _4  and  _8
REMARK    3  A    between atoms: _4  and  _11
REMARK    4  A    between atoms: _5  and  _6
REMARK    5  A    between atoms: _5  and  _12
REMARK    6  A    between atoms: _8  and  _9
REMARK    7  A    between atoms: _8  and  _10
REMARK    8  A    between atoms: _12  and  _14
REMARK    9  A    between atoms: _13  and  _18
REMARK   10  A    between atoms: _14  and  _17
REMARK   11  A    between atoms: _22  and  _32
REMARK   12  A    between atoms: _24  and  _25
REMARK   13  A    between atoms: _26  and  _28
REMARK   14  A    between atoms: _28  and  _30
REMARK   15  A    between atoms: _30  and  _32
REMARK                            x       y       z     vdW  Elec       q    Type
REMARK                         _______ _______ _______ _____ _____    ______ ____
ROOT
ATOM      1  C   UNL     1      28.843  15.182   0.104  0.00  0.00    +0.152 C 
ENDROOT
BRANCH   1   3
ATOM      2  C   UNL     1      27.810  13.584   2.060  0.00  0.00    +0.400 C 
ATOM      3  N   UNL     1      28.368  14.637   1.373  0.00  0.00    -0.278 N 
ATOM      4  H   UNL     1      28.525  15.372   2.132  0.00  0.00    +0.152 HD
ATOM      5  O   UNL     1      27.795  13.636   3.287  0.00  0.00    -0.226 OA
BRANCH   2   6
ATOM      6  O   UNL     1      27.319  12.637   1.330  0.00  0.00    -0.450 OA
BRANCH   6   7
ATOM      7  C   UNL     1      26.068  12.072   1.014  0.00  0.00    +0.240 C 
BRANCH   7   8
ATOM      8  C   UNL     1      25.851  11.593  -0.434  0.00  0.00    +0.100 C 
BRANCH   8  10
ATOM      9  N   UNL     1      27.422  12.630  -2.038  0.00  0.00    -0.134 NA
ATOM     10  C   UNL     1      26.220  12.656  -1.387  0.00  0.00    +0.086 A 
ATOM     11  C   UNL     1      25.519  13.774  -1.783  0.00  0.00    +0.134 A 
ATOM     12  N   UNL     1      26.347  14.391  -2.679  0.00  0.00    -0.244 N 
ATOM     13  N   UNL     1      27.492  13.692  -2.825  0.00  0.00    -0.065 NA
BRANCH  12  14
ATOM     14  C   UNL     1      26.112  15.632  -3.430  0.00  0.00    +0.083 C 
ATOM     15  C   UNL     1      24.621  16.008  -3.334  0.00  0.00    +0.038 C 
ATOM     16  C   UNL     1      26.493  15.422  -4.910  0.00  0.00    +0.038 C 
BRANCH  14  17
ATOM     17  C   UNL     1      26.937  16.816  -2.855  0.00  0.00    +0.185 C 
BRANCH  17  18
ATOM     18  O   UNL     1      27.317  17.760  -3.856  0.00  0.00    -0.393 OA
ATOM     19  H   UNL     1      27.956  18.366  -3.423  0.00  0.00    +0.209 HD
ENDBRANCH  17  18
ENDBRANCH  14  17
ENDBRANCH  12  14
ENDBRANCH   8  10
ENDBRANCH   7   8
ENDBRANCH   6   7
ENDBRANCH   2   6
ENDBRANCH   1   3
BRANCH   1  20
ATOM     20  C   UNL     1      30.372  15.188  -0.103  0.00  0.00    +0.193 C 
ATOM     21  O   UNL     1      30.931  16.004   0.951  0.00  0.00    -0.219 OA
BRANCH  20  22
ATOM     22  C   UNL     1      31.115  13.839   0.020  0.00  0.00    +0.212 C 
ATOM     23  O   UNL     1      30.188  12.745  -0.077  0.00  0.00    -0.218 OA
BRANCH  22  24
ATOM     24  C   UNL     1      32.239  13.645  -1.068  0.00  0.00    +0.171 C 
ATOM     25  O   UNL     1      31.752  13.028  -2.255  0.00  0.00    -0.343 OA
ATOM     26  C   UNL     1      32.565  12.521  -3.272  0.00  0.00    +0.220 C 
ATOM     27  C   UNL     1      33.653  11.585  -2.718  0.00  0.00    +0.076 C 
ATOM     28  C   UNL     1      34.400  12.347  -1.610  0.00  0.00    +0.177 C 
ATOM     29  O   UNL     1      35.445  11.539  -1.090  0.00  0.00    -0.221 OA
ATOM     30  C   UNL     1      33.404  12.777  -0.489  0.00  0.00    +0.155 C 
BRANCH  30  31
ATOM     31  N   UNL     1      34.110  13.496   0.569  0.00  0.00    -0.202 NA
ATOM     32  C   UNL     1      34.103  13.292   1.911  0.00  0.00    +0.242 C 
ATOM     33  C   UNL     1      35.148  13.985   2.745  0.00  0.00    +0.096 C 
ATOM     34  O   UNL     1      33.255  12.554   2.409  0.00  0.00    -0.273 OA
ENDBRANCH  30  31
BRANCH  26  35
ATOM     35  C   UNL     1      33.198  13.672  -4.228  0.00  0.00    +0.391 C 
ATOM     36  O   UNL     1      32.854  13.311  -5.480  0.00  0.00    -0.243 OA
ATOM     37  O   UNL     1      33.549  14.676  -3.416  0.00  0.00    -0.243 OA
ENDBRANCH  26  35
ENDBRANCH  22  24
ENDBRANCH  20  22
ENDBRANCH   1  20
TORSDOF 13
