REMARK VINA RESULT:    -5.648      3.676      9.536
REMARK INTER + INTRA:         -12.198
REMARK INTER:                  -9.958
REMARK INTRA:                  -2.240
REMARK UNBOUND:                -2.422
REMARK  Name = lig_assembled_53.pdb
REMARK  13 active torsions:
REMARK  status: ('A' for Active; 'I' for Inactive)
REMARK    1  A    between atoms: _2  and  _8
REMARK    2  A    between atoms: _4  and  _8
REMARK    3  A    between atoms: _4  and  _9
REMARK    4  A    between atoms: _5  and  _6
REMARK    5  A    between atoms: _5  and  _11
REMARK    6  A    between atoms: _11  and  _13
REMARK    7  A    between atoms: _12  and  _17
REMARK    8  A    between atoms: _13  and  _16
REMARK    9  A    between atoms: _21  and  _31
REMARK   10  A    between atoms: _23  and  _24
REMARK   11  A    between atoms: _25  and  _27
REMARK   12  A    between atoms: _27  and  _29
REMARK   13  A    between atoms: _29  and  _31
REMARK                            x       y       z     vdW  Elec       q    Type
REMARK                         _______ _______ _______ _____ _____    ______ ____
ROOT
ATOM      1  C   UNL     1      27.992  14.689  -1.618  0.00  0.00    +0.152 C 
ENDROOT
BRANCH   1   3
ATOM      2  C   UNL     1      28.470  17.139  -0.518  0.00  0.00    +0.400 C 
ATOM      3  N   UNL     1      27.866  15.983  -0.954  0.00  0.00    -0.278 N 
ATOM      4  H   UNL     1      26.841  16.122  -0.684  0.00  0.00    +0.152 HD
ATOM      5  O   UNL     1      27.751  18.058  -0.132  0.00  0.00    -0.226 OA
BRANCH   2   6
ATOM      6  O   UNL     1      29.762  17.134  -0.527  0.00  0.00    -0.450 OA
BRANCH   6   7
ATOM      7  C   UNL     1      30.834  16.653   0.250  0.00  0.00    +0.240 C 
BRANCH   7   8
ATOM      8  C   UNL     1      31.436  15.288  -0.135  0.00  0.00    +0.100 C 
BRANCH   8  10
ATOM      9  N   UNL     1      31.893  13.234   1.171  0.00  0.00    -0.134 NA
ATOM     10  C   UNL     1      31.045  14.257   0.844  0.00  0.00    +0.086 A 
ATOM     11  C   UNL     1      29.876  14.118   1.558  0.00  0.00    +0.134 A 
ATOM     12  N   UNL     1      30.045  12.957   2.250  0.00  0.00    -0.241 N 
ATOM     13  N   UNL     1      31.280  12.454   2.050  0.00  0.00    -0.065 NA
BRANCH  12  14
ATOM     14  C   UNL     1      29.194  12.322   3.235  0.00  0.00    +0.265 C 
BRANCH  14  15
ATOM     15  C   UNL     1      27.732  12.666   3.140  0.00  0.00    +0.326 C 
ATOM     16  O   UNL     1      27.137  13.513   3.789  0.00  0.00    -0.249 OA
BRANCH  15  17
ATOM     17  O   UNL     1      27.076  11.901   2.226  0.00  0.00    -0.479 OA
ATOM     18  H   UNL     1      26.419  11.275   2.587  0.00  0.00    +0.295 HD
ENDBRANCH  15  17
ENDBRANCH  14  15
ENDBRANCH  12  14
ENDBRANCH   8  10
ENDBRANCH   7   8
ENDBRANCH   6   7
ENDBRANCH   2   6
ENDBRANCH   1   3
BRANCH   1  19
ATOM     19  C   UNL     1      26.732  14.172  -2.344  0.00  0.00    +0.193 C 
ATOM     20  O   UNL     1      27.181  13.574  -3.580  0.00  0.00    -0.219 OA
BRANCH  19  21
ATOM     21  C   UNL     1      25.914  13.060  -1.652  0.00  0.00    +0.212 C 
ATOM     22  O   UNL     1      25.992  13.194  -0.224  0.00  0.00    -0.218 OA
BRANCH  21  23
ATOM     23  C   UNL     1      24.396  13.046  -2.075  0.00  0.00    +0.171 C 
ATOM     24  O   UNL     1      23.876  14.354  -2.292  0.00  0.00    -0.343 OA
ATOM     25  C   UNL     1      22.518  14.648  -2.435  0.00  0.00    +0.220 C 
ATOM     26  C   UNL     1      21.679  14.036  -1.300  0.00  0.00    +0.076 C 
ATOM     27  C   UNL     1      22.012  12.537  -1.234  0.00  0.00    +0.177 C 
ATOM     28  O   UNL     1      21.232  11.913  -0.225  0.00  0.00    -0.221 OA
ATOM     29  C   UNL     1      23.538  12.336  -0.976  0.00  0.00    +0.155 C 
BRANCH  29  30
ATOM     30  N   UNL     1      23.858  10.913  -0.907  0.00  0.00    -0.202 NA
ATOM     31  C   UNL     1      24.190  10.150   0.165  0.00  0.00    +0.242 C 
ATOM     32  C   UNL     1      24.182   8.651   0.007  0.00  0.00    +0.096 C 
ATOM     33  O   UNL     1      24.485  10.691   1.229  0.00  0.00    -0.273 OA
ENDBRANCH  29  30
BRANCH  25  34
ATOM     34  C   UNL     1      21.921  14.259  -3.895  0.00  0.00    +0.391 C 
ATOM     35  O   UNL     1      20.613  14.019  -3.683  0.00  0.00    -0.243 OA
ATOM     36  O   UNL     1      22.859  14.610  -4.783  0.00  0.00    -0.243 OA
ENDBRANCH  25  34
ENDBRANCH  21  23
ENDBRANCH  19  21
ENDBRANCH   1  19
TORSDOF 13
