REMARK VINA RESULT:    -7.287      4.051      8.725
REMARK INTER + INTRA:         -13.038
REMARK INTER:                 -11.160
REMARK INTRA:                  -1.878
REMARK UNBOUND:                -1.064
REMARK  Name = lig_assembled_27.pdb
REMARK  11 active torsions:
REMARK  status: ('A' for Active; 'I' for Inactive)
REMARK    1  A    between atoms: _2  and  _8
REMARK    2  A    between atoms: _5  and  _6
REMARK    3  A    between atoms: _5  and  _13
REMARK    4  A    between atoms: _13  and  _15
REMARK    5  A    between atoms: _14  and  _19
REMARK    6  A    between atoms: _15  and  _18
REMARK    7  A    between atoms: _23  and  _33
REMARK    8  A    between atoms: _25  and  _26
REMARK    9  A    between atoms: _27  and  _29
REMARK   10  A    between atoms: _29  and  _31
REMARK   11  A    between atoms: _31  and  _33
REMARK                            x       y       z     vdW  Elec       q    Type
REMARK                         _______ _______ _______ _____ _____    ______ ____
ROOT
ATOM      1  C   UNL     1      27.960  17.788  -1.026  0.00  0.00    +0.400 C 
ATOM      2  N   UNL     1      27.192  17.612  -2.153  0.00  0.00    -0.278 N 
ATOM      3  H   UNL     1      26.241  18.007  -1.868  0.00  0.00    +0.152 HD
ATOM      4  O   UNL     1      27.496  18.459  -0.108  0.00  0.00    -0.226 OA
ENDROOT
BRANCH   1   5
ATOM      5  O   UNL     1      29.107  17.191  -1.031  0.00  0.00    -0.450 OA
BRANCH   5   6
ATOM      6  C   UNL     1      30.098  16.774  -0.122  0.00  0.00    +0.240 C 
BRANCH   6   7
ATOM      7  C   UNL     1      30.553  15.304  -0.189  0.00  0.00    +0.100 C 
BRANCH   7   9
ATOM      8  N   UNL     1      28.620  14.386   1.055  0.00  0.00    -0.134 NA
ATOM      9  C   UNL     1      29.971  14.536   0.926  0.00  0.00    +0.086 A 
ATOM     10  C   UNL     1      30.595  13.876   1.961  0.00  0.00    +0.139 A 
ATOM     11  N   UNL     1      29.575  13.324   2.700  0.00  0.00    -0.220 N 
ATOM     12  N   UNL     1      28.387  13.650   2.133  0.00  0.00    -0.061 NA
BRANCH  11  13
ATOM     13  C   UNL     1      29.657  12.530   3.873  0.00  0.00    +0.068 A 
ATOM     14  C   UNL     1      28.545  11.774   4.279  0.00  0.00    +0.028 A 
ATOM     15  C   UNL     1      28.612  10.990   5.434  0.00  0.00    +0.003 A 
ATOM     16  C   UNL     1      29.783  10.957   6.190  0.00  0.00    +0.020 A 
ATOM     17  C   UNL     1      30.886  11.705   5.785  0.00  0.00    +0.043 A 
ATOM     18 CL   UNL     1      32.333  11.663   6.717  0.00  0.00    -0.083 Cl
ATOM     19  C   UNL     1      30.834  12.491   4.633  0.00  0.00    +0.047 A 
ENDBRANCH  11  13
ENDBRANCH   7   9
ENDBRANCH   6   7
ENDBRANCH   5   6
ENDBRANCH   1   5
BRANCH   2  20
ATOM     20  C   UNL     1      27.100  17.153  -3.537  0.00  0.00    +0.152 C 
BRANCH  20  21
ATOM     21  C   UNL     1      26.005  16.108  -3.834  0.00  0.00    +0.193 C 
ATOM     22  O   UNL     1      25.995  15.914  -5.266  0.00  0.00    -0.219 OA
BRANCH  21  23
ATOM     23  C   UNL     1      26.195  14.689  -3.255  0.00  0.00    +0.212 C 
ATOM     24  O   UNL     1      26.936  14.744  -2.025  0.00  0.00    -0.218 OA
BRANCH  23  25
ATOM     25  C   UNL     1      24.836  13.936  -2.990  0.00  0.00    +0.171 C 
ATOM     26  O   UNL     1      23.981  14.645  -2.099  0.00  0.00    -0.343 OA
ATOM     27  C   UNL     1      22.837  14.105  -1.507  0.00  0.00    +0.220 C 
ATOM     28  C   UNL     1      23.128  12.751  -0.836  0.00  0.00    +0.076 C 
ATOM     29  C   UNL     1      23.801  11.850  -1.884  0.00  0.00    +0.177 C 
ATOM     30  O   UNL     1      24.056  10.569  -1.326  0.00  0.00    -0.221 OA
ATOM     31  C   UNL     1      25.115  12.515  -2.400  0.00  0.00    +0.155 C 
BRANCH  31  32
ATOM     32  N   UNL     1      25.762  11.659  -3.392  0.00  0.00    -0.202 NA
ATOM     33  C   UNL     1      26.971  11.044  -3.350  0.00  0.00    +0.242 C 
ATOM     34  C   UNL     1      27.268   9.981  -4.377  0.00  0.00    +0.096 C 
ATOM     35  O   UNL     1      27.785  11.362  -2.486  0.00  0.00    -0.273 OA
ENDBRANCH  31  32
BRANCH  27  36
ATOM     36  C   UNL     1      21.568  14.010  -2.517  0.00  0.00    +0.391 C 
ATOM     37  O   UNL     1      20.667  13.244  -1.873  0.00  0.00    -0.243 OA
ATOM     38  O   UNL     1      21.766  14.951  -3.448  0.00  0.00    -0.243 OA
ENDBRANCH  27  36
ENDBRANCH  23  25
ENDBRANCH  21  23
ENDBRANCH  20  21
ENDBRANCH   2  20
TORSDOF 11
