REMARK VINA RESULT:    -6.038      2.841      9.463
REMARK INTER + INTRA:         -12.316
REMARK INTER:                 -10.608
REMARK INTRA:                  -1.707
REMARK UNBOUND:                -1.336
REMARK  Name = lig_assembled_19.pdb
REMARK  15 active torsions:
REMARK  status: ('A' for Active; 'I' for Inactive)
REMARK    1  A    between atoms: _2  and  _8
REMARK    2  A    between atoms: _4  and  _10
REMARK    3  A    between atoms: _5  and  _6
REMARK    4  A    between atoms: _5  and  _13
REMARK    5  A    between atoms: _8  and  _9
REMARK    6  A    between atoms: _9  and  _12
REMARK    7  A    between atoms: _10  and  _12
REMARK    8  A    between atoms: _13  and  _15
REMARK    9  A    between atoms: _14  and  _19
REMARK   10  A    between atoms: _15  and  _18
REMARK   11  A    between atoms: _23  and  _33
REMARK   12  A    between atoms: _25  and  _26
REMARK   13  A    between atoms: _27  and  _29
REMARK   14  A    between atoms: _29  and  _31
REMARK   15  A    between atoms: _31  and  _33
REMARK                            x       y       z     vdW  Elec       q    Type
REMARK                         _______ _______ _______ _____ _____    ______ ____
ROOT
ATOM      1  C   UNL     1      27.550  14.927  -1.760  0.00  0.00    +0.152 C 
ENDROOT
BRANCH   1   3
ATOM      2  C   UNL     1      28.306  17.362  -0.786  0.00  0.00    +0.400 C 
ATOM      3  N   UNL     1      27.571  16.274  -1.194  0.00  0.00    -0.278 N 
ATOM      4  H   UNL     1      26.561  16.578  -1.020  0.00  0.00    +0.152 HD
ATOM      5  O   UNL     1      27.706  18.401  -0.522  0.00  0.00    -0.226 OA
BRANCH   2   6
ATOM      6  O   UNL     1      29.581  17.171  -0.688  0.00  0.00    -0.450 OA
BRANCH   6   7
ATOM      7  C   UNL     1      30.522  16.707   0.252  0.00  0.00    +0.240 C 
BRANCH   7   8
ATOM      8  C   UNL     1      31.399  15.507  -0.153  0.00  0.00    +0.100 C 
BRANCH   8  10
ATOM      9  N   UNL     1      30.910  14.790   2.168  0.00  0.00    -0.134 NA
ATOM     10  C   UNL     1      31.451  14.518   0.939  0.00  0.00    +0.086 A 
ATOM     11  C   UNL     1      31.993  13.253   0.958  0.00  0.00    +0.133 A 
ATOM     12  N   UNL     1      31.759  12.815   2.226  0.00  0.00    -0.248 N 
ATOM     13  N   UNL     1      31.105  13.737   2.951  0.00  0.00    -0.065 NA
BRANCH  12  14
ATOM     14  C   UNL     1      32.115  11.539   2.806  0.00  0.00    +0.186 C 
BRANCH  14  15
ATOM     15  C   UNL     1      33.616  11.430   3.055  0.00  0.00    +0.255 C 
BRANCH  15  16
ATOM     16  O   UNL     1      34.106  12.486   3.906  0.00  0.00    -0.463 OA
BRANCH  16  17
ATOM     17  C   UNL     1      35.389  12.878   3.689  0.00  0.00    +0.304 C 
ATOM     18  O   UNL     1      35.725  13.991   3.309  0.00  0.00    -0.251 OA
ATOM     19  C   UNL     1      36.348  11.774   4.012  0.00  0.00    +0.136 C 
ENDBRANCH  16  17
ENDBRANCH  15  16
ENDBRANCH  14  15
ENDBRANCH  12  14
ENDBRANCH   8  10
ENDBRANCH   7   8
ENDBRANCH   6   7
ENDBRANCH   2   6
ENDBRANCH   1   3
BRANCH   1  20
ATOM     20  C   UNL     1      26.295  14.551  -2.573  0.00  0.00    +0.193 C 
ATOM     21  O   UNL     1      26.701  14.488  -3.958  0.00  0.00    -0.219 OA
BRANCH  20  22
ATOM     22  C   UNL     1      25.650  13.175  -2.298  0.00  0.00    +0.212 C 
ATOM     23  O   UNL     1      26.366  12.138  -2.988  0.00  0.00    -0.218 OA
BRANCH  22  24
ATOM     24  C   UNL     1      25.587  12.810  -0.766  0.00  0.00    +0.171 C 
ATOM     25  O   UNL     1      26.708  12.042  -0.340  0.00  0.00    -0.343 OA
ATOM     26  C   UNL     1      26.791  11.383   0.889  0.00  0.00    +0.220 C 
ATOM     27  C   UNL     1      25.549  10.514   1.155  0.00  0.00    +0.076 C 
ATOM     28  C   UNL     1      24.311  11.410   0.983  0.00  0.00    +0.177 C 
ATOM     29  O   UNL     1      23.134  10.663   1.257  0.00  0.00    -0.221 OA
ATOM     30  C   UNL     1      24.279  12.010  -0.457  0.00  0.00    +0.155 C 
BRANCH  30  31
ATOM     31  N   UNL     1      23.101  12.857  -0.627  0.00  0.00    -0.202 NA
ATOM     32  C   UNL     1      21.976  12.642  -1.356  0.00  0.00    +0.242 C 
ATOM     33  C   UNL     1      20.790  13.542  -1.124  0.00  0.00    +0.096 C 
ATOM     34  O   UNL     1      21.951  11.729  -2.179  0.00  0.00    -0.273 OA
ENDBRANCH  30  31
BRANCH  26  35
ATOM     35  C   UNL     1      27.102  12.377   2.137  0.00  0.00    +0.391 C 
ATOM     36  O   UNL     1      26.801  11.659   3.236  0.00  0.00    -0.243 OA
ATOM     37  O   UNL     1      27.808  13.395   1.631  0.00  0.00    -0.243 OA
ENDBRANCH  26  35
ENDBRANCH  22  24
ENDBRANCH  20  22
ENDBRANCH   1  20
TORSDOF 14
