REMARK VINA RESULT:    -6.708     23.560     26.718
REMARK INTER + INTRA:         -14.314
REMARK INTER:                 -12.035
REMARK INTRA:                  -2.278
REMARK UNBOUND:                -2.115
REMARK  Name = lig_assembled_26.pdb
REMARK  15 active torsions:
REMARK  status: ('A' for Active; 'I' for Inactive)
REMARK    1  A    between atoms: _2  and  _8
REMARK    2  A    between atoms: _5  and  _6
REMARK    3  A    between atoms: _5  and  _18
REMARK    4  A    between atoms: _8  and  _9
REMARK    5  A    between atoms: _8  and  _10
REMARK    6  A    between atoms: _10  and  _11
REMARK    7  A    between atoms: _11  and  _12
REMARK    8  A    between atoms: _18  and  _20
REMARK    9  A    between atoms: _19  and  _24
REMARK   10  A    between atoms: _20  and  _23
REMARK   11  A    between atoms: _28  and  _38
REMARK   12  A    between atoms: _30  and  _31
REMARK   13  A    between atoms: _32  and  _34
REMARK   14  A    between atoms: _34  and  _36
REMARK   15  A    between atoms: _36  and  _38
REMARK                            x       y       z     vdW  Elec       q    Type
REMARK                         _______ _______ _______ _____ _____    ______ ____
ROOT
ATOM      1  C   UNL     1      32.952  41.912   8.085  0.00  0.00    +0.400 C 
ATOM      2  N   UNL     1      33.901  41.181   7.411  0.00  0.00    -0.278 N 
ATOM      3  H   UNL     1      33.850  41.566   6.416  0.00  0.00    +0.152 HD
ATOM      4  O   UNL     1      32.446  42.873   7.511  0.00  0.00    -0.226 OA
ENDROOT
BRANCH   2   5
ATOM      5  C   UNL     1      34.934  40.148   7.448  0.00  0.00    +0.152 C 
BRANCH   5   6
ATOM      6  C   UNL     1      35.868  40.078   6.223  0.00  0.00    +0.193 C 
ATOM      7  O   UNL     1      36.988  39.247   6.602  0.00  0.00    -0.219 OA
BRANCH   6   8
ATOM      8  C   UNL     1      35.317  39.419   4.939  0.00  0.00    +0.212 C 
ATOM      9  O   UNL     1      33.883  39.345   4.990  0.00  0.00    -0.218 OA
BRANCH   8  10
ATOM     10  C   UNL     1      35.736  40.174   3.621  0.00  0.00    +0.171 C 
ATOM     11  O   UNL     1      34.615  40.631   2.871  0.00  0.00    -0.343 OA
ATOM     12  C   UNL     1      34.686  41.108   1.560  0.00  0.00    +0.220 C 
ATOM     13  C   UNL     1      35.450  40.140   0.641  0.00  0.00    +0.076 C 
ATOM     14  C   UNL     1      36.810  39.853   1.299  0.00  0.00    +0.177 C 
ATOM     15  O   UNL     1      37.575  38.991   0.468  0.00  0.00    -0.221 OA
ATOM     16  C   UNL     1      36.601  39.236   2.717  0.00  0.00    +0.155 C 
BRANCH  16  17
ATOM     17  N   UNL     1      37.891  38.955   3.343  0.00  0.00    -0.202 NA
ATOM     18  C   UNL     1      38.377  37.792   3.844  0.00  0.00    +0.242 C 
ATOM     19  C   UNL     1      39.847  37.710   4.164  0.00  0.00    +0.096 C 
ATOM     20  O   UNL     1      37.618  36.842   4.021  0.00  0.00    -0.273 OA
ENDBRANCH  16  17
BRANCH  12  21
ATOM     21  C   UNL     1      35.270  42.620   1.452  0.00  0.00    +0.391 C 
ATOM     22  O   UNL     1      35.569  42.785   0.149  0.00  0.00    -0.243 OA
ATOM     23  O   UNL     1      34.957  43.221   2.607  0.00  0.00    -0.243 OA
ENDBRANCH  12  21
ENDBRANCH   8  10
ENDBRANCH   6   8
ENDBRANCH   5   6
ENDBRANCH   2   5
BRANCH   1  24
ATOM     24  O   UNL     1      32.657  41.490   9.270  0.00  0.00    -0.450 OA
BRANCH  24  25
ATOM     25  C   UNL     1      31.838  40.524   9.887  0.00  0.00    +0.240 C 
BRANCH  25  26
ATOM     26  C   UNL     1      31.893  39.087   9.333  0.00  0.00    +0.100 C 
BRANCH  26  28
ATOM     27  N   UNL     1      31.247  39.084   6.937  0.00  0.00    -0.134 NA
ATOM     28  C   UNL     1      30.905  38.915   8.253  0.00  0.00    +0.086 A 
ATOM     29  C   UNL     1      29.575  38.579   8.333  0.00  0.00    +0.134 A 
ATOM     30  N   UNL     1      29.148  38.584   7.039  0.00  0.00    -0.248 N 
ATOM     31  N   UNL     1      30.166  38.860   6.199  0.00  0.00    -0.065 NA
BRANCH  30  32
ATOM     32  C   UNL     1      27.836  38.272   6.496  0.00  0.00    +0.113 C 
ATOM     33  C   UNL     1      27.183  39.421   5.714  0.00  0.00    +0.033 C 
BRANCH  32  34
ATOM     34  C   UNL     1      27.821  36.957   5.695  0.00  0.00    +0.106 C 
BRANCH  34  35
ATOM     35  C   UNL     1      28.618  35.835   6.334  0.00  0.00    +0.165 C 
ATOM     36  O   UNL     1      29.647  35.390   5.830  0.00  0.00    -0.292 OA
BRANCH  35  37
ATOM     37  C   UNL     1      28.112  35.223   7.598  0.00  0.00    +0.017 A 
ATOM     38  C   UNL     1      26.770  35.301   7.988  0.00  0.00    +0.011 A 
ATOM     39  C   UNL     1      26.343  34.674   9.161  0.00  0.00    +0.001 A 
ATOM     40  C   UNL     1      27.253  33.975   9.954  0.00  0.00    +0.000 A 
ATOM     41  C   UNL     1      28.592  33.903   9.580  0.00  0.00    +0.001 A 
ATOM     42  C   UNL     1      29.022  34.524   8.407  0.00  0.00    +0.011 A 
ENDBRANCH  35  37
ENDBRANCH  34  35
ENDBRANCH  32  34
ENDBRANCH  30  32
ENDBRANCH  26  28
ENDBRANCH  25  26
ENDBRANCH  24  25
ENDBRANCH   1  24
TORSDOF 14
