REMARK VINA RESULT:    -6.362      2.205      3.697
REMARK INTER + INTRA:         -14.406
REMARK INTER:                 -12.368
REMARK INTRA:                  -2.037
REMARK UNBOUND:                -1.720
REMARK  Name = lig_assembled_54.pdb
REMARK  19 active torsions:
REMARK  status: ('A' for Active; 'I' for Inactive)
REMARK    1  A    between atoms: _2  and  _8
REMARK    2  A    between atoms: _4  and  _13
REMARK    3  A    between atoms: _5  and  _6
REMARK    4  A    between atoms: _5  and  _16
REMARK    5  A    between atoms: _8  and  _9
REMARK    6  A    between atoms: _9  and  _10
REMARK    7  A    between atoms: _10  and  _14
REMARK    8  A    between atoms: _10  and  _15
REMARK    9  A    between atoms: _11  and  _12
REMARK   10  A    between atoms: _11  and  _15
REMARK   11  A    between atoms: _13  and  _14
REMARK   12  A    between atoms: _16  and  _18
REMARK   13  A    between atoms: _17  and  _22
REMARK   14  A    between atoms: _18  and  _21
REMARK   15  A    between atoms: _26  and  _36
REMARK   16  A    between atoms: _28  and  _29
REMARK   17  A    between atoms: _30  and  _32
REMARK   18  A    between atoms: _32  and  _34
REMARK   19  A    between atoms: _34  and  _36
REMARK                            x       y       z     vdW  Elec       q    Type
REMARK                         _______ _______ _______ _____ _____    ______ ____
ROOT
ATOM      1  C   UNL     1      28.152  17.672  -0.519  0.00  0.00    +0.400 C 
ATOM      2  N   UNL     1      29.396  17.367  -0.019  0.00  0.00    -0.278 N 
ATOM      3  H   UNL     1      29.431  17.906   0.903  0.00  0.00    +0.152 HD
ATOM      4  O   UNL     1      27.366  18.271   0.210  0.00  0.00    -0.226 OA
ENDROOT
BRANCH   1   5
ATOM      5  O   UNL     1      27.939  17.318  -1.744  0.00  0.00    -0.450 OA
BRANCH   5   6
ATOM      6  C   UNL     1      26.973  17.495  -2.754  0.00  0.00    +0.240 C 
BRANCH   6   7
ATOM      7  C   UNL     1      26.869  16.404  -3.837  0.00  0.00    +0.100 C 
BRANCH   7   9
ATOM      8  N   UNL     1      25.075  15.065  -4.896  0.00  0.00    -0.134 NA
ATOM      9  C   UNL     1      25.509  15.832  -3.847  0.00  0.00    +0.086 A 
ATOM     10  C   UNL     1      24.506  15.917  -2.906  0.00  0.00    +0.133 A 
ATOM     11  N   UNL     1      23.505  15.151  -3.422  0.00  0.00    -0.251 N 
ATOM     12  N   UNL     1      23.847  14.645  -4.621  0.00  0.00    -0.065 NA
BRANCH  11  13
ATOM     13  C   UNL     1      22.233  14.806  -2.819  0.00  0.00    +0.150 C 
BRANCH  13  14
ATOM     14  C   UNL     1      22.410  13.899  -1.610  0.00  0.00    +0.084 C 
BRANCH  14  15
ATOM     15  C   UNL     1      22.533  12.416  -1.973  0.00  0.00    +0.252 C 
BRANCH  15  16
ATOM     16  O   UNL     1      21.758  11.621  -1.070  0.00  0.00    -0.352 OA
BRANCH  16  17
ATOM     17  C   UNL     1      21.159  12.361  -0.008  0.00  0.00    +0.159 C 
ATOM     18  C   UNL     1      21.521  11.706   1.309  0.00  0.00    +0.034 C 
ENDBRANCH  16  17
ENDBRANCH  15  16
BRANCH  15  19
ATOM     19  O   UNL     1      23.917  12.058  -1.870  0.00  0.00    -0.352 OA
BRANCH  19  20
ATOM     20  C   UNL     1      24.584  12.750  -0.813  0.00  0.00    +0.159 C 
ATOM     21  C   UNL     1      26.007  13.051  -1.238  0.00  0.00    +0.034 C 
ENDBRANCH  19  20
ENDBRANCH  15  19
ENDBRANCH  14  15
ENDBRANCH  13  14
ENDBRANCH  11  13
ENDBRANCH   7   9
ENDBRANCH   6   7
ENDBRANCH   5   6
ENDBRANCH   1   5
BRANCH   2  22
ATOM     22  C   UNL     1      30.655  16.643  -0.173  0.00  0.00    +0.152 C 
BRANCH  22  23
ATOM     23  C   UNL     1      30.655  15.173   0.295  0.00  0.00    +0.193 C 
ATOM     24  O   UNL     1      31.105  14.381  -0.826  0.00  0.00    -0.219 OA
BRANCH  23  25
ATOM     25  C   UNL     1      31.610  14.789   1.447  0.00  0.00    +0.212 C 
ATOM     26  O   UNL     1      31.612  15.809   2.458  0.00  0.00    -0.218 OA
BRANCH  25  27
ATOM     27  C   UNL     1      31.251  13.410   2.122  0.00  0.00    +0.171 C 
ATOM     28  O   UNL     1      29.872  13.309   2.461  0.00  0.00    -0.343 OA
ATOM     29  C   UNL     1      29.332  12.314   3.278  0.00  0.00    +0.220 C 
ATOM     30  C   UNL     1      30.109  12.176   4.599  0.00  0.00    +0.076 C 
ATOM     31  C   UNL     1      31.594  11.989   4.245  0.00  0.00    +0.177 C 
ATOM     32  O   UNL     1      32.354  11.816   5.432  0.00  0.00    -0.221 OA
ATOM     33  C   UNL     1      32.106  13.207   3.415  0.00  0.00    +0.155 C 
BRANCH  33  34
ATOM     34  N   UNL     1      33.518  13.036   3.082  0.00  0.00    -0.202 NA
ATOM     35  C   UNL     1      34.598  13.751   3.488  0.00  0.00    +0.242 C 
ATOM     36  C   UNL     1      35.970  13.183   3.232  0.00  0.00    +0.096 C 
ATOM     37  O   UNL     1      34.435  14.832   4.050  0.00  0.00    -0.273 OA
ENDBRANCH  33  34
BRANCH  29  38
ATOM     38  C   UNL     1      29.168  10.881   2.530  0.00  0.00    +0.391 C 
ATOM     39  O   UNL     1      28.995   9.988   3.524  0.00  0.00    -0.243 OA
ATOM     40  O   UNL     1      28.965  11.160   1.237  0.00  0.00    -0.243 OA
ENDBRANCH  29  38
ENDBRANCH  25  27
ENDBRANCH  23  25
ENDBRANCH  22  23
ENDBRANCH   2  22
TORSDOF 17
