REMARK VINA RESULT:    -6.830      1.472      3.283
REMARK INTER + INTRA:         -14.242
REMARK INTER:                 -12.882
REMARK INTRA:                  -1.360
REMARK UNBOUND:                -1.823
REMARK  Name = lig_assembled_12.pdb
REMARK  14 active torsions:
REMARK  status: ('A' for Active; 'I' for Inactive)
REMARK    1  A    between atoms: _2  and  _8
REMARK    2  A    between atoms: _5  and  _6
REMARK    3  A    between atoms: _5  and  _16
REMARK    4  A    between atoms: _8  and  _15
REMARK    5  A    between atoms: _9  and  _10
REMARK    6  A    between atoms: _9  and  _15
REMARK    7  A    between atoms: _16  and  _18
REMARK    8  A    between atoms: _17  and  _22
REMARK    9  A    between atoms: _18  and  _21
REMARK   10  A    between atoms: _26  and  _36
REMARK   11  A    between atoms: _28  and  _29
REMARK   12  A    between atoms: _30  and  _32
REMARK   13  A    between atoms: _32  and  _34
REMARK   14  A    between atoms: _34  and  _36
REMARK                            x       y       z     vdW  Elec       q    Type
REMARK                         _______ _______ _______ _____ _____    ______ ____
ROOT
ATOM      1  C   UNL     1      27.936  17.112  -0.785  0.00  0.00    +0.400 C 
ATOM      2  N   UNL     1      28.274  15.939  -0.152  0.00  0.00    -0.278 N 
ATOM      3  H   UNL     1      28.620  16.266   0.805  0.00  0.00    +0.152 HD
ATOM      4  O   UNL     1      27.921  18.145  -0.121  0.00  0.00    -0.226 OA
ENDROOT
BRANCH   2   5
ATOM      5  C   UNL     1      28.358  14.481  -0.194  0.00  0.00    +0.152 C 
BRANCH   5   6
ATOM      6  C   UNL     1      28.069  13.745   1.130  0.00  0.00    +0.193 C 
ATOM      7  O   UNL     1      26.998  12.814   0.862  0.00  0.00    -0.219 OA
BRANCH   6   8
ATOM      8  C   UNL     1      29.197  12.874   1.725  0.00  0.00    +0.212 C 
ATOM      9  O   UNL     1      29.054  11.509   1.301  0.00  0.00    -0.218 OA
BRANCH   8  10
ATOM     10  C   UNL     1      30.641  13.374   1.338  0.00  0.00    +0.171 C 
ATOM     11  O   UNL     1      30.898  13.279  -0.059  0.00  0.00    -0.343 OA
ATOM     12  C   UNL     1      32.160  13.420  -0.640  0.00  0.00    +0.220 C 
ATOM     13  C   UNL     1      33.208  12.529   0.050  0.00  0.00    +0.076 C 
ATOM     14  C   UNL     1      33.152  12.831   1.557  0.00  0.00    +0.177 C 
ATOM     15  O   UNL     1      34.132  12.060   2.239  0.00  0.00    -0.221 OA
ATOM     16  C   UNL     1      31.721  12.545   2.109  0.00  0.00    +0.155 C 
BRANCH  16  17
ATOM     17  N   UNL     1      31.665  12.823   3.541  0.00  0.00    -0.202 NA
ATOM     18  C   UNL     1      31.406  11.986   4.578  0.00  0.00    +0.242 C 
ATOM     19  C   UNL     1      31.701  12.466   5.976  0.00  0.00    +0.096 C 
ATOM     20  O   UNL     1      30.943  10.869   4.357  0.00  0.00    -0.273 OA
ENDBRANCH  16  17
BRANCH  12  21
ATOM     21  C   UNL     1      32.659  14.963  -0.737  0.00  0.00    +0.391 C 
ATOM     22  O   UNL     1      33.901  14.895  -1.254  0.00  0.00    -0.243 OA
ATOM     23  O   UNL     1      31.567  15.717  -0.560  0.00  0.00    -0.243 OA
ENDBRANCH  12  21
ENDBRANCH   8  10
ENDBRANCH   6   8
ENDBRANCH   5   6
ENDBRANCH   2   5
BRANCH   1  24
ATOM     24  O   UNL     1      27.691  17.014  -2.050  0.00  0.00    -0.450 OA
BRANCH  24  25
ATOM     25  C   UNL     1      26.601  16.781  -2.913  0.00  0.00    +0.240 C 
BRANCH  25  26
ATOM     26  C   UNL     1      26.309  15.321  -3.310  0.00  0.00    +0.100 C 
BRANCH  26  28
ATOM     27  N   UNL     1      24.307  14.600  -4.581  0.00  0.00    -0.134 NA
ATOM     28  C   UNL     1      24.856  15.100  -3.428  0.00  0.00    +0.086 A 
ATOM     29  C   UNL     1      23.855  15.324  -2.514  0.00  0.00    +0.136 A 
ATOM     30  N   UNL     1      22.716  14.971  -3.176  0.00  0.00    -0.226 N 
ATOM     31  N   UNL     1      22.994  14.513  -4.412  0.00  0.00    -0.063 NA
BRANCH  30  32
ATOM     32  C   UNL     1      21.345  14.989  -2.696  0.00  0.00    +0.305 C 
BRANCH  32  33
ATOM     33  O   UNL     1      20.995  13.688  -2.231  0.00  0.00    -0.353 OA
BRANCH  33  34
ATOM     34  C   UNL     1      20.632  13.701  -0.857  0.00  0.00    +0.197 C 
BRANCH  34  35
ATOM     35  C   UNL     1      21.110  12.410  -0.251  0.00  0.00    -0.022 A 
ATOM     36  C   UNL     1      21.268  12.290   1.137  0.00  0.00    +0.006 A 
ATOM     37  C   UNL     1      21.749  11.104   1.696  0.00  0.00    +0.000 A 
ATOM     38  C   UNL     1      22.084  10.031   0.874  0.00  0.00    +0.000 A 
ATOM     39  C   UNL     1      21.943  10.142  -0.509  0.00  0.00    +0.000 A 
ATOM     40  C   UNL     1      21.462  11.327  -1.069  0.00  0.00    +0.006 A 
ENDBRANCH  34  35
ENDBRANCH  33  34
ENDBRANCH  32  33
ENDBRANCH  30  32
ENDBRANCH  26  28
ENDBRANCH  25  26
ENDBRANCH  24  25
ENDBRANCH   1  24
TORSDOF 14
