REMARK VINA RESULT:    -6.614      1.567      2.900
REMARK INTER + INTRA:         -14.553
REMARK INTER:                 -12.608
REMARK INTRA:                  -1.945
REMARK UNBOUND:                -2.913
REMARK  Name = lig_assembled_92.pdb
REMARK  13 active torsions:
REMARK  status: ('A' for Active; 'I' for Inactive)
REMARK    1  A    between atoms: _2  and  _10
REMARK    2  A    between atoms: _3  and  _49
REMARK    3  A    between atoms: _7  and  _8
REMARK    4  A    between atoms: _7  and  _20
REMARK    5  A    between atoms: _13  and  _49
REMARK    6  A    between atoms: _20  and  _22
REMARK    7  A    between atoms: _21  and  _26
REMARK    8  A    between atoms: _22  and  _25
REMARK    9  A    between atoms: _30  and  _40
REMARK   10  A    between atoms: _32  and  _33
REMARK   11  A    between atoms: _34  and  _36
REMARK   12  A    between atoms: _36  and  _38
REMARK   13  A    between atoms: _38  and  _40
REMARK                            x       y       z     vdW  Elec       q    Type
REMARK                         _______ _______ _______ _____ _____    ______ ____
ROOT
ATOM      1  O   UNL     1      27.581  16.888  -2.039  0.00  0.00    -0.450 OA
ENDROOT
BRANCH   1   2
ATOM      2  C   UNL     1      27.909  17.339  -0.873  0.00  0.00    +0.400 C 
ATOM      3  N   UNL     1      28.656  16.488  -0.094  0.00  0.00    -0.278 N 
ATOM      4  H   UNL     1      28.977  17.110   0.714  0.00  0.00    +0.152 HD
ATOM      5  O   UNL     1      27.641  18.451  -0.425  0.00  0.00    -0.226 OA
BRANCH   3   6
ATOM      6  C   UNL     1      29.183  15.144   0.128  0.00  0.00    +0.152 C 
BRANCH   6   7
ATOM      7  C   UNL     1      30.715  15.029   0.265  0.00  0.00    +0.193 C 
ATOM      8  O   UNL     1      31.081  15.756   1.459  0.00  0.00    -0.219 OA
BRANCH   7   9
ATOM      9  C   UNL     1      31.310  13.619   0.475  0.00  0.00    +0.212 C 
ATOM     10  O   UNL     1      32.288  13.332  -0.538  0.00  0.00    -0.218 OA
BRANCH   9  11
ATOM     11  C   UNL     1      31.978  13.427   1.890  0.00  0.00    +0.171 C 
ATOM     12  O   UNL     1      33.318  12.954   1.803  0.00  0.00    -0.343 OA
ATOM     13  C   UNL     1      34.055  12.470   2.887  0.00  0.00    +0.220 C 
ATOM     14  C   UNL     1      33.275  11.406   3.678  0.00  0.00    +0.076 C 
ATOM     15  C   UNL     1      31.908  12.010   4.042  0.00  0.00    +0.177 C 
ATOM     16  O   UNL     1      31.160  11.079   4.811  0.00  0.00    -0.221 OA
ATOM     17  C   UNL     1      31.141  12.423   2.747  0.00  0.00    +0.155 C 
BRANCH  17  18
ATOM     18  N   UNL     1      29.839  12.991   3.088  0.00  0.00    -0.202 NA
ATOM     19  C   UNL     1      28.593  12.539   2.797  0.00  0.00    +0.242 C 
ATOM     20  C   UNL     1      27.422  13.154   3.520  0.00  0.00    +0.096 C 
ATOM     21  O   UNL     1      28.448  11.649   1.962  0.00  0.00    -0.273 OA
ENDBRANCH  17  18
BRANCH  13  22
ATOM     22  C   UNL     1      34.620  13.643   3.859  0.00  0.00    +0.391 C 
ATOM     23  O   UNL     1      34.950  14.652   3.031  0.00  0.00    -0.243 OA
ATOM     24  O   UNL     1      34.269  13.292   5.103  0.00  0.00    -0.243 OA
ENDBRANCH  13  22
ENDBRANCH   9  11
ENDBRANCH   7   9
ENDBRANCH   6   7
ENDBRANCH   3   6
ENDBRANCH   1   2
BRANCH   1  25
ATOM     25  C   UNL     1      27.084  17.364  -3.268  0.00  0.00    +0.240 C 
BRANCH  25  26
ATOM     26  C   UNL     1      26.456  16.335  -4.228  0.00  0.00    +0.100 C 
BRANCH  26  28
ATOM     27  N   UNL     1      26.690  13.905  -3.794  0.00  0.00    -0.134 NA
ATOM     28  C   UNL     1      26.104  15.103  -3.500  0.00  0.00    +0.086 A 
ATOM     29  C   UNL     1      25.210  14.924  -2.469  0.00  0.00    +0.139 A 
ATOM     30  N   UNL     1      25.306  13.591  -2.142  0.00  0.00    -0.220 N 
ATOM     31  N   UNL     1      26.196  12.990  -2.969  0.00  0.00    -0.061 NA
BRANCH  30  32
ATOM     32  C   UNL     1      24.647  12.890  -1.100  0.00  0.00    +0.067 A 
ATOM     33  C   UNL     1      25.380  12.359  -0.028  0.00  0.00    +0.030 A 
ATOM     34  C   UNL     1      24.737  11.620   0.964  0.00  0.00    +0.031 A 
ATOM     35  C   UNL     1      23.357  11.419   0.896  0.00  0.00    +0.109 A 
ATOM     36  C   UNL     1      22.612  11.949  -0.160  0.00  0.00    +0.031 A 
ATOM     37  C   UNL     1      23.256  12.695  -1.154  0.00  0.00    +0.030 A 
BRANCH  35  38
ATOM     38  S   UNL     1      22.599  10.349   2.089  0.00  0.00    +0.074 S 
ATOM     39  O   UNL     1      21.440  11.038   2.621  0.00  0.00    -0.150 OA
ATOM     40  O   UNL     1      22.456   9.034   1.507  0.00  0.00    -0.150 OA
BRANCH  38  41
ATOM     41  N   UNL     1      23.712  10.322   3.358  0.00  0.00    -0.194 N 
ATOM     42  H   UNL     1      23.248  10.757   4.152  0.00  0.00    +0.176 HD
ATOM     43  C   UNL     1      24.181   9.020   3.627  0.00  0.00    +0.177 A 
ATOM     44  S   UNL     1      23.536   8.044   4.872  0.00  0.00    -0.059 S 
ATOM     45  C   UNL     1      24.725   6.856   4.527  0.00  0.00    +0.068 A 
ATOM     46  C   UNL     1      25.571   7.326   3.544  0.00  0.00    +0.120 A 
ATOM     47  N   UNL     1      25.237   8.555   3.006  0.00  0.00    -0.232 NA
ENDBRANCH  38  41
ENDBRANCH  35  38
ENDBRANCH  30  32
ENDBRANCH  26  28
ENDBRANCH  25  26
ENDBRANCH   1  25
TORSDOF 13
