REMARK VINA RESULT:    -5.715     22.185     25.478
REMARK INTER + INTRA:         -12.346
REMARK INTER:                 -10.347
REMARK INTRA:                  -1.998
REMARK UNBOUND:                -1.953
REMARK  Name = lig_assembled_13.pdb
REMARK  15 active torsions:
REMARK  status: ('A' for Active; 'I' for Inactive)
REMARK    1  A    between atoms: _2  and  _8
REMARK    2  A    between atoms: _4  and  _10
REMARK    3  A    between atoms: _5  and  _6
REMARK    4  A    between atoms: _5  and  _13
REMARK    5  A    between atoms: _8  and  _9
REMARK    6  A    between atoms: _9  and  _11
REMARK    7  A    between atoms: _10  and  _11
REMARK    8  A    between atoms: _13  and  _15
REMARK    9  A    between atoms: _14  and  _19
REMARK   10  A    between atoms: _15  and  _18
REMARK   11  A    between atoms: _23  and  _33
REMARK   12  A    between atoms: _25  and  _26
REMARK   13  A    between atoms: _27  and  _29
REMARK   14  A    between atoms: _29  and  _31
REMARK   15  A    between atoms: _31  and  _33
REMARK                            x       y       z     vdW  Elec       q    Type
REMARK                         _______ _______ _______ _____ _____    ______ ____
ROOT
ATOM      1  C   UNL     1      46.859  25.387   9.758  0.00  0.00    +0.152 C 
ENDROOT
BRANCH   1   3
ATOM      2  C   UNL     1      44.690  26.640  10.840  0.00  0.00    +0.400 C 
ATOM      3  N   UNL     1      45.534  25.953  10.000  0.00  0.00    -0.278 N 
ATOM      4  H   UNL     1      44.930  25.771   9.137  0.00  0.00    +0.152 HD
ATOM      5  O   UNL     1      43.612  27.022  10.392  0.00  0.00    -0.226 OA
BRANCH   2   6
ATOM      6  O   UNL     1      45.110  26.793  12.053  0.00  0.00    -0.450 OA
BRANCH   6   7
ATOM      7  C   UNL     1      46.245  26.503  12.836  0.00  0.00    +0.240 C 
BRANCH   7   8
ATOM      8  C   UNL     1      46.761  27.608  13.776  0.00  0.00    +0.100 C 
BRANCH   8  10
ATOM      9  N   UNL     1      45.089  28.245  15.485  0.00  0.00    -0.134 NA
ATOM     10  C   UNL     1      46.154  27.472  15.111  0.00  0.00    +0.086 A 
ATOM     11  C   UNL     1      46.495  26.642  16.152  0.00  0.00    +0.134 A 
ATOM     12  N   UNL     1      45.643  27.005  17.154  0.00  0.00    -0.241 N 
ATOM     13  N   UNL     1      44.769  27.935  16.735  0.00  0.00    -0.065 NA
BRANCH  12  14
ATOM     14  C   UNL     1      45.534  26.449  18.484  0.00  0.00    +0.265 C 
BRANCH  14  15
ATOM     15  C   UNL     1      44.803  25.136  18.487  0.00  0.00    +0.329 C 
ATOM     16  O   UNL     1      43.632  24.955  18.190  0.00  0.00    -0.249 OA
BRANCH  15  17
ATOM     17  O   UNL     1      45.633  24.169  18.983  0.00  0.00    -0.464 OA
BRANCH  17  18
ATOM     18  C   UNL     1      45.699  22.968  18.198  0.00  0.00    +0.229 C 
ATOM     19  C   UNL     1      45.332  21.803  19.100  0.00  0.00    +0.048 C 
ENDBRANCH  17  18
ENDBRANCH  15  17
ENDBRANCH  14  15
ENDBRANCH  12  14
ENDBRANCH   8  10
ENDBRANCH   7   8
ENDBRANCH   6   7
ENDBRANCH   2   6
ENDBRANCH   1   3
BRANCH   1  20
ATOM     20  C   UNL     1      46.965  23.850   9.830  0.00  0.00    +0.193 C 
ATOM     21  O   UNL     1      48.291  23.547  10.317  0.00  0.00    -0.219 OA
BRANCH  20  22
ATOM     22  C   UNL     1      46.019  23.113  10.803  0.00  0.00    +0.212 C 
ATOM     23  O   UNL     1      44.655  23.233  10.366  0.00  0.00    -0.218 OA
BRANCH  22  24
ATOM     24  C   UNL     1      46.362  21.583  10.969  0.00  0.00    +0.171 C 
ATOM     25  O   UNL     1      45.589  20.752  10.109  0.00  0.00    -0.343 OA
ATOM     26  C   UNL     1      45.511  19.362  10.217  0.00  0.00    +0.220 C 
ATOM     27  C   UNL     1      45.180  18.918  11.652  0.00  0.00    +0.076 C 
ATOM     28  C   UNL     1      46.201  19.585  12.590  0.00  0.00    +0.177 C 
ATOM     29  O   UNL     1      45.964  19.175  13.929  0.00  0.00    -0.221 OA
ATOM     30  C   UNL     1      46.126  21.137  12.449  0.00  0.00    +0.155 C 
BRANCH  30  31
ATOM     31  N   UNL     1      47.090  21.774  13.343  0.00  0.00    -0.202 NA
ATOM     32  C   UNL     1      46.893  22.708  14.308  0.00  0.00    +0.242 C 
ATOM     33  C   UNL     1      48.010  22.977  15.282  0.00  0.00    +0.096 C 
ATOM     34  O   UNL     1      45.820  23.305  14.365  0.00  0.00    -0.273 OA
ENDBRANCH  30  31
BRANCH  26  35
ATOM     35  C   UNL     1      46.823  18.594   9.643  0.00  0.00    +0.391 C 
ATOM     36  O   UNL     1      46.697  17.323  10.070  0.00  0.00    -0.243 OA
ATOM     37  O   UNL     1      47.363  19.414   8.732  0.00  0.00    -0.243 OA
ENDBRANCH  26  35
ENDBRANCH  22  24
ENDBRANCH  20  22
ENDBRANCH   1  20
TORSDOF 14
