REMARK VINA RESULT:    -6.155      3.436      7.518
REMARK INTER + INTRA:         -13.750
REMARK INTER:                 -11.069
REMARK INTRA:                  -2.681
REMARK UNBOUND:                -1.837
REMARK  Name = lig_assembled_45.pdb
REMARK  19 active torsions:
REMARK  status: ('A' for Active; 'I' for Inactive)
REMARK    1  A    between atoms: _2  and  _9
REMARK    2  A    between atoms: _3  and  _11
REMARK    3  A    between atoms: _3  and  _12
REMARK    4  A    between atoms: _3  and  _13
REMARK    5  A    between atoms: _3  and  _15
REMARK    6  A    between atoms: _5  and  _15
REMARK    7  A    between atoms: _6  and  _7
REMARK    8  A    between atoms: _6  and  _16
REMARK    9  A    between atoms: _9  and  _10
REMARK   10  A    between atoms: _10  and  _11
REMARK   11  A    between atoms: _13  and  _14
REMARK   12  A    between atoms: _16  and  _18
REMARK   13  A    between atoms: _17  and  _22
REMARK   14  A    between atoms: _18  and  _21
REMARK   15  A    between atoms: _26  and  _36
REMARK   16  A    between atoms: _28  and  _29
REMARK   17  A    between atoms: _30  and  _32
REMARK   18  A    between atoms: _32  and  _34
REMARK   19  A    between atoms: _34  and  _36
REMARK                            x       y       z     vdW  Elec       q    Type
REMARK                         _______ _______ _______ _____ _____    ______ ____
ROOT
ATOM      1  C   UNL     1      28.258  17.295  -0.575  0.00  0.00    +0.400 C 
ATOM      2  N   UNL     1      27.308  16.662  -1.342  0.00  0.00    -0.278 N 
ATOM      3  H   UNL     1      26.386  16.986  -0.910  0.00  0.00    +0.152 HD
ATOM      4  O   UNL     1      27.882  18.151   0.222  0.00  0.00    -0.226 OA
ENDROOT
BRANCH   2   5
ATOM      5  C   UNL     1      27.002  15.777  -2.463  0.00  0.00    +0.152 C 
BRANCH   5   6
ATOM      6  C   UNL     1      25.770  16.157  -3.311  0.00  0.00    +0.193 C 
ATOM      7  O   UNL     1      26.010  17.488  -3.819  0.00  0.00    -0.219 OA
BRANCH   6   8
ATOM      8  C   UNL     1      25.481  15.310  -4.570  0.00  0.00    +0.212 C 
ATOM      9  O   UNL     1      26.402  15.643  -5.621  0.00  0.00    -0.218 OA
BRANCH   8  10
ATOM     10  C   UNL     1      25.555  13.757  -4.309  0.00  0.00    +0.171 C 
ATOM     11  O   UNL     1      26.406  13.086  -5.233  0.00  0.00    -0.343 OA
ATOM     12  C   UNL     1      26.465  11.699  -5.386  0.00  0.00    +0.220 C 
ATOM     13  C   UNL     1      25.066  11.085  -5.568  0.00  0.00    +0.076 C 
ATOM     14  C   UNL     1      24.191  11.571  -4.400  0.00  0.00    +0.177 C 
ATOM     15  O   UNL     1      22.895  11.000  -4.499  0.00  0.00    -0.221 OA
ATOM     16  C   UNL     1      24.125  13.130  -4.391  0.00  0.00    +0.155 C 
BRANCH  16  17
ATOM     17  N   UNL     1      23.289  13.596  -3.287  0.00  0.00    -0.202 NA
ATOM     18  C   UNL     1      22.204  14.411  -3.304  0.00  0.00    +0.242 C 
ATOM     19  C   UNL     1      21.352  14.493  -2.064  0.00  0.00    +0.096 C 
ATOM     20  O   UNL     1      21.943  15.054  -4.319  0.00  0.00    -0.273 OA
ENDBRANCH  16  17
BRANCH  12  21
ATOM     21  C   UNL     1      27.295  10.953  -4.205  0.00  0.00    +0.391 C 
ATOM     22  O   UNL     1      26.965   9.651  -4.318  0.00  0.00    -0.243 OA
ATOM     23  O   UNL     1      28.202  11.838  -3.774  0.00  0.00    -0.243 OA
ENDBRANCH  12  21
ENDBRANCH   8  10
ENDBRANCH   6   8
ENDBRANCH   5   6
ENDBRANCH   2   5
BRANCH   1  24
ATOM     24  O   UNL     1      29.475  16.898  -0.751  0.00  0.00    -0.450 OA
BRANCH  24  25
ATOM     25  C   UNL     1      30.570  16.442   0.009  0.00  0.00    +0.240 C 
BRANCH  25  26
ATOM     26  C   UNL     1      30.886  14.935  -0.033  0.00  0.00    +0.100 C 
BRANCH  26  28
ATOM     27  N   UNL     1      29.018  13.570  -0.928  0.00  0.00    -0.134 NA
ATOM     28  C   UNL     1      29.650  14.149   0.139  0.00  0.00    +0.086 A 
ATOM     29  C   UNL     1      28.945  13.865   1.288  0.00  0.00    +0.133 A 
ATOM     30  N   UNL     1      27.904  13.112   0.840  0.00  0.00    -0.251 N 
ATOM     31  N   UNL     1      27.939  12.939  -0.483  0.00  0.00    -0.065 NA
BRANCH  30  32
ATOM     32  C   UNL     1      26.826  12.550   1.627  0.00  0.00    +0.150 C 
BRANCH  32  33
ATOM     33  C   UNL     1      25.699  11.984   0.772  0.00  0.00    +0.074 C 
BRANCH  33  34
ATOM     34  C   UNL     1      24.958  10.759   1.325  0.00  0.00    +0.134 C 
BRANCH  34  35
ATOM     35  N   UNL     1      23.538  10.440   0.751  0.00  0.00    +0.241 N 
ATOM     36  C   UNL     1      23.700   9.622  -0.541  0.00  0.00    +0.192 C 
BRANCH  35  37
ATOM     37  C   UNL     1      22.898  11.821   0.387  0.00  0.00    +0.129 C 
ATOM     38  C   UNL     1      21.378  11.849   0.501  0.00  0.00    +0.060 C 
ENDBRANCH  35  37
BRANCH  35  39
ATOM     39  C   UNL     1      22.610   9.675   1.712  0.00  0.00    +0.129 C 
ATOM     40  C   UNL     1      23.101   9.630   3.150  0.00  0.00    +0.060 C 
ENDBRANCH  35  39
ENDBRANCH  34  35
ENDBRANCH  33  34
ENDBRANCH  32  33
ENDBRANCH  30  32
ENDBRANCH  26  28
ENDBRANCH  25  26
ENDBRANCH  24  25
ENDBRANCH   1  24
TORSDOF 16
