REMARK VINA RESULT:    -7.679      4.040     10.473
REMARK INTER + INTRA:         -14.384
REMARK INTER:                 -11.877
REMARK INTRA:                  -2.507
REMARK UNBOUND:                -1.768
REMARK  Name = lig_assembled_91.pdb
REMARK  11 active torsions:
REMARK  status: ('A' for Active; 'I' for Inactive)
REMARK    1  A    between atoms: _2  and  _9
REMARK    2  A    between atoms: _6  and  _7
REMARK    3  A    between atoms: _6  and  _21
REMARK    4  A    between atoms: _21  and  _23
REMARK    5  A    between atoms: _22  and  _27
REMARK    6  A    between atoms: _23  and  _26
REMARK    7  A    between atoms: _31  and  _41
REMARK    8  A    between atoms: _33  and  _34
REMARK    9  A    between atoms: _35  and  _37
REMARK   10  A    between atoms: _37  and  _39
REMARK   11  A    between atoms: _39  and  _41
REMARK                            x       y       z     vdW  Elec       q    Type
REMARK                         _______ _______ _______ _____ _____    ______ ____
ROOT
ATOM      1  C   UNL     1      33.236  13.271   1.567  0.00  0.00    +0.400 C 
ATOM      2  N   UNL     1      32.021  13.896   1.412  0.00  0.00    -0.278 N 
ATOM      3  H   UNL     1      31.412  13.144   0.959  0.00  0.00    +0.152 HD
ATOM      4  O   UNL     1      33.297  12.062   1.354  0.00  0.00    -0.226 OA
ENDROOT
BRANCH   1   5
ATOM      5  O   UNL     1      34.222  14.038   1.897  0.00  0.00    -0.450 OA
BRANCH   5   6
ATOM      6  C   UNL     1      35.145  14.198   2.950  0.00  0.00    +0.240 C 
BRANCH   6   7
ATOM      7  C   UNL     1      35.817  12.928   3.505  0.00  0.00    +0.100 C 
BRANCH   7   9
ATOM      8  N   UNL     1      35.300  11.097   5.080  0.00  0.00    -0.134 NA
ATOM      9  C   UNL     1      34.966  12.299   4.533  0.00  0.00    +0.086 A 
ATOM     10  C   UNL     1      33.799  12.742   5.114  0.00  0.00    +0.139 A 
ATOM     11  N   UNL     1      33.420  11.745   5.990  0.00  0.00    -0.219 N 
ATOM     12  N   UNL     1      34.366  10.771   5.959  0.00  0.00    -0.060 NA
BRANCH  11  13
ATOM     13  C   UNL     1      32.259  11.654   6.820  0.00  0.00    +0.085 A 
ATOM     14  C   UNL     1      32.332  12.025   8.211  0.00  0.00    +0.026 A 
ATOM     15  C   UNL     1      31.139  11.874   8.944  0.00  0.00    +0.074 A 
ATOM     16  C   UNL     1      31.086  12.198  10.291  0.00  0.00    +0.028 A 
ATOM     17  C   UNL     1      32.190  12.690  10.980  0.00  0.00    +0.002 A 
ATOM     18  C   UNL     1      33.371  12.888  10.294  0.00  0.00    +0.001 A 
ATOM     19  N   UNL     1      29.994  11.444   8.418  0.00  0.00    -0.247 NA
ATOM     20  C   UNL     1      29.924  11.128   7.125  0.00  0.00    +0.074 A 
ATOM     21  C   UNL     1      28.681  10.689   6.682  0.00  0.00    +0.028 A 
ATOM     22  C   UNL     1      28.460  10.288   5.368  0.00  0.00    +0.002 A 
ATOM     23  C   UNL     1      29.512  10.315   4.474  0.00  0.00    +0.001 A 
ATOM     24  C   UNL     1      30.770  10.750   4.906  0.00  0.00    +0.012 A 
ATOM     25  C   UNL     1      33.437  12.584   8.930  0.00  0.00    +0.012 A 
ATOM     26  C   UNL     1      31.018  11.193   6.246  0.00  0.00    +0.026 A 
ENDBRANCH  11  13
ENDBRANCH   7   9
ENDBRANCH   6   7
ENDBRANCH   5   6
ENDBRANCH   1   5
BRANCH   2  27
ATOM     27  C   UNL     1      31.205  15.093   1.599  0.00  0.00    +0.152 C 
BRANCH  27  28
ATOM     28  C   UNL     1      30.531  15.661   0.333  0.00  0.00    +0.193 C 
ATOM     29  O   UNL     1      31.591  16.156  -0.514  0.00  0.00    -0.219 OA
BRANCH  28  30
ATOM     30  C   UNL     1      29.749  14.676  -0.564  0.00  0.00    +0.212 C 
ATOM     31  O   UNL     1      30.608  13.613  -1.010  0.00  0.00    -0.218 OA
BRANCH  30  32
ATOM     32  C   UNL     1      28.494  14.044   0.149  0.00  0.00    +0.171 C 
ATOM     33  O   UNL     1      28.842  12.985   1.035  0.00  0.00    -0.343 OA
ATOM     34  C   UNL     1      27.924  12.099   1.604  0.00  0.00    +0.220 C 
ATOM     35  C   UNL     1      26.994  11.483   0.545  0.00  0.00    +0.076 C 
ATOM     36  C   UNL     1      26.368  12.641  -0.251  0.00  0.00    +0.177 C 
ATOM     37  O   UNL     1      25.466  12.127  -1.220  0.00  0.00    -0.221 OA
ATOM     38  C   UNL     1      27.487  13.501  -0.917  0.00  0.00    +0.155 C 
BRANCH  38  39
ATOM     39  N   UNL     1      26.897  14.598  -1.680  0.00  0.00    -0.202 NA
ATOM     40  C   UNL     1      26.630  14.687  -3.008  0.00  0.00    +0.242 C 
ATOM     41  C   UNL     1      25.750  15.811  -3.487  0.00  0.00    +0.096 C 
ATOM     42  O   UNL     1      27.107  13.857  -3.780  0.00  0.00    -0.273 OA
ENDBRANCH  38  39
BRANCH  34  43
ATOM     43  C   UNL     1      27.083  12.742   2.836  0.00  0.00    +0.391 C 
ATOM     44  O   UNL     1      26.021  11.928   2.995  0.00  0.00    -0.243 OA
ATOM     45  O   UNL     1      27.896  13.636   3.413  0.00  0.00    -0.243 OA
ENDBRANCH  34  43
ENDBRANCH  30  32
ENDBRANCH  28  30
ENDBRANCH  27  28
ENDBRANCH   2  27
TORSDOF 11
