REMARK VINA RESULT:    -5.909      1.369      3.388
REMARK INTER + INTRA:         -14.567
REMARK INTER:                 -12.355
REMARK INTRA:                  -2.212
REMARK UNBOUND:                -2.957
REMARK  Name = lig_assembled_74.pdb
REMARK  19 active torsions:
REMARK  status: ('A' for Active; 'I' for Inactive)
REMARK    1  A    between atoms: _2  and  _8
REMARK    2  A    between atoms: _4  and  _13
REMARK    3  A    between atoms: _5  and  _6
REMARK    4  A    between atoms: _5  and  _17
REMARK    5  A    between atoms: _8  and  _9
REMARK    6  A    between atoms: _9  and  _10
REMARK    7  A    between atoms: _9  and  _12
REMARK    8  A    between atoms: _10  and  _11
REMARK    9  A    between atoms: _11  and  _15
REMARK   10  A    between atoms: _12  and  _13
REMARK   11  A    between atoms: _13  and  _14
REMARK   12  A    between atoms: _17  and  _19
REMARK   13  A    between atoms: _18  and  _23
REMARK   14  A    between atoms: _19  and  _22
REMARK   15  A    between atoms: _27  and  _37
REMARK   16  A    between atoms: _29  and  _30
REMARK   17  A    between atoms: _31  and  _33
REMARK   18  A    between atoms: _33  and  _35
REMARK   19  A    between atoms: _35  and  _37
REMARK                            x       y       z     vdW  Elec       q    Type
REMARK                         _______ _______ _______ _____ _____    ______ ____
ROOT
ATOM      1  C   UNL     1      29.161  17.167  -0.348  0.00  0.00    +0.400 C 
ATOM      2  N   UNL     1      29.180  15.955   0.301  0.00  0.00    -0.278 N 
ATOM      3  H   UNL     1      29.875  16.112   1.098  0.00  0.00    +0.152 HD
ATOM      4  O   UNL     1      29.731  18.117   0.182  0.00  0.00    -0.226 OA
ENDROOT
BRANCH   1   5
ATOM      5  O   UNL     1      28.558  17.180  -1.492  0.00  0.00    -0.450 OA
BRANCH   5   6
ATOM      6  C   UNL     1      27.283  17.453  -2.024  0.00  0.00    +0.240 C 
BRANCH   6   7
ATOM      7  C   UNL     1      27.112  17.346  -3.551  0.00  0.00    +0.100 C 
BRANCH   7   9
ATOM      8  N   UNL     1      26.015  15.753  -5.108  0.00  0.00    -0.134 NA
ATOM      9  C   UNL     1      26.050  16.378  -3.890  0.00  0.00    +0.086 A 
ATOM     10  C   UNL     1      25.032  15.885  -3.103  0.00  0.00    +0.133 A 
ATOM     11  N   UNL     1      24.539  14.841  -3.834  0.00  0.00    -0.251 N 
ATOM     12  N   UNL     1      25.066  14.828  -5.073  0.00  0.00    -0.065 NA
BRANCH  11  13
ATOM     13  C   UNL     1      23.846  13.674  -3.325  0.00  0.00    +0.149 C 
BRANCH  13  14
ATOM     14  C   UNL     1      23.874  13.497  -1.791  0.00  0.00    +0.021 C 
BRANCH  14  15
ATOM     15  C   UNL     1      24.409  12.122  -1.342  0.00  0.00    +0.125 C 
BRANCH  15  16
ATOM     16  C   UNL     1      25.798  12.146  -0.741  0.00  0.00    +0.305 C 
ATOM     17  O   UNL     1      26.829  11.934  -1.357  0.00  0.00    -0.251 OA
BRANCH  16  18
ATOM     18  O   UNL     1      25.803  12.498   0.558  0.00  0.00    -0.481 OA
ATOM     19  H   UNL     1      26.399  11.981   1.130  0.00  0.00    +0.295 HD
ENDBRANCH  16  18
ENDBRANCH  15  16
ENDBRANCH  14  15
BRANCH  14  20
ATOM     20  C   UNL     1      22.465  13.820  -1.215  0.00  0.00    +0.009 C 
BRANCH  20  21
ATOM     21  C   UNL     1      21.469  12.640  -1.166  0.00  0.00    -0.017 C 
ATOM     22  C   UNL     1      21.019  12.323   0.262  0.00  0.00    +0.007 C 
ATOM     23  C   UNL     1      20.234  12.942  -2.023  0.00  0.00    +0.007 C 
ENDBRANCH  20  21
ENDBRANCH  14  20
ENDBRANCH  13  14
ENDBRANCH  11  13
ENDBRANCH   7   9
ENDBRANCH   6   7
ENDBRANCH   5   6
ENDBRANCH   1   5
BRANCH   2  24
ATOM     24  C   UNL     1      28.679  14.586   0.396  0.00  0.00    +0.152 C 
BRANCH  24  25
ATOM     25  C   UNL     1      29.192  13.756   1.591  0.00  0.00    +0.193 C 
ATOM     26  O   UNL     1      28.756  12.397   1.370  0.00  0.00    -0.219 OA
BRANCH  25  27
ATOM     27  C   UNL     1      30.721  13.645   1.779  0.00  0.00    +0.212 C 
ATOM     28  O   UNL     1      31.279  14.923   2.123  0.00  0.00    -0.218 OA
BRANCH  27  29
ATOM     29  C   UNL     1      31.139  12.599   2.882  0.00  0.00    +0.171 C 
ATOM     30  O   UNL     1      30.467  12.809   4.119  0.00  0.00    -0.343 OA
ATOM     31  C   UNL     1      30.819  12.193   5.323  0.00  0.00    +0.220 C 
ATOM     32  C   UNL     1      32.321  12.342   5.621  0.00  0.00    +0.076 C 
ATOM     33  C   UNL     1      33.090  11.840   4.387  0.00  0.00    +0.177 C 
ATOM     34  O   UNL     1      34.488  11.918   4.626  0.00  0.00    -0.221 OA
ATOM     35  C   UNL     1      32.683  12.665   3.128  0.00  0.00    +0.155 C 
BRANCH  35  36
ATOM     36  N   UNL     1      33.416  12.196   1.955  0.00  0.00    -0.202 NA
ATOM     37  C   UNL     1      34.387  12.812   1.234  0.00  0.00    +0.242 C 
ATOM     38  C   UNL     1      35.181  11.990   0.253  0.00  0.00    +0.096 C 
ATOM     39  O   UNL     1      34.595  14.013   1.398  0.00  0.00    -0.273 OA
ENDBRANCH  35  36
BRANCH  31  40
ATOM     40  C   UNL     1      30.341  10.644   5.421  0.00  0.00    +0.391 C 
ATOM     41  O   UNL     1      29.172  10.597   4.753  0.00  0.00    -0.243 OA
ATOM     42  O   UNL     1      31.406   9.955   5.851  0.00  0.00    -0.243 OA
ENDBRANCH  31  40
ENDBRANCH  27  29
ENDBRANCH  25  27
ENDBRANCH  24  25
ENDBRANCH   2  24
TORSDOF 17
