REMARK VINA RESULT:    -7.550      2.621      8.412
REMARK INTER + INTRA:         -14.351
REMARK INTER:                 -11.699
REMARK INTRA:                  -2.651
REMARK UNBOUND:                -1.503
REMARK  Name = lig_assembled_89.pdb
REMARK  14 active torsions:
REMARK  status: ('A' for Active; 'I' for Inactive)
REMARK    1  A    between atoms: _2  and  _11
REMARK    2  A    between atoms: _5  and  _19
REMARK    3  A    between atoms: _8  and  _9
REMARK    4  A    between atoms: _8  and  _24
REMARK    5  A    between atoms: _19  and  _20
REMARK    6  A    between atoms: _19  and  _21
REMARK    7  A    between atoms: _24  and  _26
REMARK    8  A    between atoms: _25  and  _30
REMARK    9  A    between atoms: _26  and  _29
REMARK   10  A    between atoms: _34  and  _44
REMARK   11  A    between atoms: _36  and  _37
REMARK   12  A    between atoms: _38  and  _40
REMARK   13  A    between atoms: _40  and  _42
REMARK   14  A    between atoms: _42  and  _44
REMARK                            x       y       z     vdW  Elec       q    Type
REMARK                         _______ _______ _______ _____ _____    ______ ____
ROOT
ATOM      1  C   UNL     1      26.378  16.045  -4.089  0.00  0.00    +0.240 C 
ENDROOT
BRANCH   1   2
ATOM      2  C   UNL     1      26.728  17.197  -3.128  0.00  0.00    +0.100 C 
BRANCH   2   4
ATOM      3  N   UNL     1      28.543  17.544  -1.496  0.00  0.00    -0.134 NA
ATOM      4  C   UNL     1      27.620  16.715  -2.060  0.00  0.00    +0.087 A 
ATOM      5  C   UNL     1      27.696  15.483  -1.455  0.00  0.00    +0.141 A 
ATOM      6  N   UNL     1      28.677  15.613  -0.491  0.00  0.00    -0.200 N 
ATOM      7  N   UNL     1      29.172  16.871  -0.543  0.00  0.00    -0.059 NA
BRANCH   6   8
ATOM      8  C   UNL     1      29.040  14.620   0.466  0.00  0.00    +0.186 A 
ATOM      9  C   UNL     1      30.177  13.840   0.540  0.00  0.00    +0.158 A 
ATOM     10  C   UNL     1      31.291  13.648  -0.336  0.00  0.00    +0.280 A 
ATOM     11  O   UNL     1      31.247  13.930  -1.525  0.00  0.00    -0.265 OA
ATOM     12  N   UNL     1      32.433  13.077   0.262  0.00  0.00    -0.302 N 
ATOM     13  C   UNL     1      32.313  12.334   1.496  0.00  0.00    +0.069 A 
ATOM     14  C   UNL     1      33.340  11.518   1.993  0.00  0.00    +0.028 A 
ATOM     15  C   UNL     1      33.170  10.771   3.167  0.00  0.00    +0.002 A 
ATOM     16  C   UNL     1      31.976  10.833   3.877  0.00  0.00    +0.002 A 
ATOM     17  C   UNL     1      30.940  11.642   3.420  0.00  0.00    +0.028 A 
ATOM     18  C   UNL     1      31.110  12.375   2.236  0.00  0.00    +0.072 A 
ATOM     19  N   UNL     1      30.083  13.196   1.743  0.00  0.00    -0.291 N 
ATOM     20  C   UNL     1      28.865  13.517   2.287  0.00  0.00    +0.207 A 
ATOM     21  N   UNL     1      28.211  14.386   1.546  0.00  0.00    -0.216 NA
BRANCH  12  22
ATOM     22  C   UNL     1      33.698  13.085  -0.512  0.00  0.00    +0.085 C 
ATOM     23  C   UNL     1      34.099  14.480  -1.029  0.00  0.00    +0.030 C 
ATOM     24  C   UNL     1      33.666  12.076  -1.660  0.00  0.00    +0.030 C 
ENDBRANCH  12  22
ENDBRANCH   6   8
ENDBRANCH   2   4
ENDBRANCH   1   2
BRANCH   1  25
ATOM     25  O   UNL     1      25.017  15.717  -4.244  0.00  0.00    -0.450 OA
BRANCH  25  26
ATOM     26  C   UNL     1      24.043  15.226  -3.551  0.00  0.00    +0.400 C 
ATOM     27  N   UNL     1      23.817  13.879  -3.713  0.00  0.00    -0.278 N 
ATOM     28  H   UNL     1      23.128  13.648  -2.930  0.00  0.00    +0.152 HD
ATOM     29  O   UNL     1      23.336  15.840  -2.756  0.00  0.00    -0.226 OA
BRANCH  27  30
ATOM     30  C   UNL     1      24.080  12.655  -4.466  0.00  0.00    +0.152 C 
BRANCH  30  31
ATOM     31  C   UNL     1      24.760  11.511  -3.687  0.00  0.00    +0.193 C 
ATOM     32  O   UNL     1      25.758  12.121  -2.839  0.00  0.00    -0.219 OA
BRANCH  31  33
ATOM     33  C   UNL     1      23.884  10.685  -2.719  0.00  0.00    +0.212 C 
ATOM     34  O   UNL     1      24.226   9.292  -2.798  0.00  0.00    -0.218 OA
BRANCH  33  35
ATOM     35  C   UNL     1      24.005  11.149  -1.218  0.00  0.00    +0.171 C 
ATOM     36  O   UNL     1      24.641  10.178  -0.394  0.00  0.00    -0.343 OA
ATOM     37  C   UNL     1      24.661  10.220   1.003  0.00  0.00    +0.220 C 
ATOM     38  C   UNL     1      23.252  10.423   1.587  0.00  0.00    +0.076 C 
ATOM     39  C   UNL     1      22.645  11.663   0.911  0.00  0.00    +0.177 C 
ATOM     40  O   UNL     1      21.354  11.920   1.446  0.00  0.00    -0.221 OA
ATOM     41  C   UNL     1      22.587  11.458  -0.635  0.00  0.00    +0.155 C 
BRANCH  41  42
ATOM     42  N   UNL     1      22.004  12.631  -1.281  0.00  0.00    -0.202 NA
ATOM     43  C   UNL     1      20.885  12.736  -2.043  0.00  0.00    +0.242 C 
ATOM     44  C   UNL     1      20.349  14.112  -2.339  0.00  0.00    +0.096 C 
ATOM     45  O   UNL     1      20.341  11.718  -2.466  0.00  0.00    -0.273 OA
ENDBRANCH  41  42
BRANCH  37  46
ATOM     46  C   UNL     1      25.717  11.299   1.602  0.00  0.00    +0.391 C 
ATOM     47  O   UNL     1      25.308  11.521   2.866  0.00  0.00    -0.243 OA
ATOM     48  O   UNL     1      26.744  11.328   0.743  0.00  0.00    -0.243 OA
ENDBRANCH  37  46
ENDBRANCH  33  35
ENDBRANCH  31  33
ENDBRANCH  30  31
ENDBRANCH  27  30
ENDBRANCH  25  26
ENDBRANCH   1  25
TORSDOF 12
