REMARK VINA RESULT:    -6.235      2.017      3.252
REMARK INTER + INTRA:         -15.207
REMARK INTER:                 -11.556
REMARK INTRA:                  -3.650
REMARK UNBOUND:                -2.957
REMARK  Name = lig_assembled_74.pdb
REMARK  19 active torsions:
REMARK  status: ('A' for Active; 'I' for Inactive)
REMARK    1  A    between atoms: _2  and  _8
REMARK    2  A    between atoms: _4  and  _13
REMARK    3  A    between atoms: _5  and  _6
REMARK    4  A    between atoms: _5  and  _17
REMARK    5  A    between atoms: _8  and  _9
REMARK    6  A    between atoms: _9  and  _10
REMARK    7  A    between atoms: _9  and  _12
REMARK    8  A    between atoms: _10  and  _11
REMARK    9  A    between atoms: _11  and  _15
REMARK   10  A    between atoms: _12  and  _13
REMARK   11  A    between atoms: _13  and  _14
REMARK   12  A    between atoms: _17  and  _19
REMARK   13  A    between atoms: _18  and  _23
REMARK   14  A    between atoms: _19  and  _22
REMARK   15  A    between atoms: _27  and  _37
REMARK   16  A    between atoms: _29  and  _30
REMARK   17  A    between atoms: _31  and  _33
REMARK   18  A    between atoms: _33  and  _35
REMARK   19  A    between atoms: _35  and  _37
REMARK                            x       y       z     vdW  Elec       q    Type
REMARK                         _______ _______ _______ _____ _____    ______ ____
ROOT
ATOM      1  C   UNL     1      28.773  17.009  -0.470  0.00  0.00    +0.400 C 
ATOM      2  N   UNL     1      28.777  15.890   0.330  0.00  0.00    -0.278 N 
ATOM      3  H   UNL     1      29.506  16.122   1.075  0.00  0.00    +0.152 HD
ATOM      4  O   UNL     1      29.394  17.997  -0.087  0.00  0.00    -0.226 OA
ENDROOT
BRANCH   1   5
ATOM      5  O   UNL     1      28.127  16.898  -1.584  0.00  0.00    -0.450 OA
BRANCH   5   6
ATOM      6  C   UNL     1      27.093  17.546  -2.288  0.00  0.00    +0.240 C 
BRANCH   6   7
ATOM      7  C   UNL     1      27.023  17.324  -3.811  0.00  0.00    +0.100 C 
BRANCH   7   9
ATOM      8  N   UNL     1      26.055  15.570  -5.278  0.00  0.00    -0.134 NA
ATOM      9  C   UNL     1      25.977  16.340  -4.148  0.00  0.00    +0.086 A 
ATOM     10  C   UNL     1      24.864  15.965  -3.426  0.00  0.00    +0.133 A 
ATOM     11  N   UNL     1      24.422  14.847  -4.076  0.00  0.00    -0.251 N 
ATOM     12  N   UNL     1      25.080  14.672  -5.238  0.00  0.00    -0.065 NA
BRANCH  11  13
ATOM     13  C   UNL     1      23.642  13.763  -3.512  0.00  0.00    +0.149 C 
BRANCH  13  14
ATOM     14  C   UNL     1      23.839  13.518  -1.999  0.00  0.00    +0.021 C 
BRANCH  14  15
ATOM     15  C   UNL     1      24.251  12.071  -1.661  0.00  0.00    +0.125 C 
BRANCH  15  16
ATOM     16  C   UNL     1      24.849  11.887  -0.282  0.00  0.00    +0.305 C 
ATOM     17  O   UNL     1      24.265  11.400   0.673  0.00  0.00    -0.251 OA
BRANCH  16  18
ATOM     18  O   UNL     1      26.140  12.258  -0.215  0.00  0.00    -0.481 OA
ATOM     19  H   UNL     1      26.784  11.594  -0.522  0.00  0.00    +0.295 HD
ENDBRANCH  16  18
ENDBRANCH  15  16
ENDBRANCH  14  15
BRANCH  14  20
ATOM     20  C   UNL     1      22.562  13.981  -1.238  0.00  0.00    +0.009 C 
BRANCH  20  21
ATOM     21  C   UNL     1      21.336  13.049  -1.348  0.00  0.00    -0.017 C 
ATOM     22  C   UNL     1      20.997  12.380  -0.015  0.00  0.00    +0.007 C 
ATOM     23  C   UNL     1      20.111  13.829  -1.841  0.00  0.00    +0.007 C 
ENDBRANCH  20  21
ENDBRANCH  14  20
ENDBRANCH  13  14
ENDBRANCH  11  13
ENDBRANCH   7   9
ENDBRANCH   6   7
ENDBRANCH   5   6
ENDBRANCH   1   5
BRANCH   2  24
ATOM     24  C   UNL     1      28.234  14.566   0.619  0.00  0.00    +0.152 C 
BRANCH  24  25
ATOM     25  C   UNL     1      29.153  13.612   1.409  0.00  0.00    +0.193 C 
ATOM     26  O   UNL     1      28.301  12.601   1.990  0.00  0.00    -0.219 OA
BRANCH  25  27
ATOM     27  C   UNL     1      30.209  12.814   0.612  0.00  0.00    +0.212 C 
ATOM     28  O   UNL     1      30.246  11.448   1.056  0.00  0.00    -0.218 OA
BRANCH  27  29
ATOM     29  C   UNL     1      29.962  12.832  -0.945  0.00  0.00    +0.171 C 
ATOM     30  O   UNL     1      28.875  12.000  -1.336  0.00  0.00    -0.343 OA
ATOM     31  C   UNL     1      28.593  11.642  -2.656  0.00  0.00    +0.220 C 
ATOM     32  C   UNL     1      29.836  11.089  -3.376  0.00  0.00    +0.076 C 
ATOM     33  C   UNL     1      30.962  12.123  -3.212  0.00  0.00    +0.177 C 
ATOM     34  O   UNL     1      32.126  11.679  -3.895  0.00  0.00    -0.221 OA
ATOM     35  C   UNL     1      31.251  12.368  -1.699  0.00  0.00    +0.155 C 
BRANCH  35  36
ATOM     36  N   UNL     1      32.326  13.345  -1.539  0.00  0.00    -0.202 NA
ATOM     37  C   UNL     1      33.500  13.241  -0.867  0.00  0.00    +0.242 C 
ATOM     38  C   UNL     1      34.558  14.287  -1.108  0.00  0.00    +0.096 C 
ATOM     39  O   UNL     1      33.673  12.307  -0.086  0.00  0.00    -0.273 OA
ENDBRANCH  35  36
BRANCH  31  40
ATOM     40  C   UNL     1      27.886  12.828  -3.512  0.00  0.00    +0.391 C 
ATOM     41  O   UNL     1      27.892  12.388  -4.786  0.00  0.00    -0.243 OA
ATOM     42  O   UNL     1      27.305  13.635  -2.616  0.00  0.00    -0.243 OA
ENDBRANCH  31  40
ENDBRANCH  27  29
ENDBRANCH  25  27
ENDBRANCH  24  25
ENDBRANCH   2  24
TORSDOF 17
