REMARK VINA RESULT:    -5.386     22.503     25.825
REMARK INTER + INTRA:         -11.833
REMARK INTER:                  -8.948
REMARK INTRA:                  -2.885
REMARK UNBOUND:                -2.511
REMARK  Name = lig_assembled_1.pdb
REMARK  13 active torsions:
REMARK  status: ('A' for Active; 'I' for Inactive)
REMARK    1  A    between atoms: _2  and  _8
REMARK    2  A    between atoms: _4  and  _8
REMARK    3  A    between atoms: _4  and  _9
REMARK    4  A    between atoms: _5  and  _6
REMARK    5  A    between atoms: _5  and  _10
REMARK    6  A    between atoms: _10  and  _12
REMARK    7  A    between atoms: _11  and  _16
REMARK    8  A    between atoms: _12  and  _15
REMARK    9  A    between atoms: _20  and  _30
REMARK   10  A    between atoms: _22  and  _23
REMARK   11  A    between atoms: _24  and  _26
REMARK   12  A    between atoms: _26  and  _28
REMARK   13  A    between atoms: _28  and  _30
REMARK                            x       y       z     vdW  Elec       q    Type
REMARK                         _______ _______ _______ _____ _____    ______ ____
ROOT
ATOM      1  C   UNL     1      46.880  27.513  12.252  0.00  0.00    +0.193 C 
ATOM      2  O   UNL     1      48.060  26.754  11.906  0.00  0.00    -0.219 OA
ENDROOT
BRANCH   1   3
ATOM      3  C   UNL     1      45.733  26.479  12.220  0.00  0.00    +0.212 C 
ATOM      4  O   UNL     1      44.720  26.883  11.285  0.00  0.00    -0.218 OA
BRANCH   3   5
ATOM      5  C   UNL     1      46.214  25.026  11.845  0.00  0.00    +0.171 C 
ATOM      6  O   UNL     1      45.365  24.397  10.891  0.00  0.00    -0.343 OA
ATOM      7  C   UNL     1      45.412  23.039  10.567  0.00  0.00    +0.220 C 
ATOM      8  C   UNL     1      45.375  22.152  11.823  0.00  0.00    +0.076 C 
ATOM      9  C   UNL     1      46.494  22.633  12.762  0.00  0.00    +0.177 C 
ATOM     10  O   UNL     1      46.529  21.818  13.925  0.00  0.00    -0.221 OA
ATOM     11  C   UNL     1      46.279  24.134  13.129  0.00  0.00    +0.155 C 
BRANCH  11  12
ATOM     12  N   UNL     1      47.336  24.593  14.026  0.00  0.00    -0.202 NA
ATOM     13  C   UNL     1      47.250  25.076  15.292  0.00  0.00    +0.242 C 
ATOM     14  C   UNL     1      48.517  25.199  16.098  0.00  0.00    +0.096 C 
ATOM     15  O   UNL     1      46.154  25.396  15.747  0.00  0.00    -0.273 OA
ENDBRANCH  11  12
BRANCH   7  16
ATOM     16  C   UNL     1      46.655  22.649   9.596  0.00  0.00    +0.391 C 
ATOM     17  O   UNL     1      46.718  21.303   9.636  0.00  0.00    -0.243 OA
ATOM     18  O   UNL     1      46.945  23.756   8.902  0.00  0.00    -0.243 OA
ENDBRANCH   7  16
ENDBRANCH   3   5
ENDBRANCH   1   3
BRANCH   1  19
ATOM     19  C   UNL     1      47.179  28.208  13.597  0.00  0.00    +0.152 C 
BRANCH  19  21
ATOM     20  C   UNL     1      45.604  28.629  15.785  0.00  0.00    +0.400 C 
ATOM     21  N   UNL     1      46.054  28.331  14.521  0.00  0.00    -0.278 N 
ATOM     22  H   UNL     1      45.157  28.098  13.988  0.00  0.00    +0.152 HD
ATOM     23  O   UNL     1      44.393  28.740  15.958  0.00  0.00    -0.226 OA
BRANCH  20  24
ATOM     24  O   UNL     1      46.518  28.736  16.694  0.00  0.00    -0.450 OA
BRANCH  24  25
ATOM     25  C   UNL     1      46.845  28.188  17.949  0.00  0.00    +0.240 C 
BRANCH  25  26
ATOM     26  C   UNL     1      45.684  27.861  18.907  0.00  0.00    +0.100 C 
BRANCH  26  28
ATOM     27  N   UNL     1      44.079  26.116  18.188  0.00  0.00    -0.134 NA
ATOM     28  C   UNL     1      45.278  26.450  18.760  0.00  0.00    +0.086 A 
ATOM     29  C   UNL     1      45.939  25.299  19.126  0.00  0.00    +0.133 A 
ATOM     30  N   UNL     1      45.089  24.301  18.755  0.00  0.00    -0.249 N 
ATOM     31  N   UNL     1      43.971  24.794  18.196  0.00  0.00    -0.065 NA
BRANCH  30  32
ATOM     32  C   UNL     1      45.276  22.874  18.893  0.00  0.00    +0.173 C 
BRANCH  32  33
ATOM     33  C   UNL     1      45.954  22.251  17.679  0.00  0.00    +0.179 C 
BRANCH  33  34
ATOM     34  O   UNL     1      45.315  22.653  16.469  0.00  0.00    -0.393 OA
ATOM     35  H   UNL     1      46.021  22.931  15.854  0.00  0.00    +0.209 HD
ENDBRANCH  33  34
ENDBRANCH  32  33
ENDBRANCH  30  32
ENDBRANCH  26  28
ENDBRANCH  25  26
ENDBRANCH  24  25
ENDBRANCH  20  24
ENDBRANCH  19  21
ENDBRANCH   1  19
TORSDOF 13
