REMARK VINA RESULT:    -7.072      3.421      8.795
REMARK INTER + INTRA:         -13.038
REMARK INTER:                 -11.622
REMARK INTRA:                  -1.416
REMARK UNBOUND:                -1.418
REMARK  Name = lig_assembled_20.pdb
REMARK  11 active torsions:
REMARK  status: ('A' for Active; 'I' for Inactive)
REMARK    1  A    between atoms: _2  and  _10
REMARK    2  A    between atoms: _7  and  _8
REMARK    3  A    between atoms: _7  and  _16
REMARK    4  A    between atoms: _16  and  _18
REMARK    5  A    between atoms: _17  and  _22
REMARK    6  A    between atoms: _18  and  _21
REMARK    7  A    between atoms: _26  and  _36
REMARK    8  A    between atoms: _28  and  _29
REMARK    9  A    between atoms: _30  and  _32
REMARK   10  A    between atoms: _32  and  _34
REMARK   11  A    between atoms: _34  and  _36
REMARK                            x       y       z     vdW  Elec       q    Type
REMARK                         _______ _______ _______ _____ _____    ______ ____
ROOT
ATOM      1  C   UNL     1      28.098  17.402  -0.922  0.00  0.00    +0.400 C 
ATOM      2  N   UNL     1      27.198  16.592  -1.574  0.00  0.00    -0.278 N 
ATOM      3  H   UNL     1      26.251  17.004  -1.299  0.00  0.00    +0.152 HD
ATOM      4  O   UNL     1      27.675  18.422  -0.384  0.00  0.00    -0.226 OA
ENDROOT
BRANCH   1   5
ATOM      5  O   UNL     1      29.321  16.985  -0.911  0.00  0.00    -0.450 OA
BRANCH   5   6
ATOM      6  C   UNL     1      30.174  16.196  -0.115  0.00  0.00    +0.240 C 
BRANCH   6   7
ATOM      7  C   UNL     1      30.368  14.723  -0.522  0.00  0.00    +0.100 C 
BRANCH   7   9
ATOM      8  N   UNL     1      30.997  12.577   0.551  0.00  0.00    -0.134 NA
ATOM      9  C   UNL     1      30.876  13.935   0.615  0.00  0.00    +0.086 A 
ATOM     10  C   UNL     1      31.289  14.363   1.856  0.00  0.00    +0.139 A 
ATOM     11  N   UNL     1      31.661  13.219   2.524  0.00  0.00    -0.220 N 
ATOM     12  N   UNL     1      31.476  12.149   1.712  0.00  0.00    -0.061 NA
BRANCH  11  13
ATOM     13  C   UNL     1      32.167  13.095   3.844  0.00  0.00    +0.068 A 
ATOM     14  C   UNL     1      33.470  13.532   4.136  0.00  0.00    +0.030 A 
ATOM     15  C   UNL     1      34.001  13.428   5.430  0.00  0.00    +0.030 A 
ATOM     16  C   UNL     1      33.178  12.872   6.415  0.00  0.00    +0.066 A 
ATOM     17  C   UNL     1      31.886  12.430   6.158  0.00  0.00    +0.021 A 
ATOM     18  C   UNL     1      31.420  11.951   7.401  0.00  0.00    +0.142 A 
ATOM     19  N   UNL     1      32.326  12.073   8.372  0.00  0.00    -0.181 NA
ATOM     20  N   UNL     1      33.378  12.635   7.750  0.00  0.00    -0.277 N 
ATOM     21  H   UNL     1      34.210  12.830   8.293  0.00  0.00    +0.189 HD
ATOM     22  C   UNL     1      31.364  12.538   4.856  0.00  0.00    +0.039 A 
ENDBRANCH  11  13
ENDBRANCH   7   9
ENDBRANCH   6   7
ENDBRANCH   5   6
ENDBRANCH   1   5
BRANCH   2  23
ATOM     23  C   UNL     1      26.962  15.459  -2.464  0.00  0.00    +0.152 C 
BRANCH  23  24
ATOM     24  C   UNL     1      25.486  15.134  -2.775  0.00  0.00    +0.193 C 
ATOM     25  O   UNL     1      25.273  15.463  -4.165  0.00  0.00    -0.219 OA
BRANCH  24  26
ATOM     26  C   UNL     1      25.037  13.661  -2.654  0.00  0.00    +0.212 C 
ATOM     27  O   UNL     1      25.841  12.821  -3.497  0.00  0.00    -0.218 OA
BRANCH  26  28
ATOM     28  C   UNL     1      25.104  13.107  -1.180  0.00  0.00    +0.171 C 
ATOM     29  O   UNL     1      26.258  12.306  -0.947  0.00  0.00    -0.343 OA
ATOM     30  C   UNL     1      26.444  11.500   0.179  0.00  0.00    +0.220 C 
ATOM     31  C   UNL     1      25.231  10.589   0.435  0.00  0.00    +0.076 C 
ATOM     32  C   UNL     1      23.982  11.484   0.479  0.00  0.00    +0.177 C 
ATOM     33  O   UNL     1      22.833  10.695   0.754  0.00  0.00    -0.221 OA
ATOM     34  C   UNL     1      23.828  12.259  -0.866  0.00  0.00    +0.155 C 
BRANCH  34  35
ATOM     35  N   UNL     1      22.638  13.105  -0.831  0.00  0.00    -0.202 NA
ATOM     36  C   UNL     1      21.485  13.012  -1.542  0.00  0.00    +0.242 C 
ATOM     37  C   UNL     1      20.304  13.836  -1.101  0.00  0.00    +0.096 C 
ATOM     38  O   UNL     1      21.432  12.266  -2.517  0.00  0.00    -0.273 OA
ENDBRANCH  34  35
BRANCH  30  39
ATOM     39  C   UNL     1      26.857  12.335   1.510  0.00  0.00    +0.391 C 
ATOM     40  O   UNL     1      27.522  13.413   1.053  0.00  0.00    -0.243 OA
ATOM     41  O   UNL     1      26.137  11.812   2.511  0.00  0.00    -0.243 OA
ENDBRANCH  30  39
ENDBRANCH  26  28
ENDBRANCH  24  26
ENDBRANCH  23  24
ENDBRANCH   2  23
TORSDOF 11
