REMARK VINA RESULT:    -6.882      2.221      2.918
REMARK INTER + INTRA:         -13.592
REMARK INTER:                 -11.985
REMARK INTRA:                  -1.608
REMARK UNBOUND:                -1.681
REMARK  Name = lig_assembled_59.pdb
REMARK  13 active torsions:
REMARK  status: ('A' for Active; 'I' for Inactive)
REMARK    1  A    between atoms: _2  and  _9
REMARK    2  A    between atoms: _6  and  _7
REMARK    3  A    between atoms: _6  and  _15
REMARK    4  A    between atoms: _12  and  _13
REMARK    5  A    between atoms: _13  and  _14
REMARK    6  A    between atoms: _15  and  _17
REMARK    7  A    between atoms: _16  and  _21
REMARK    8  A    between atoms: _17  and  _20
REMARK    9  A    between atoms: _25  and  _35
REMARK   10  A    between atoms: _27  and  _28
REMARK   11  A    between atoms: _29  and  _31
REMARK   12  A    between atoms: _31  and  _33
REMARK   13  A    between atoms: _33  and  _35
REMARK                            x       y       z     vdW  Elec       q    Type
REMARK                         _______ _______ _______ _____ _____    ______ ____
ROOT
ATOM      1  C   UNL     1      27.956  17.249  -1.121  0.00  0.00    +0.400 C 
ATOM      2  N   UNL     1      28.307  16.395  -0.102  0.00  0.00    -0.278 N 
ATOM      3  H   UNL     1      28.592  17.057   0.688  0.00  0.00    +0.152 HD
ATOM      4  O   UNL     1      27.870  18.448  -0.868  0.00  0.00    -0.226 OA
ENDROOT
BRANCH   1   5
ATOM      5  O   UNL     1      27.778  16.698  -2.276  0.00  0.00    -0.450 OA
BRANCH   5   6
ATOM      6  C   UNL     1      26.750  16.504  -3.220  0.00  0.00    +0.240 C 
BRANCH   6   7
ATOM      7  C   UNL     1      26.314  15.054  -3.507  0.00  0.00    +0.100 C 
BRANCH   7   9
ATOM      8  N   UNL     1      24.704  14.189  -1.843  0.00  0.00    -0.134 NA
ATOM      9  C   UNL     1      24.937  14.830  -3.028  0.00  0.00    +0.087 A 
ATOM     10  C   UNL     1      23.734  15.173  -3.598  0.00  0.00    +0.141 A 
ATOM     11  N   UNL     1      22.782  14.715  -2.715  0.00  0.00    -0.202 N 
ATOM     12  N   UNL     1      23.392  14.125  -1.656  0.00  0.00    -0.059 NA
BRANCH  11  13
ATOM     13  C   UNL     1      21.370  14.805  -2.846  0.00  0.00    +0.156 A 
ATOM     14  C   UNL     1      20.565  13.933  -2.115  0.00  0.00    +0.048 A 
ATOM     15  C   UNL     1      19.183  13.997  -2.280  0.00  0.00    +0.011 A 
ATOM     16  C   UNL     1      18.628  14.930  -3.161  0.00  0.00    -0.004 A 
ATOM     17  C   UNL     1      19.509  15.759  -3.847  0.00  0.00    +0.119 A 
ATOM     18  N   UNL     1      20.856  15.727  -3.706  0.00  0.00    -0.236 NA
BRANCH  16  19
ATOM     19  C   UNL     1      17.151  14.954  -3.423  0.00  0.00    +0.192 C 
BRANCH  19  20
ATOM     20  O   UNL     1      16.428  14.341  -2.366  0.00  0.00    -0.390 OA
ATOM     21  H   UNL     1      16.484  14.939  -1.601  0.00  0.00    +0.210 HD
ENDBRANCH  19  20
ENDBRANCH  16  19
ENDBRANCH  11  13
ENDBRANCH   7   9
ENDBRANCH   6   7
ENDBRANCH   5   6
ENDBRANCH   1   5
BRANCH   2  22
ATOM     22  C   UNL     1      28.447  15.023   0.379  0.00  0.00    +0.152 C 
BRANCH  22  23
ATOM     23  C   UNL     1      29.755  14.300  -0.002  0.00  0.00    +0.193 C 
ATOM     24  O   UNL     1      29.764  14.190  -1.443  0.00  0.00    -0.219 OA
BRANCH  23  25
ATOM     25  C   UNL     1      31.087  15.004   0.338  0.00  0.00    +0.212 C 
ATOM     26  O   UNL     1      30.841  16.218   1.068  0.00  0.00    -0.218 OA
BRANCH  25  27
ATOM     27  C   UNL     1      32.073  14.104   1.176  0.00  0.00    +0.171 C 
ATOM     28  O   UNL     1      32.365  14.655   2.456  0.00  0.00    -0.343 OA
ATOM     29  C   UNL     1      33.383  14.200   3.296  0.00  0.00    +0.220 C 
ATOM     30  C   UNL     1      34.729  14.095   2.558  0.00  0.00    +0.076 C 
ATOM     31  C   UNL     1      34.500  13.244   1.298  0.00  0.00    +0.177 C 
ATOM     32  O   UNL     1      35.725  13.083   0.597  0.00  0.00    -0.221 OA
ATOM     33  C   UNL     1      33.413  13.903   0.394  0.00  0.00    +0.155 C 
BRANCH  33  34
ATOM     34  N   UNL     1      33.197  13.101  -0.808  0.00  0.00    -0.202 NA
ATOM     35  C   UNL     1      33.277  13.457  -2.115  0.00  0.00    +0.242 C 
ATOM     36  C   UNL     1      33.298  12.366  -3.154  0.00  0.00    +0.096 C 
ATOM     37  O   UNL     1      33.332  14.648  -2.418  0.00  0.00    -0.273 OA
ENDBRANCH  33  34
BRANCH  29  38
ATOM     38  C   UNL     1      33.017  12.817   4.067  0.00  0.00    +0.391 C 
ATOM     39  O   UNL     1      34.185  12.386   4.582  0.00  0.00    -0.243 OA
ATOM     40  O   UNL     1      31.681  12.787   4.157  0.00  0.00    -0.243 OA
ENDBRANCH  29  38
ENDBRANCH  25  27
ENDBRANCH  23  25
ENDBRANCH  22  23
ENDBRANCH   2  22
TORSDOF 13
