REMARK VINA RESULT:    -6.635      1.527      2.285
REMARK INTER + INTRA:         -13.164
REMARK INTER:                 -12.153
REMARK INTRA:                  -1.011
REMARK UNBOUND:                -1.681
REMARK  Name = lig_assembled_59.pdb
REMARK  13 active torsions:
REMARK  status: ('A' for Active; 'I' for Inactive)
REMARK    1  A    between atoms: _2  and  _9
REMARK    2  A    between atoms: _6  and  _7
REMARK    3  A    between atoms: _6  and  _15
REMARK    4  A    between atoms: _12  and  _13
REMARK    5  A    between atoms: _13  and  _14
REMARK    6  A    between atoms: _15  and  _17
REMARK    7  A    between atoms: _16  and  _21
REMARK    8  A    between atoms: _17  and  _20
REMARK    9  A    between atoms: _25  and  _35
REMARK   10  A    between atoms: _27  and  _28
REMARK   11  A    between atoms: _29  and  _31
REMARK   12  A    between atoms: _31  and  _33
REMARK   13  A    between atoms: _33  and  _35
REMARK                            x       y       z     vdW  Elec       q    Type
REMARK                         _______ _______ _______ _____ _____    ______ ____
ROOT
ATOM      1  C   UNL     1      27.988  17.171  -0.811  0.00  0.00    +0.400 C 
ATOM      2  N   UNL     1      28.667  16.146  -0.196  0.00  0.00    -0.278 N 
ATOM      3  H   UNL     1      28.820  16.511   0.797  0.00  0.00    +0.152 HD
ATOM      4  O   UNL     1      27.579  18.096  -0.113  0.00  0.00    -0.226 OA
ENDROOT
BRANCH   1   5
ATOM      5  O   UNL     1      27.870  17.074  -2.094  0.00  0.00    -0.450 OA
BRANCH   5   6
ATOM      6  C   UNL     1      26.913  17.314  -3.100  0.00  0.00    +0.240 C 
BRANCH   6   7
ATOM      7  C   UNL     1      26.395  16.099  -3.893  0.00  0.00    +0.100 C 
BRANCH   7   9
ATOM      8  N   UNL     1      24.040  15.906  -3.166  0.00  0.00    -0.134 NA
ATOM      9  C   UNL     1      25.318  15.422  -3.144  0.00  0.00    +0.087 A 
ATOM     10  C   UNL     1      25.360  14.296  -2.356  0.00  0.00    +0.141 A 
ATOM     11  N   UNL     1      24.068  14.129  -1.912  0.00  0.00    -0.202 N 
ATOM     12  N   UNL     1      23.283  15.114  -2.418  0.00  0.00    -0.059 NA
BRANCH  11  13
ATOM     13  C   UNL     1      23.577  13.113  -1.048  0.00  0.00    +0.156 A 
ATOM     14  C   UNL     1      22.202  12.904  -0.960  0.00  0.00    +0.048 A 
ATOM     15  C   UNL     1      21.726  11.936  -0.078  0.00  0.00    +0.011 A 
ATOM     16  C   UNL     1      22.623  11.190   0.691  0.00  0.00    -0.004 A 
ATOM     17  C   UNL     1      23.977  11.467   0.536  0.00  0.00    +0.119 A 
ATOM     18  N   UNL     1      24.475  12.397  -0.315  0.00  0.00    -0.236 NA
BRANCH  16  19
ATOM     19  C   UNL     1      22.128  10.208   1.712  0.00  0.00    +0.192 C 
BRANCH  19  20
ATOM     20  O   UNL     1      21.734  10.861   2.910  0.00  0.00    -0.390 OA
ATOM     21  H   UNL     1      21.323  10.187   3.477  0.00  0.00    +0.210 HD
ENDBRANCH  19  20
ENDBRANCH  16  19
ENDBRANCH  11  13
ENDBRANCH   7   9
ENDBRANCH   6   7
ENDBRANCH   5   6
ENDBRANCH   1   5
BRANCH   2  22
ATOM     22  C   UNL     1      29.247  14.808  -0.285  0.00  0.00    +0.152 C 
BRANCH  22  23
ATOM     23  C   UNL     1      30.686  14.654   0.249  0.00  0.00    +0.193 C 
ATOM     24  O   UNL     1      31.444  15.767  -0.274  0.00  0.00    -0.219 OA
BRANCH  23  25
ATOM     25  C   UNL     1      30.893  14.732   1.778  0.00  0.00    +0.212 C 
ATOM     26  O   UNL     1      29.694  14.343   2.467  0.00  0.00    -0.218 OA
BRANCH  25  27
ATOM     27  C   UNL     1      32.084  13.836   2.292  0.00  0.00    +0.171 C 
ATOM     28  O   UNL     1      33.320  14.540   2.337  0.00  0.00    -0.343 OA
ATOM     29  C   UNL     1      34.566  13.935   2.517  0.00  0.00    +0.220 C 
ATOM     30  C   UNL     1      34.777  12.761   1.545  0.00  0.00    +0.076 C 
ATOM     31  C   UNL     1      33.571  11.818   1.692  0.00  0.00    +0.177 C 
ATOM     32  O   UNL     1      33.735  10.691   0.841  0.00  0.00    -0.221 OA
ATOM     33  C   UNL     1      32.249  12.582   1.372  0.00  0.00    +0.155 C 
BRANCH  33  34
ATOM     34  N   UNL     1      31.102  11.687   1.504  0.00  0.00    -0.202 NA
ATOM     35  C   UNL     1      30.610  11.062   2.604  0.00  0.00    +0.242 C 
ATOM     36  C   UNL     1      29.244  10.432   2.518  0.00  0.00    +0.096 C 
ATOM     37  O   UNL     1      31.281  11.026   3.633  0.00  0.00    -0.273 OA
ENDBRANCH  33  34
BRANCH  29  38
ATOM     38  C   UNL     1      34.856  13.496   4.055  0.00  0.00    +0.391 C 
ATOM     39  O   UNL     1      35.846  12.586   3.976  0.00  0.00    -0.243 OA
ATOM     40  O   UNL     1      34.234  14.401   4.821  0.00  0.00    -0.243 OA
ENDBRANCH  29  38
ENDBRANCH  25  27
ENDBRANCH  23  25
ENDBRANCH  22  23
ENDBRANCH   2  22
TORSDOF 13
