REMARK VINA RESULT:    -7.340      2.256      6.064
REMARK INTER + INTRA:         -13.992
REMARK INTER:                 -11.333
REMARK INTRA:                  -2.659
REMARK UNBOUND:                -1.503
REMARK  Name = lig_assembled_89.pdb
REMARK  14 active torsions:
REMARK  status: ('A' for Active; 'I' for Inactive)
REMARK    1  A    between atoms: _2  and  _11
REMARK    2  A    between atoms: _5  and  _19
REMARK    3  A    between atoms: _8  and  _9
REMARK    4  A    between atoms: _8  and  _24
REMARK    5  A    between atoms: _19  and  _20
REMARK    6  A    between atoms: _19  and  _21
REMARK    7  A    between atoms: _24  and  _26
REMARK    8  A    between atoms: _25  and  _30
REMARK    9  A    between atoms: _26  and  _29
REMARK   10  A    between atoms: _34  and  _44
REMARK   11  A    between atoms: _36  and  _37
REMARK   12  A    between atoms: _38  and  _40
REMARK   13  A    between atoms: _40  and  _42
REMARK   14  A    between atoms: _42  and  _44
REMARK                            x       y       z     vdW  Elec       q    Type
REMARK                         _______ _______ _______ _____ _____    ______ ____
ROOT
ATOM      1  C   UNL     1      30.560  11.186   3.061  0.00  0.00    +0.240 C 
ENDROOT
BRANCH   1   2
ATOM      2  C   UNL     1      30.783  10.615   1.648  0.00  0.00    +0.100 C 
BRANCH   2   4
ATOM      3  N   UNL     1      29.718  10.728  -0.573  0.00  0.00    -0.134 NA
ATOM      4  C   UNL     1      29.674  11.004   0.762  0.00  0.00    +0.087 A 
ATOM      5  C   UNL     1      28.485  11.631   1.049  0.00  0.00    +0.141 A 
ATOM      6  N   UNL     1      27.809  11.697  -0.154  0.00  0.00    -0.200 N 
ATOM      7  N   UNL     1      28.583  11.144  -1.116  0.00  0.00    -0.059 NA
BRANCH   6   8
ATOM      8  C   UNL     1      26.478  12.176  -0.336  0.00  0.00    +0.186 A 
ATOM      9  C   UNL     1      26.014  13.211  -1.121  0.00  0.00    +0.158 A 
ATOM     10  C   UNL     1      26.665  14.221  -1.897  0.00  0.00    +0.280 A 
ATOM     11  O   UNL     1      27.833  14.538  -1.713  0.00  0.00    -0.265 OA
ATOM     12  N   UNL     1      25.857  14.849  -2.866  0.00  0.00    -0.302 N 
ATOM     13  C   UNL     1      24.416  14.807  -2.749  0.00  0.00    +0.069 A 
ATOM     14  C   UNL     1      23.570  15.629  -3.507  0.00  0.00    +0.028 A 
ATOM     15  C   UNL     1      22.179  15.599  -3.330  0.00  0.00    +0.002 A 
ATOM     16  C   UNL     1      21.604  14.738  -2.402  0.00  0.00    +0.002 A 
ATOM     17  C   UNL     1      22.413  13.899  -1.642  0.00  0.00    +0.028 A 
ATOM     18  C   UNL     1      23.805  13.945  -1.812  0.00  0.00    +0.072 A 
ATOM     19  N   UNL     1      24.650  13.117  -1.056  0.00  0.00    -0.291 N 
ATOM     20  C   UNL     1      24.350  12.121  -0.162  0.00  0.00    +0.207 A 
ATOM     21  N   UNL     1      25.433  11.520   0.285  0.00  0.00    -0.216 NA
BRANCH  12  22
ATOM     22  C   UNL     1      26.523  15.713  -3.870  0.00  0.00    +0.085 C 
ATOM     23  C   UNL     1      26.403  17.219  -3.569  0.00  0.00    +0.030 C 
ATOM     24  C   UNL     1      26.038  15.410  -5.288  0.00  0.00    +0.030 C 
ENDBRANCH  12  22
ENDBRANCH   6   8
ENDBRANCH   2   4
ENDBRANCH   1   2
BRANCH   1  25
ATOM     25  O   UNL     1      31.322  10.639   4.112  0.00  0.00    -0.450 OA
BRANCH  25  26
ATOM     26  C   UNL     1      32.441  10.017   4.290  0.00  0.00    +0.400 C 
ATOM     27  N   UNL     1      33.510  10.807   4.644  0.00  0.00    -0.278 N 
ATOM     28  H   UNL     1      34.258  10.098   4.929  0.00  0.00    +0.152 HD
ATOM     29  O   UNL     1      32.620   8.805   4.202  0.00  0.00    -0.226 OA
BRANCH  27  30
ATOM     30  C   UNL     1      34.074  12.146   4.787  0.00  0.00    +0.152 C 
BRANCH  30  31
ATOM     31  C   UNL     1      33.610  13.193   3.754  0.00  0.00    +0.193 C 
ATOM     32  O   UNL     1      34.129  14.468   4.192  0.00  0.00    -0.219 OA
BRANCH  31  33
ATOM     33  C   UNL     1      34.126  13.045   2.305  0.00  0.00    +0.212 C 
ATOM     34  O   UNL     1      34.001  11.683   1.865  0.00  0.00    -0.218 OA
BRANCH  33  35
ATOM     35  C   UNL     1      33.377  13.978   1.278  0.00  0.00    +0.171 C 
ATOM     36  O   UNL     1      31.963  13.942   1.435  0.00  0.00    -0.343 OA
ATOM     37  C   UNL     1      31.054  14.472   0.517  0.00  0.00    +0.220 C 
ATOM     38  C   UNL     1      31.338  13.984  -0.914  0.00  0.00    +0.076 C 
ATOM     39  C   UNL     1      32.816  14.282  -1.220  0.00  0.00    +0.177 C 
ATOM     40  O   UNL     1      33.122  13.885  -2.549  0.00  0.00    -0.221 OA
ATOM     41  C   UNL     1      33.734  13.559  -0.186  0.00  0.00    +0.155 C 
BRANCH  41  42
ATOM     42  N   UNL     1      35.139  13.834  -0.477  0.00  0.00    -0.202 NA
ATOM     43  C   UNL     1      36.122  12.991  -0.885  0.00  0.00    +0.242 C 
ATOM     44  C   UNL     1      37.408  13.586  -1.397  0.00  0.00    +0.096 C 
ATOM     45  O   UNL     1      35.942  11.776  -0.830  0.00  0.00    -0.273 OA
ENDBRANCH  41  42
BRANCH  37  46
ATOM     46  C   UNL     1      30.937  16.091   0.583  0.00  0.00    +0.391 C 
ATOM     47  O   UNL     1      30.287  16.439  -0.544  0.00  0.00    -0.243 OA
ATOM     48  O   UNL     1      31.250  16.434   1.839  0.00  0.00    -0.243 OA
ENDBRANCH  37  46
ENDBRANCH  33  35
ENDBRANCH  31  33
ENDBRANCH  30  31
ENDBRANCH  27  30
ENDBRANCH  25  26
ENDBRANCH   1  25
TORSDOF 12
