REMARK VINA RESULT:    -5.532     22.720     25.966
REMARK INTER + INTRA:         -12.086
REMARK INTER:                 -10.763
REMARK INTRA:                  -1.323
REMARK UNBOUND:                -2.511
REMARK  Name = lig_assembled_1.pdb
REMARK  13 active torsions:
REMARK  status: ('A' for Active; 'I' for Inactive)
REMARK    1  A    between atoms: _2  and  _8
REMARK    2  A    between atoms: _4  and  _8
REMARK    3  A    between atoms: _4  and  _9
REMARK    4  A    between atoms: _5  and  _6
REMARK    5  A    between atoms: _5  and  _10
REMARK    6  A    between atoms: _10  and  _12
REMARK    7  A    between atoms: _11  and  _16
REMARK    8  A    between atoms: _12  and  _15
REMARK    9  A    between atoms: _20  and  _30
REMARK   10  A    between atoms: _22  and  _23
REMARK   11  A    between atoms: _24  and  _26
REMARK   12  A    between atoms: _26  and  _28
REMARK   13  A    between atoms: _28  and  _30
REMARK                            x       y       z     vdW  Elec       q    Type
REMARK                         _______ _______ _______ _____ _____    ______ ____
ROOT
ATOM      1  C   UNL     1      28.866  39.870   5.731  0.00  0.00    +0.193 C 
ATOM      2  O   UNL     1      28.988  40.373   4.382  0.00  0.00    -0.219 OA
ENDROOT
BRANCH   1   3
ATOM      3  C   UNL     1      27.851  38.711   5.619  0.00  0.00    +0.212 C 
ATOM      4  O   UNL     1      28.002  38.031   4.363  0.00  0.00    -0.218 OA
BRANCH   3   5
ATOM      5  C   UNL     1      27.978  37.655   6.783  0.00  0.00    +0.171 C 
ATOM      6  O   UNL     1      27.965  36.313   6.308  0.00  0.00    -0.343 OA
ATOM      7  C   UNL     1      27.819  35.190   7.125  0.00  0.00    +0.220 C 
ATOM      8  C   UNL     1      26.611  35.323   8.068  0.00  0.00    +0.076 C 
ATOM      9  C   UNL     1      26.756  36.656   8.821  0.00  0.00    +0.177 C 
ATOM     10  O   UNL     1      25.682  36.811   9.738  0.00  0.00    -0.221 OA
ATOM     11  C   UNL     1      26.812  37.842   7.808  0.00  0.00    +0.155 C 
BRANCH  11  12
ATOM     12  N   UNL     1      26.943  39.111   8.519  0.00  0.00    -0.202 NA
ATOM     13  C   UNL     1      25.985  39.990   8.908  0.00  0.00    +0.242 C 
ATOM     14  C   UNL     1      26.363  41.074   9.884  0.00  0.00    +0.096 C 
ATOM     15  O   UNL     1      24.844  39.883   8.462  0.00  0.00    -0.273 OA
ENDBRANCH  11  12
BRANCH   7  16
ATOM     16  C   UNL     1      29.171  34.801   7.939  0.00  0.00    +0.391 C 
ATOM     17  O   UNL     1      28.743  34.115   9.016  0.00  0.00    -0.243 OA
ATOM     18  O   UNL     1      30.188  35.036   7.100  0.00  0.00    -0.243 OA
ENDBRANCH   7  16
ENDBRANCH   3   5
ENDBRANCH   1   3
BRANCH   1  19
ATOM     19  C   UNL     1      30.292  39.527   6.207  0.00  0.00    +0.152 C 
BRANCH  19  21
ATOM     20  C   UNL     1      32.716  39.804   4.985  0.00  0.00    +0.400 C 
ATOM     21  N   UNL     1      31.367  39.769   5.248  0.00  0.00    -0.278 N 
ATOM     22  H   UNL     1      30.925  40.029   4.310  0.00  0.00    +0.152 HD
ATOM     23  O   UNL     1      33.075  39.922   3.816  0.00  0.00    -0.226 OA
BRANCH  20  24
ATOM     24  O   UNL     1      33.490  39.740   6.018  0.00  0.00    -0.450 OA
BRANCH  24  25
ATOM     25  C   UNL     1      34.717  40.266   6.469  0.00  0.00    +0.240 C 
BRANCH  25  26
ATOM     26  C   UNL     1      35.907  39.294   6.584  0.00  0.00    +0.100 C 
BRANCH  26  28
ATOM     27  N   UNL     1      36.462  37.475   4.998  0.00  0.00    -0.134 NA
ATOM     28  C   UNL     1      36.308  38.813   5.249  0.00  0.00    +0.086 A 
ATOM     29  C   UNL     1      36.584  39.521   4.101  0.00  0.00    +0.133 A 
ATOM     30  N   UNL     1      36.905  38.559   3.191  0.00  0.00    -0.249 N 
ATOM     31  N   UNL     1      36.834  37.332   3.733  0.00  0.00    -0.065 NA
BRANCH  30  32
ATOM     32  C   UNL     1      37.274  38.732   1.804  0.00  0.00    +0.173 C 
BRANCH  32  33
ATOM     33  C   UNL     1      37.915  37.485   1.207  0.00  0.00    +0.179 C 
BRANCH  33  34
ATOM     34  O   UNL     1      36.936  36.644   0.599  0.00  0.00    -0.393 OA
ATOM     35  H   UNL     1      36.381  37.217   0.035  0.00  0.00    +0.209 HD
ENDBRANCH  33  34
ENDBRANCH  32  33
ENDBRANCH  30  32
ENDBRANCH  26  28
ENDBRANCH  25  26
ENDBRANCH  24  25
ENDBRANCH  20  24
ENDBRANCH  19  21
ENDBRANCH   1  19
TORSDOF 13
