REMARK VINA RESULT:    -6.732      1.352      2.506
REMARK INTER + INTRA:         -14.050
REMARK INTER:                 -12.454
REMARK INTRA:                  -1.597
REMARK UNBOUND:                -2.596
REMARK  Name = lig_assembled_4.pdb
REMARK  14 active torsions:
REMARK  status: ('A' for Active; 'I' for Inactive)
REMARK    1  A    between atoms: _2  and  _8
REMARK    2  A    between atoms: _5  and  _6
REMARK    3  A    between atoms: _5  and  _16
REMARK    4  A    between atoms: _9  and  _10
REMARK    5  A    between atoms: _10  and  _11
REMARK    6  A    between atoms: _10  and  _12
REMARK    7  A    between atoms: _16  and  _18
REMARK    8  A    between atoms: _17  and  _22
REMARK    9  A    between atoms: _18  and  _21
REMARK   10  A    between atoms: _26  and  _36
REMARK   11  A    between atoms: _28  and  _29
REMARK   12  A    between atoms: _30  and  _32
REMARK   13  A    between atoms: _32  and  _34
REMARK   14  A    between atoms: _34  and  _36
REMARK                            x       y       z     vdW  Elec       q    Type
REMARK                         _______ _______ _______ _____ _____    ______ ____
ROOT
ATOM      1  C   UNL     1      27.945  17.501  -0.752  0.00  0.00    +0.400 C 
ATOM      2  N   UNL     1      28.852  16.680  -0.125  0.00  0.00    -0.278 N 
ATOM      3  H   UNL     1      29.072  17.201   0.782  0.00  0.00    +0.152 HD
ATOM      4  O   UNL     1      27.489  18.450  -0.120  0.00  0.00    -0.226 OA
ENDROOT
BRANCH   2   5
ATOM      5  C   UNL     1      29.621  15.438  -0.136  0.00  0.00    +0.152 C 
BRANCH   5   6
ATOM      6  C   UNL     1      31.126  15.567   0.176  0.00  0.00    +0.193 C 
ATOM      7  O   UNL     1      31.238  15.784   1.600  0.00  0.00    -0.219 OA
BRANCH   6   8
ATOM      8  C   UNL     1      32.021  14.339  -0.098  0.00  0.00    +0.212 C 
ATOM      9  O   UNL     1      33.160  14.715  -0.891  0.00  0.00    -0.218 OA
BRANCH   8  10
ATOM     10  C   UNL     1      32.532  13.633   1.215  0.00  0.00    +0.171 C 
ATOM     11  O   UNL     1      33.952  13.532   1.266  0.00  0.00    -0.343 OA
ATOM     12  C   UNL     1      34.654  12.747   2.184  0.00  0.00    +0.220 C 
ATOM     13  C   UNL     1      34.119  11.305   2.227  0.00  0.00    +0.076 C 
ATOM     14  C   UNL     1      32.602  11.380   2.466  0.00  0.00    +0.177 C 
ATOM     15  O   UNL     1      32.063  10.069   2.555  0.00  0.00    -0.221 OA
ATOM     16  C   UNL     1      31.919  12.199   1.327  0.00  0.00    +0.155 C 
BRANCH  16  17
ATOM     17  N   UNL     1      30.476  12.267   1.547  0.00  0.00    -0.202 NA
ATOM     18  C   UNL     1      29.780  12.814   2.577  0.00  0.00    +0.242 C 
ATOM     19  C   UNL     1      28.295  13.008   2.413  0.00  0.00    +0.096 C 
ATOM     20  O   UNL     1      30.370  13.135   3.606  0.00  0.00    -0.273 OA
ENDBRANCH  16  17
BRANCH  12  21
ATOM     21  C   UNL     1      34.729  13.400   3.669  0.00  0.00    +0.391 C 
ATOM     22  O   UNL     1      35.298  12.451   4.438  0.00  0.00    -0.243 OA
ATOM     23  O   UNL     1      34.487  14.708   3.511  0.00  0.00    -0.243 OA
ENDBRANCH  12  21
ENDBRANCH   8  10
ENDBRANCH   6   8
ENDBRANCH   5   6
ENDBRANCH   2   5
BRANCH   1  24
ATOM     24  O   UNL     1      27.680  17.206  -1.983  0.00  0.00    -0.450 OA
BRANCH  24  25
ATOM     25  C   UNL     1      26.701  17.476  -2.959  0.00  0.00    +0.240 C 
BRANCH  25  26
ATOM     26  C   UNL     1      26.522  16.446  -4.090  0.00  0.00    +0.100 C 
BRANCH  26  28
ATOM     27  N   UNL     1      24.941  14.642  -4.668  0.00  0.00    -0.134 NA
ATOM     28  C   UNL     1      25.508  15.440  -3.724  0.00  0.00    +0.086 A 
ATOM     29  C   UNL     1      24.950  15.156  -2.498  0.00  0.00    +0.139 A 
ATOM     30  N   UNL     1      23.940  14.254  -2.769  0.00  0.00    -0.220 N 
ATOM     31  N   UNL     1      24.008  13.908  -4.073  0.00  0.00    -0.061 NA
BRANCH  30  32
ATOM     32  C   UNL     1      22.949  13.763  -1.866  0.00  0.00    +0.070 A 
ATOM     33  C   UNL     1      23.209  12.764  -0.889  0.00  0.00    -0.019 A 
ATOM     34  C   UNL     1      22.128  12.347  -0.079  0.00  0.00    +0.006 A 
ATOM     35  C   UNL     1      20.843  12.873  -0.228  0.00  0.00    +0.000 A 
ATOM     36  C   UNL     1      20.604  13.851  -1.180  0.00  0.00    +0.002 A 
ATOM     37  C   UNL     1      21.645  14.293  -1.994  0.00  0.00    +0.028 A 
BRANCH  33  38
ATOM     38  C   UNL     1      24.575  12.111  -0.667  0.00  0.00    +0.015 C 
ATOM     39  C   UNL     1      24.963  11.046  -1.705  0.00  0.00    +0.012 C 
ATOM     40  C   UNL     1      24.646  11.513   0.741  0.00  0.00    +0.012 C 
ENDBRANCH  33  38
ENDBRANCH  30  32
ENDBRANCH  26  28
ENDBRANCH  25  26
ENDBRANCH  24  25
ENDBRANCH   1  24
TORSDOF 12
