REMARK VINA RESULT:    -6.462      2.944      9.000
REMARK INTER + INTRA:         -14.154
REMARK INTER:                 -11.363
REMARK INTRA:                  -2.791
REMARK UNBOUND:                -2.025
REMARK  Name = lig_assembled_10.pdb
REMARK  16 active torsions:
REMARK  status: ('A' for Active; 'I' for Inactive)
REMARK    1  A    between atoms: _2  and  _8
REMARK    2  A    between atoms: _4  and  _8
REMARK    3  A    between atoms: _4  and  _11
REMARK    4  A    between atoms: _5  and  _6
REMARK    5  A    between atoms: _5  and  _15
REMARK    6  A    between atoms: _8  and  _9
REMARK    7  A    between atoms: _9  and  _10
REMARK    8  A    between atoms: _10  and  _13
REMARK    9  A    between atoms: _15  and  _17
REMARK   10  A    between atoms: _16  and  _21
REMARK   11  A    between atoms: _17  and  _20
REMARK   12  A    between atoms: _25  and  _35
REMARK   13  A    between atoms: _27  and  _28
REMARK   14  A    between atoms: _29  and  _31
REMARK   15  A    between atoms: _31  and  _33
REMARK   16  A    between atoms: _33  and  _35
REMARK                            x       y       z     vdW  Elec       q    Type
REMARK                         _______ _______ _______ _____ _____    ______ ____
ROOT
ATOM      1  C   UNL     1      25.866  16.180  -3.831  0.00  0.00    +0.400 C 
ATOM      2  N   UNL     1      24.528  15.863  -3.847  0.00  0.00    -0.278 N 
ATOM      3  H   UNL     1      24.349  15.596  -4.866  0.00  0.00    +0.152 HD
ATOM      4  O   UNL     1      26.533  15.929  -4.832  0.00  0.00    -0.226 OA
ENDROOT
BRANCH   2   5
ATOM      5  C   UNL     1      23.275  15.718  -3.111  0.00  0.00    +0.152 C 
BRANCH   5   6
ATOM      6  C   UNL     1      23.219  14.568  -2.084  0.00  0.00    +0.193 C 
ATOM      7  O   UNL     1      21.858  14.506  -1.604  0.00  0.00    -0.219 OA
BRANCH   6   8
ATOM      8  C   UNL     1      23.513  13.140  -2.594  0.00  0.00    +0.212 C 
ATOM      9  O   UNL     1      23.728  13.148  -4.015  0.00  0.00    -0.218 OA
BRANCH   8  10
ATOM     10  C   UNL     1      24.763  12.474  -1.900  0.00  0.00    +0.171 C 
ATOM     11  O   UNL     1      25.751  12.057  -2.835  0.00  0.00    -0.343 OA
ATOM     12  C   UNL     1      26.833  11.231  -2.522  0.00  0.00    +0.220 C 
ATOM     13  C   UNL     1      26.385   9.961  -1.777  0.00  0.00    +0.076 C 
ATOM     14  C   UNL     1      25.541  10.406  -0.572  0.00  0.00    +0.177 C 
ATOM     15  O   UNL     1      25.133   9.270   0.176  0.00  0.00    -0.221 OA
ATOM     16  C   UNL     1      24.312  11.238  -1.054  0.00  0.00    +0.155 C 
BRANCH  16  17
ATOM     17  N   UNL     1      23.503  11.657   0.088  0.00  0.00    -0.202 NA
ATOM     18  C   UNL     1      22.194  11.420   0.358  0.00  0.00    +0.242 C 
ATOM     19  C   UNL     1      21.685  11.715   1.745  0.00  0.00    +0.096 C 
ATOM     20  O   UNL     1      21.463  10.975  -0.524  0.00  0.00    -0.273 OA
ENDBRANCH  16  17
BRANCH  12  21
ATOM     21  C   UNL     1      28.026  11.998  -1.730  0.00  0.00    +0.391 C 
ATOM     22  O   UNL     1      28.460  11.112  -0.812  0.00  0.00    -0.243 OA
ATOM     23  O   UNL     1      28.325  13.075  -2.466  0.00  0.00    -0.243 OA
ENDBRANCH  12  21
ENDBRANCH   8  10
ENDBRANCH   6   8
ENDBRANCH   5   6
ENDBRANCH   2   5
BRANCH   1  24
ATOM     24  O   UNL     1      26.293  16.751  -2.753  0.00  0.00    -0.450 OA
BRANCH  24  25
ATOM     25  C   UNL     1      27.180  17.775  -2.366  0.00  0.00    +0.240 C 
BRANCH  25  26
ATOM     26  C   UNL     1      27.545  17.872  -0.873  0.00  0.00    +0.100 C 
BRANCH  26  28
ATOM     27  N   UNL     1      29.955  17.434  -0.504  0.00  0.00    -0.134 NA
ATOM     28  C   UNL     1      28.670  16.969  -0.564  0.00  0.00    +0.086 A 
ATOM     29  C   UNL     1      28.666  15.620  -0.292  0.00  0.00    +0.134 A 
ATOM     30  N   UNL     1      29.970  15.328  -0.031  0.00  0.00    -0.237 N 
ATOM     31  N   UNL     1      30.745  16.420  -0.186  0.00  0.00    -0.065 NA
BRANCH  30  32
ATOM     32  C   UNL     1      30.607  14.083   0.365  0.00  0.00    +0.227 C 
BRANCH  32  33
ATOM     33  C   UNL     1      30.099  13.503   1.668  0.00  0.00    +0.330 C 
ATOM     34  O   UNL     1      30.526  13.883   2.752  0.00  0.00    -0.249 OA
BRANCH  33  35
ATOM     35  O   UNL     1      29.119  12.579   1.596  0.00  0.00    -0.479 OA
ATOM     36  H   UNL     1      28.539  12.605   0.792  0.00  0.00    +0.295 HD
ENDBRANCH  33  35
ENDBRANCH  32  33
BRANCH  32  37
ATOM     37  C   UNL     1      32.140  14.110   0.298  0.00  0.00    +0.158 C 
BRANCH  37  38
ATOM     38  C   UNL     1      32.651  13.826  -1.086  0.00  0.00    +0.307 C 
ATOM     39  O   UNL     1      32.631  12.717  -1.604  0.00  0.00    -0.251 OA
BRANCH  38  40
ATOM     40  O   UNL     1      33.063  14.925  -1.746  0.00  0.00    -0.481 OA
ATOM     41  H   UNL     1      33.469  15.618  -1.190  0.00  0.00    +0.295 HD
ENDBRANCH  38  40
ENDBRANCH  37  38
ENDBRANCH  32  37
ENDBRANCH  30  32
ENDBRANCH  26  28
ENDBRANCH  25  26
ENDBRANCH  24  25
ENDBRANCH   1  24
TORSDOF 16
