REMARK VINA RESULT:    -6.629      1.780      2.179
REMARK INTER + INTRA:         -13.118
REMARK INTER:                 -11.208
REMARK INTRA:                  -1.910
REMARK UNBOUND:                -1.839
REMARK  Name = lig_assembled_61.pdb
REMARK  12 active torsions:
REMARK  status: ('A' for Active; 'I' for Inactive)
REMARK    1  A    between atoms: _2  and  _8
REMARK    2  A    between atoms: _5  and  _6
REMARK    3  A    between atoms: _5  and  _12
REMARK    4  A    between atoms: _8  and  _9
REMARK    5  A    between atoms: _12  and  _14
REMARK    6  A    between atoms: _13  and  _18
REMARK    7  A    between atoms: _14  and  _17
REMARK    8  A    between atoms: _22  and  _32
REMARK    9  A    between atoms: _24  and  _25
REMARK   10  A    between atoms: _26  and  _28
REMARK   11  A    between atoms: _28  and  _30
REMARK   12  A    between atoms: _30  and  _32
REMARK                            x       y       z     vdW  Elec       q    Type
REMARK                         _______ _______ _______ _____ _____    ______ ____
ROOT
ATOM      1  C   UNL     1      28.569  14.875  -0.577  0.00  0.00    +0.152 C 
ENDROOT
BRANCH   1   3
ATOM      2  C   UNL     1      27.708  17.409  -1.109  0.00  0.00    +0.400 C 
ATOM      3  N   UNL     1      28.246  16.298  -0.504  0.00  0.00    -0.278 N 
ATOM      4  H   UNL     1      28.548  16.660   0.455  0.00  0.00    +0.152 HD
ATOM      5  O   UNL     1      27.534  18.414  -0.424  0.00  0.00    -0.226 OA
BRANCH   2   6
ATOM      6  O   UNL     1      27.463  17.295  -2.373  0.00  0.00    -0.450 OA
BRANCH   6   7
ATOM      7  C   UNL     1      26.921  16.359  -3.275  0.00  0.00    +0.240 C 
BRANCH   7   8
ATOM      8  C   UNL     1      25.386  16.287  -3.389  0.00  0.00    +0.100 C 
BRANCH   8  10
ATOM      9  N   UNL     1      23.675  15.156  -2.004  0.00  0.00    -0.134 NA
ATOM     10  C   UNL     1      24.871  15.107  -2.670  0.00  0.00    +0.086 A 
ATOM     11  C   UNL     1      25.414  13.848  -2.530  0.00  0.00    +0.134 A 
ATOM     12  N   UNL     1      24.529  13.200  -1.719  0.00  0.00    -0.247 N 
ATOM     13  N   UNL     1      23.465  13.974  -1.440  0.00  0.00    -0.065 NA
BRANCH  12  14
ATOM     14  C   UNL     1      24.608  11.844  -1.206  0.00  0.00    +0.180 C 
BRANCH  14  15
ATOM     15  C   UNL     1      25.108  11.812   0.212  0.00  0.00    -0.019 A 
ATOM     16  C   UNL     1      24.361  11.300   1.328  0.00  0.00    +0.013 A 
ATOM     17  C   UNL     1      25.034  11.426   2.524  0.00  0.00    +0.045 A 
ATOM     18  S   UNL     1      26.569  12.144   2.321  0.00  0.00    -0.105 S 
ATOM     19  C   UNL     1      26.332  12.301   0.636  0.00  0.00    +0.050 A 
ENDBRANCH  14  15
ENDBRANCH  12  14
ENDBRANCH   8  10
ENDBRANCH   7   8
ENDBRANCH   6   7
ENDBRANCH   2   6
ENDBRANCH   1   3
BRANCH   1  20
ATOM     20  C   UNL     1      29.551  14.345   0.488  0.00  0.00    +0.193 C 
ATOM     21  O   UNL     1      29.748  12.942   0.210  0.00  0.00    -0.219 OA
BRANCH  20  22
ATOM     22  C   UNL     1      30.977  14.939   0.504  0.00  0.00    +0.212 C 
ATOM     23  O   UNL     1      30.961  16.268   1.049  0.00  0.00    -0.218 OA
BRANCH  22  24
ATOM     24  C   UNL     1      32.006  14.070   1.324  0.00  0.00    +0.171 C 
ATOM     25  O   UNL     1      32.321  14.644   2.588  0.00  0.00    -0.343 OA
ATOM     26  C   UNL     1      33.373  14.221   3.405  0.00  0.00    +0.220 C 
ATOM     27  C   UNL     1      34.699  14.137   2.630  0.00  0.00    +0.076 C 
ATOM     28  C   UNL     1      34.454  13.265   1.387  0.00  0.00    +0.177 C 
ATOM     29  O   UNL     1      35.662  13.122   0.653  0.00  0.00    -0.221 OA
ATOM     30  C   UNL     1      33.327  13.889   0.506  0.00  0.00    +0.155 C 
BRANCH  30  31
ATOM     31  N   UNL     1      33.096  13.068  -0.679  0.00  0.00    -0.202 NA
ATOM     32  C   UNL     1      33.184  13.396  -1.993  0.00  0.00    +0.242 C 
ATOM     33  C   UNL     1      33.182  12.285  -3.010  0.00  0.00    +0.096 C 
ATOM     34  O   UNL     1      33.264  14.579  -2.320  0.00  0.00    -0.273 OA
ENDBRANCH  30  31
BRANCH  26  35
ATOM     35  C   UNL     1      33.058  12.840   4.202  0.00  0.00    +0.391 C 
ATOM     36  O   UNL     1      34.242  12.463   4.723  0.00  0.00    -0.243 OA
ATOM     37  O   UNL     1      31.725  12.762   4.294  0.00  0.00    -0.243 OA
ENDBRANCH  26  35
ENDBRANCH  22  24
ENDBRANCH  20  22
ENDBRANCH   1  20
TORSDOF 12
