REMARK VINA RESULT:    -5.994      1.709      2.464
REMARK INTER + INTRA:         -15.885
REMARK INTER:                 -13.220
REMARK INTRA:                  -2.665
REMARK UNBOUND:                -2.358
REMARK  Name = lig_assembled_30.pdb
REMARK  22 active torsions:
REMARK  status: ('A' for Active; 'I' for Inactive)
REMARK    1  A    between atoms: _2  and  _8
REMARK    2  A    between atoms: _4  and  _17
REMARK    3  A    between atoms: _4  and  _18
REMARK    4  A    between atoms: _5  and  _6
REMARK    5  A    between atoms: _5  and  _20
REMARK    6  A    between atoms: _8  and  _9
REMARK    7  A    between atoms: _9  and  _10
REMARK    8  A    between atoms: _10  and  _11
REMARK    9  A    between atoms: _11  and  _12
REMARK   10  A    between atoms: _12  and  _13
REMARK   11  A    between atoms: _13  and  _14
REMARK   12  A    between atoms: _14  and  _15
REMARK   13  A    between atoms: _15  and  _16
REMARK   14  A    between atoms: _16  and  _17
REMARK   15  A    between atoms: _20  and  _22
REMARK   16  A    between atoms: _21  and  _26
REMARK   17  A    between atoms: _22  and  _25
REMARK   18  A    between atoms: _30  and  _40
REMARK   19  A    between atoms: _32  and  _33
REMARK   20  A    between atoms: _34  and  _36
REMARK   21  A    between atoms: _36  and  _38
REMARK   22  A    between atoms: _38  and  _40
REMARK                            x       y       z     vdW  Elec       q    Type
REMARK                         _______ _______ _______ _____ _____    ______ ____
ROOT
ATOM      1  C   UNL     1      28.121  17.148  -0.816  0.00  0.00    +0.400 C 
ATOM      2  N   UNL     1      28.917  16.156  -0.293  0.00  0.00    -0.278 N 
ATOM      3  H   UNL     1      29.223  16.555   0.650  0.00  0.00    +0.152 HD
ATOM      4  O   UNL     1      27.812  18.087  -0.086  0.00  0.00    -0.226 OA
ENDROOT
BRANCH   1   5
ATOM      5  O   UNL     1      27.796  17.008  -2.059  0.00  0.00    -0.450 OA
BRANCH   5   6
ATOM      6  C   UNL     1      26.774  17.401  -2.946  0.00  0.00    +0.240 C 
BRANCH   6   7
ATOM      7  C   UNL     1      26.493  16.487  -4.154  0.00  0.00    +0.100 C 
BRANCH   7   9
ATOM      8  N   UNL     1      26.143  14.106  -3.577  0.00  0.00    -0.134 NA
ATOM      9  C   UNL     1      25.628  15.363  -3.755  0.00  0.00    +0.086 A 
ATOM     10  C   UNL     1      24.272  15.334  -3.508  0.00  0.00    +0.133 A 
ATOM     11  N   UNL     1      24.029  14.034  -3.185  0.00  0.00    -0.251 N 
ATOM     12  N   UNL     1      25.151  13.297  -3.229  0.00  0.00    -0.065 NA
BRANCH  11  13
ATOM     13  C   UNL     1      22.758  13.419  -2.871  0.00  0.00    +0.145 C 
BRANCH  13  14
ATOM     14  C   UNL     1      21.826  14.404  -2.175  0.00  0.00    +0.023 C 
BRANCH  14  15
ATOM     15  C   UNL     1      20.854  13.700  -1.229  0.00  0.00    +0.002 C 
BRANCH  15  16
ATOM     16  C   UNL     1      21.578  12.598  -0.455  0.00  0.00    +0.000 C 
BRANCH  16  17
ATOM     17  C   UNL     1      21.047  12.463   0.968  0.00  0.00    +0.000 C 
BRANCH  17  18
ATOM     18  C   UNL     1      21.728  11.300   1.694  0.00  0.00    +0.000 C 
BRANCH  18  19
ATOM     19  C   UNL     1      22.761  10.627   0.794  0.00  0.00    +0.000 C 
BRANCH  19  20
ATOM     20  C   UNL     1      23.953  10.106   1.598  0.00  0.00    +0.001 C 
BRANCH  20  21
ATOM     21  C   UNL     1      25.264  10.465   0.901  0.00  0.00    +0.011 C 
BRANCH  21  22
ATOM     22  C   UNL     1      25.624  11.937   1.089  0.00  0.00    +0.120 C 
BRANCH  22  23
ATOM     23  C   UNL     1      26.580  12.413   0.019  0.00  0.00    +0.305 C 
ATOM     24  O   UNL     1      27.575  11.815  -0.360  0.00  0.00    -0.251 OA
BRANCH  23  25
ATOM     25  O   UNL     1      26.218  13.609  -0.500  0.00  0.00    -0.481 OA
ATOM     26  H   UNL     1      26.109  14.310   0.169  0.00  0.00    +0.295 HD
ENDBRANCH  23  25
ENDBRANCH  22  23
ENDBRANCH  21  22
ENDBRANCH  20  21
ENDBRANCH  19  20
ENDBRANCH  18  19
ENDBRANCH  17  18
ENDBRANCH  16  17
ENDBRANCH  15  16
ENDBRANCH  14  15
ENDBRANCH  13  14
ENDBRANCH  11  13
ENDBRANCH   7   9
ENDBRANCH   6   7
ENDBRANCH   5   6
ENDBRANCH   1   5
BRANCH   2  27
ATOM     27  C   UNL     1      29.506  14.827  -0.439  0.00  0.00    +0.152 C 
BRANCH  27  28
ATOM     28  C   UNL     1      30.955  14.667   0.064  0.00  0.00    +0.193 C 
ATOM     29  O   UNL     1      31.702  15.788  -0.458  0.00  0.00    -0.219 OA
BRANCH  28  30
ATOM     30  C   UNL     1      31.192  14.723   1.590  0.00  0.00    +0.212 C 
ATOM     31  O   UNL     1      29.980  14.416   2.298  0.00  0.00    -0.218 OA
BRANCH  30  32
ATOM     32  C   UNL     1      32.324  13.742   2.081  0.00  0.00    +0.171 C 
ATOM     33  O   UNL     1      33.620  14.330   2.027  0.00  0.00    -0.343 OA
ATOM     34  C   UNL     1      34.814  13.620   2.170  0.00  0.00    +0.220 C 
ATOM     35  C   UNL     1      34.862  12.392   1.243  0.00  0.00    +0.076 C 
ATOM     36  C   UNL     1      33.587  11.571   1.497  0.00  0.00    +0.177 C 
ATOM     37  O   UNL     1      33.599  10.401   0.692  0.00  0.00    -0.221 OA
ATOM     38  C   UNL     1      32.323  12.441   1.213  0.00  0.00    +0.155 C 
BRANCH  38  39
ATOM     39  N   UNL     1      31.109  11.663   1.447  0.00  0.00    -0.202 NA
ATOM     40  C   UNL     1      30.628  11.129   2.598  0.00  0.00    +0.242 C 
ATOM     41  C   UNL     1      29.208  10.627   2.616  0.00  0.00    +0.096 C 
ATOM     42  O   UNL     1      31.353  11.070   3.590  0.00  0.00    -0.273 OA
ENDBRANCH  38  39
BRANCH  34  43
ATOM     43  C   UNL     1      35.150  13.220   3.708  0.00  0.00    +0.391 C 
ATOM     44  O   UNL     1      36.352  12.613   3.655  0.00  0.00    -0.243 OA
ATOM     45  O   UNL     1      34.277  13.896   4.465  0.00  0.00    -0.243 OA
ENDBRANCH  34  43
ENDBRANCH  30  32
ENDBRANCH  28  30
ENDBRANCH  27  28
ENDBRANCH   2  27
TORSDOF 22
