REMARK VINA RESULT:    -6.636      3.402      8.893
REMARK INTER + INTRA:         -14.397
REMARK INTER:                 -11.268
REMARK INTRA:                  -3.128
REMARK UNBOUND:                -2.911
REMARK  Name = lig_assembled_23.pdb
REMARK  13 active torsions:
REMARK  status: ('A' for Active; 'I' for Inactive)
REMARK    1  A    between atoms: _2  and  _9
REMARK    2  A    between atoms: _3  and  _44
REMARK    3  A    between atoms: _6  and  _7
REMARK    4  A    between atoms: _6  and  _16
REMARK    5  A    between atoms: _11  and  _44
REMARK    6  A    between atoms: _16  and  _18
REMARK    7  A    between atoms: _17  and  _22
REMARK    8  A    between atoms: _18  and  _21
REMARK    9  A    between atoms: _26  and  _36
REMARK   10  A    between atoms: _28  and  _29
REMARK   11  A    between atoms: _30  and  _32
REMARK   12  A    between atoms: _32  and  _34
REMARK   13  A    between atoms: _34  and  _36
REMARK                            x       y       z     vdW  Elec       q    Type
REMARK                         _______ _______ _______ _____ _____    ______ ____
ROOT
ATOM      1  C   UNL     1      25.228  13.782  -4.436  0.00  0.00    +0.400 C 
ATOM      2  N   UNL     1      25.606  12.754  -3.605  0.00  0.00    -0.278 N 
ATOM      3  H   UNL     1      24.675  12.367  -3.251  0.00  0.00    +0.152 HD
ATOM      4  O   UNL     1      24.037  13.896  -4.712  0.00  0.00    -0.226 OA
ENDROOT
BRANCH   2   5
ATOM      5  C   UNL     1      26.683  11.962  -3.016  0.00  0.00    +0.152 C 
BRANCH   5   6
ATOM      6  C   UNL     1      26.263  10.932  -1.947  0.00  0.00    +0.193 C 
ATOM      7  O   UNL     1      27.481  10.374  -1.407  0.00  0.00    -0.219 OA
BRANCH   6   8
ATOM      8  C   UNL     1      25.498  11.455  -0.712  0.00  0.00    +0.212 C 
ATOM      9  O   UNL     1      25.856  12.820  -0.440  0.00  0.00    -0.218 OA
BRANCH   8  10
ATOM     10  C   UNL     1      23.932  11.366  -0.863  0.00  0.00    +0.171 C 
ATOM     11  O   UNL     1      23.421  12.287  -1.822  0.00  0.00    -0.343 OA
ATOM     12  C   UNL     1      22.066  12.590  -1.979  0.00  0.00    +0.220 C 
ATOM     13  C   UNL     1      21.404  12.955  -0.639  0.00  0.00    +0.076 C 
ATOM     14  C   UNL     1      21.701  11.816   0.349  0.00  0.00    +0.177 C 
ATOM     15  O   UNL     1      21.076  12.084   1.596  0.00  0.00    -0.221 OA
ATOM     16  C   UNL     1      23.242  11.636   0.515  0.00  0.00    +0.155 C 
BRANCH  16  17
ATOM     17  N   UNL     1      23.529  10.559   1.458  0.00  0.00    -0.202 NA
ATOM     18  C   UNL     1      24.246  10.582   2.610  0.00  0.00    +0.242 C 
ATOM     19  C   UNL     1      24.139   9.405   3.544  0.00  0.00    +0.096 C 
ATOM     20  O   UNL     1      24.957  11.553   2.864  0.00  0.00    -0.273 OA
ENDBRANCH  16  17
BRANCH  12  21
ATOM     21  C   UNL     1      21.232  11.438  -2.764  0.00  0.00    +0.391 C 
ATOM     22  O   UNL     1      19.957  11.873  -2.767  0.00  0.00    -0.243 OA
ATOM     23  O   UNL     1      22.145  10.662  -3.361  0.00  0.00    -0.243 OA
ENDBRANCH  12  21
ENDBRANCH   8  10
ENDBRANCH   6   8
ENDBRANCH   5   6
ENDBRANCH   2   5
BRANCH   1  24
ATOM     24  O   UNL     1      26.180  14.563  -4.830  0.00  0.00    -0.450 OA
BRANCH  24  25
ATOM     25  C   UNL     1      26.522  15.929  -4.802  0.00  0.00    +0.240 C 
BRANCH  25  26
ATOM     26  C   UNL     1      25.995  16.769  -3.623  0.00  0.00    +0.100 C 
BRANCH  26  28
ATOM     27  N   UNL     1      27.452  17.913  -1.985  0.00  0.00    -0.134 NA
ATOM     28  C   UNL     1      26.963  16.753  -2.511  0.00  0.00    +0.086 A 
ATOM     29  C   UNL     1      27.519  15.687  -1.841  0.00  0.00    +0.139 A 
ATOM     30  N   UNL     1      28.344  16.252  -0.895  0.00  0.00    -0.220 N 
ATOM     31  N   UNL     1      28.291  17.602  -1.007  0.00  0.00    -0.061 NA
BRANCH  30  32
ATOM     32  C   UNL     1      29.161  15.613   0.072  0.00  0.00    +0.069 A 
ATOM     33  C   UNL     1      28.639  14.549   0.821  0.00  0.00    +0.056 A 
ATOM     34  C   UNL     1      29.432  13.940   1.801  0.00  0.00    +0.107 A 
ATOM     35  C   UNL     1      30.744  14.359   2.025  0.00  0.00    +0.028 A 
ATOM     36  C   UNL     1      31.267  15.407   1.268  0.00  0.00    +0.004 A 
ATOM     37  C   UNL     1      30.480  16.037   0.298  0.00  0.00    +0.028 A 
BRANCH  34  38
ATOM     38  S   UNL     1      28.738  12.639   2.776  0.00  0.00    +0.056 S 
ATOM     39  O   UNL     1      28.105  11.685   1.896  0.00  0.00    -0.153 OA
ATOM     40  O   UNL     1      29.684  12.252   3.796  0.00  0.00    -0.153 OA
BRANCH  38  41
ATOM     41  N   UNL     1      27.505  13.433   3.591  0.00  0.00    -0.204 NA
ATOM     42  H   UNL     1      27.040  12.791   4.234  0.00  0.00    +0.144 HD
ATOM     43  H   UNL     1      26.875  13.881   2.924  0.00  0.00    +0.144 HD
ENDBRANCH  38  41
ENDBRANCH  34  38
ENDBRANCH  30  32
ENDBRANCH  26  28
ENDBRANCH  25  26
ENDBRANCH  24  25
ENDBRANCH   1  24
TORSDOF 13
