REMARK VINA RESULT:    -6.680      1.961      2.542
REMARK INTER + INTRA:         -12.783
REMARK INTER:                 -10.893
REMARK INTRA:                  -1.890
REMARK UNBOUND:                -1.808
REMARK  Name = lig_assembled_8.pdb
REMARK  11 active torsions:
REMARK  status: ('A' for Active; 'I' for Inactive)
REMARK    1  A    between atoms: _2  and  _8
REMARK    2  A    between atoms: _5  and  _6
REMARK    3  A    between atoms: _5  and  _13
REMARK    4  A    between atoms: _13  and  _15
REMARK    5  A    between atoms: _14  and  _19
REMARK    6  A    between atoms: _15  and  _18
REMARK    7  A    between atoms: _23  and  _33
REMARK    8  A    between atoms: _25  and  _26
REMARK    9  A    between atoms: _27  and  _29
REMARK   10  A    between atoms: _29  and  _31
REMARK   11  A    between atoms: _31  and  _33
REMARK                            x       y       z     vdW  Elec       q    Type
REMARK                         _______ _______ _______ _____ _____    ______ ____
ROOT
ATOM      1  C   UNL     1      28.305  12.714  -2.903  0.00  0.00    +0.400 C 
ATOM      2  N   UNL     1      28.113  13.613  -1.880  0.00  0.00    -0.278 N 
ATOM      3  H   UNL     1      27.999  12.988  -1.020  0.00  0.00    +0.152 HD
ATOM      4  O   UNL     1      28.480  11.534  -2.611  0.00  0.00    -0.226 OA
ENDROOT
BRANCH   1   5
ATOM      5  O   UNL     1      28.252  13.206  -4.097  0.00  0.00    -0.450 OA
BRANCH   5   6
ATOM      6  C   UNL     1      27.370  13.254  -5.194  0.00  0.00    +0.240 C 
BRANCH   6   7
ATOM      7  C   UNL     1      26.574  14.555  -5.409  0.00  0.00    +0.100 C 
BRANCH   7   9
ATOM      8  N   UNL     1      25.377  15.914  -3.732  0.00  0.00    -0.134 NA
ATOM      9  C   UNL     1      25.562  14.717  -4.350  0.00  0.00    +0.086 A 
ATOM     10  C   UNL     1      24.680  13.803  -3.822  0.00  0.00    +0.139 A 
ATOM     11  N   UNL     1      23.943  14.500  -2.879  0.00  0.00    -0.219 N 
ATOM     12  N   UNL     1      24.404  15.770  -2.844  0.00  0.00    -0.061 NA
BRANCH  11  13
ATOM     13  C   UNL     1      22.867  14.021  -2.071  0.00  0.00    +0.081 A 
ATOM     14  C   UNL     1      23.159  13.061  -1.075  0.00  0.00    +0.029 A 
ATOM     15  C   UNL     1      22.159  12.526  -0.260  0.00  0.00    +0.002 A 
ATOM     16  C   UNL     1      20.844  12.933  -0.416  0.00  0.00    +0.001 A 
ATOM     17  C   UNL     1      20.532  13.884  -1.385  0.00  0.00    +0.017 A 
ATOM     18  C   UNL     1      21.527  14.436  -2.215  0.00  0.00    +0.043 A 
ATOM     19 BR   UNL     1      20.858  15.716  -3.456  0.00  0.00    -0.048 Br
ENDBRANCH  11  13
ENDBRANCH   7   9
ENDBRANCH   6   7
ENDBRANCH   5   6
ENDBRANCH   1   5
BRANCH   2  20
ATOM     20  C   UNL     1      28.010  15.005  -1.449  0.00  0.00    +0.152 C 
BRANCH  20  21
ATOM     21  C   UNL     1      28.704  15.356  -0.117  0.00  0.00    +0.193 C 
ATOM     22  O   UNL     1      28.443  14.261   0.788  0.00  0.00    -0.219 OA
BRANCH  21  23
ATOM     23  C   UNL     1      30.242  15.492  -0.125  0.00  0.00    +0.212 C 
ATOM     24  O   UNL     1      30.634  16.787   0.359  0.00  0.00    -0.218 OA
BRANCH  23  25
ATOM     25  C   UNL     1      30.971  14.391   0.736  0.00  0.00    +0.171 C 
ATOM     26  O   UNL     1      31.386  14.876   2.008  0.00  0.00    -0.343 OA
ATOM     27  C   UNL     1      32.256  14.197   2.865  0.00  0.00    +0.220 C 
ATOM     28  C   UNL     1      33.536  13.749   2.139  0.00  0.00    +0.076 C 
ATOM     29  C   UNL     1      33.108  12.957   0.892  0.00  0.00    +0.177 C 
ATOM     30  O   UNL     1      34.257  12.484   0.204  0.00  0.00    -0.221 OA
ATOM     31  C   UNL     1      32.221  13.849  -0.032  0.00  0.00    +0.155 C 
BRANCH  31  32
ATOM     32  N   UNL     1      31.818  13.103  -1.221  0.00  0.00    -0.202 NA
ATOM     33  C   UNL     1      32.264  13.201  -2.499  0.00  0.00    +0.242 C 
ATOM     34  C   UNL     1      31.892  12.112  -3.472  0.00  0.00    +0.096 C 
ATOM     35  O   UNL     1      32.955  14.162  -2.830  0.00  0.00    -0.273 OA
ENDBRANCH  31  32
BRANCH  27  36
ATOM     36  C   UNL     1      31.554  12.964   3.656  0.00  0.00    +0.391 C 
ATOM     37  O   UNL     1      32.503  12.504   4.494  0.00  0.00    -0.243 OA
ATOM     38  O   UNL     1      30.243  13.061   3.405  0.00  0.00    -0.243 OA
ENDBRANCH  27  36
ENDBRANCH  23  25
ENDBRANCH  21  23
ENDBRANCH  20  21
ENDBRANCH   2  20
TORSDOF 11
