REMARK VINA RESULT:    -6.400      4.265      9.402
REMARK INTER + INTRA:         -12.648
REMARK INTER:                 -10.515
REMARK INTRA:                  -2.133
REMARK UNBOUND:                -2.133
REMARK  Name = lig_assembled_7.pdb
REMARK  14 active torsions:
REMARK  status: ('A' for Active; 'I' for Inactive)
REMARK    1  A    between atoms: _2  and  _8
REMARK    2  A    between atoms: _4  and  _15
REMARK    3  A    between atoms: _5  and  _6
REMARK    4  A    between atoms: _5  and  _16
REMARK    5  A    between atoms: _9  and  _10
REMARK    6  A    between atoms: _12  and  _13
REMARK    7  A    between atoms: _16  and  _18
REMARK    8  A    between atoms: _17  and  _22
REMARK    9  A    between atoms: _18  and  _21
REMARK   10  A    between atoms: _26  and  _36
REMARK   11  A    between atoms: _28  and  _29
REMARK   12  A    between atoms: _30  and  _32
REMARK   13  A    between atoms: _32  and  _34
REMARK   14  A    between atoms: _34  and  _36
REMARK                            x       y       z     vdW  Elec       q    Type
REMARK                         _______ _______ _______ _____ _____    ______ ____
ROOT
ATOM      1  C   UNL     1      31.371  13.131   2.898  0.00  0.00    +0.400 C 
ATOM      2  N   UNL     1      30.999  13.837   1.778  0.00  0.00    -0.278 N 
ATOM      3  H   UNL     1      30.141  13.306   1.425  0.00  0.00    +0.152 HD
ATOM      4  O   UNL     1      30.611  12.260   3.313  0.00  0.00    -0.226 OA
ENDROOT
BRANCH   1   5
ATOM      5  O   UNL     1      32.523  13.438   3.396  0.00  0.00    -0.450 OA
BRANCH   5   6
ATOM      6  C   UNL     1      33.841  12.940   3.428  0.00  0.00    +0.240 C 
BRANCH   6   7
ATOM      7  C   UNL     1      34.597  13.017   4.768  0.00  0.00    +0.100 C 
BRANCH   7   9
ATOM      8  N   UNL     1      34.093  11.060   6.179  0.00  0.00    -0.134 NA
ATOM      9  C   UNL     1      33.826  12.346   5.830  0.00  0.00    +0.086 A 
ATOM     10  C   UNL     1      32.792  12.816   6.619  0.00  0.00    +0.139 A 
ATOM     11  N   UNL     1      32.425  11.749   7.412  0.00  0.00    -0.219 N 
ATOM     12  N   UNL     1      33.265  10.716   7.151  0.00  0.00    -0.061 NA
BRANCH  11  13
ATOM     13  C   UNL     1      31.371  11.650   8.378  0.00  0.00    +0.073 A 
ATOM     14  C   UNL     1      31.654  11.920   9.751  0.00  0.00    -0.024 A 
ATOM     15  C   UNL     1      30.621  11.826  10.710  0.00  0.00    +0.008 A 
ATOM     16  C   UNL     1      29.322  11.482  10.349  0.00  0.00    -0.050 A 
ATOM     17  C   UNL     1      28.248  11.394  11.393  0.00  0.00    +0.044 C 
ATOM     18  C   UNL     1      29.051  11.222   9.008  0.00  0.00    +0.008 A 
ATOM     19  C   UNL     1      33.000  12.363  10.280  0.00  0.00    +0.046 C 
ATOM     20  C   UNL     1      30.052  11.277   8.012  0.00  0.00    -0.024 A 
ATOM     21  C   UNL     1      29.576  10.837   6.649  0.00  0.00    +0.046 C 
ENDBRANCH  11  13
ENDBRANCH   7   9
ENDBRANCH   6   7
ENDBRANCH   5   6
ENDBRANCH   1   5
BRANCH   2  22
ATOM     22  C   UNL     1      31.236  14.968   0.885  0.00  0.00    +0.152 C 
BRANCH  22  23
ATOM     23  C   UNL     1      29.985  15.592   0.232  0.00  0.00    +0.193 C 
ATOM     24  O   UNL     1      30.448  16.680  -0.597  0.00  0.00    -0.219 OA
BRANCH  23  25
ATOM     25  C   UNL     1      29.159  14.703  -0.724  0.00  0.00    +0.212 C 
ATOM     26  O   UNL     1      30.005  13.734  -1.365  0.00  0.00    -0.218 OA
BRANCH  25  27
ATOM     27  C   UNL     1      27.978  13.944  -0.008  0.00  0.00    +0.171 C 
ATOM     28  O   UNL     1      28.436  12.919   0.867  0.00  0.00    -0.343 OA
ATOM     29  C   UNL     1      27.614  11.942   1.435  0.00  0.00    +0.220 C 
ATOM     30  C   UNL     1      26.742  11.245   0.377  0.00  0.00    +0.076 C 
ATOM     31  C   UNL     1      25.999  12.341  -0.405  0.00  0.00    +0.177 C 
ATOM     32  O   UNL     1      25.145  11.747  -1.373  0.00  0.00    -0.221 OA
ATOM     33  C   UNL     1      27.022  13.312  -1.072  0.00  0.00    +0.155 C 
BRANCH  33  34
ATOM     34  N   UNL     1      26.320  14.351  -1.822  0.00  0.00    -0.202 NA
ATOM     35  C   UNL     1      26.289  14.585  -3.159  0.00  0.00    +0.242 C 
ATOM     36  C   UNL     1      25.253  15.539  -3.694  0.00  0.00    +0.096 C 
ATOM     37  O   UNL     1      27.096  14.020  -3.893  0.00  0.00    -0.273 OA
ENDBRANCH  33  34
BRANCH  29  38
ATOM     38  C   UNL     1      26.723  12.490   2.678  0.00  0.00    +0.391 C 
ATOM     39  O   UNL     1      25.729  11.591   2.815  0.00  0.00    -0.243 OA
ATOM     40  O   UNL     1      27.461  13.433   3.275  0.00  0.00    -0.243 OA
ENDBRANCH  29  38
ENDBRANCH  25  27
ENDBRANCH  23  25
ENDBRANCH  22  23
ENDBRANCH   2  22
TORSDOF 11
