REMARK VINA RESULT:    -7.193      3.392      8.687
REMARK INTER + INTRA:         -13.236
REMARK INTER:                 -11.224
REMARK INTRA:                  -2.012
REMARK UNBOUND:                -1.418
REMARK  Name = lig_assembled_20.pdb
REMARK  11 active torsions:
REMARK  status: ('A' for Active; 'I' for Inactive)
REMARK    1  A    between atoms: _2  and  _10
REMARK    2  A    between atoms: _7  and  _8
REMARK    3  A    between atoms: _7  and  _16
REMARK    4  A    between atoms: _16  and  _18
REMARK    5  A    between atoms: _17  and  _22
REMARK    6  A    between atoms: _18  and  _21
REMARK    7  A    between atoms: _26  and  _36
REMARK    8  A    between atoms: _28  and  _29
REMARK    9  A    between atoms: _30  and  _32
REMARK   10  A    between atoms: _32  and  _34
REMARK   11  A    between atoms: _34  and  _36
REMARK                            x       y       z     vdW  Elec       q    Type
REMARK                         _______ _______ _______ _____ _____    ______ ____
ROOT
ATOM      1  C   UNL     1      28.819  16.856  -0.415  0.00  0.00    +0.400 C 
ATOM      2  N   UNL     1      28.137  15.669  -0.283  0.00  0.00    -0.278 N 
ATOM      3  H   UNL     1      27.144  15.981  -0.041  0.00  0.00    +0.152 HD
ATOM      4  O   UNL     1      28.171  17.899  -0.418  0.00  0.00    -0.226 OA
ENDROOT
BRANCH   1   5
ATOM      5  O   UNL     1      30.106  16.756  -0.495  0.00  0.00    -0.450 OA
BRANCH   5   6
ATOM      6  C   UNL     1      31.183  16.221   0.239  0.00  0.00    +0.240 C 
BRANCH   6   7
ATOM      7  C   UNL     1      31.779  14.886  -0.245  0.00  0.00    +0.100 C 
BRANCH   7   9
ATOM      8  N   UNL     1      32.422  12.691   0.716  0.00  0.00    -0.134 NA
ATOM      9  C   UNL     1      32.008  13.980   0.895  0.00  0.00    +0.086 A 
ATOM     10  C   UNL     1      31.864  14.220   2.242  0.00  0.00    +0.139 A 
ATOM     11  N   UNL     1      32.206  13.038   2.857  0.00  0.00    -0.220 N 
ATOM     12  N   UNL     1      32.541  12.126   1.911  0.00  0.00    -0.061 NA
BRANCH  11  13
ATOM     13  C   UNL     1      32.233  12.742   4.244  0.00  0.00    +0.068 A 
ATOM     14  C   UNL     1      33.384  13.028   4.997  0.00  0.00    +0.030 A 
ATOM     15  C   UNL     1      33.443  12.753   6.371  0.00  0.00    +0.030 A 
ATOM     16  C   UNL     1      32.310  12.181   6.957  0.00  0.00    +0.066 A 
ATOM     17  C   UNL     1      31.158  11.884   6.240  0.00  0.00    +0.021 A 
ATOM     18  C   UNL     1      30.277  11.331   7.194  0.00  0.00    +0.142 A 
ATOM     19  N   UNL     1      30.810  11.276   8.415  0.00  0.00    -0.181 NA
ATOM     20  N   UNL     1      32.038  11.799   8.245  0.00  0.00    -0.277 N 
ATOM     21  H   UNL     1      32.649  11.865   9.050  0.00  0.00    +0.189 HD
ATOM     22  C   UNL     1      31.109  12.164   4.862  0.00  0.00    +0.039 A 
ENDBRANCH  11  13
ENDBRANCH   7   9
ENDBRANCH   6   7
ENDBRANCH   5   6
ENDBRANCH   1   5
BRANCH   2  23
ATOM     23  C   UNL     1      28.157  14.210  -0.338  0.00  0.00    +0.152 C 
BRANCH  23  24
ATOM     24  C   UNL     1      28.590  13.586  -1.681  0.00  0.00    +0.193 C 
ATOM     25  O   UNL     1      29.478  12.492  -1.363  0.00  0.00    -0.219 OA
BRANCH  24  26
ATOM     26  C   UNL     1      27.493  12.949  -2.561  0.00  0.00    +0.212 C 
ATOM     27  O   UNL     1      27.719  11.536  -2.700  0.00  0.00    -0.218 OA
BRANCH  26  28
ATOM     28  C   UNL     1      26.036  13.173  -2.002  0.00  0.00    +0.171 C 
ATOM     29  O   UNL     1      25.285  11.966  -1.931  0.00  0.00    -0.343 OA
ATOM     30  C   UNL     1      23.907  11.907  -1.707  0.00  0.00    +0.220 C 
ATOM     31  C   UNL     1      23.134  12.836  -2.659  0.00  0.00    +0.076 C 
ATOM     32  C   UNL     1      23.751  14.240  -2.536  0.00  0.00    +0.177 C 
ATOM     33  O   UNL     1      23.046  15.150  -3.369  0.00  0.00    -0.221 OA
ATOM     34  C   UNL     1      25.267  14.195  -2.902  0.00  0.00    +0.155 C 
BRANCH  34  35
ATOM     35  N   UNL     1      25.854  15.528  -2.793  0.00  0.00    -0.202 NA
ATOM     36  C   UNL     1      26.362  16.334  -3.760  0.00  0.00    +0.242 C 
ATOM     37  C   UNL     1      26.634  17.776  -3.419  0.00  0.00    +0.096 C 
ATOM     38  O   UNL     1      26.584  15.875  -4.879  0.00  0.00    -0.273 OA
ENDBRANCH  34  35
BRANCH  30  39
ATOM     39  C   UNL     1      23.491  12.160  -0.158  0.00  0.00    +0.391 C 
ATOM     40  O   UNL     1      22.167  12.406  -0.189  0.00  0.00    -0.243 OA
ATOM     41  O   UNL     1      24.528  11.740   0.577  0.00  0.00    -0.243 OA
ENDBRANCH  30  39
ENDBRANCH  26  28
ENDBRANCH  24  26
ENDBRANCH  23  24
ENDBRANCH   2  23
TORSDOF 11
