REMARK VINA RESULT:    -5.950      4.417      9.889
REMARK INTER + INTRA:         -12.362
REMARK INTER:                  -9.551
REMARK INTRA:                  -2.811
REMARK UNBOUND:                -1.716
REMARK  Name = lig_assembled_32.pdb
REMARK  14 active torsions:
REMARK  status: ('A' for Active; 'I' for Inactive)
REMARK    1  A    between atoms: _2  and  _8
REMARK    2  A    between atoms: _4  and  _9
REMARK    3  A    between atoms: _4  and  _10
REMARK    4  A    between atoms: _5  and  _6
REMARK    5  A    between atoms: _5  and  _12
REMARK    6  A    between atoms: _8  and  _9
REMARK    7  A    between atoms: _12  and  _14
REMARK    8  A    between atoms: _13  and  _18
REMARK    9  A    between atoms: _14  and  _17
REMARK   10  A    between atoms: _22  and  _32
REMARK   11  A    between atoms: _24  and  _25
REMARK   12  A    between atoms: _26  and  _28
REMARK   13  A    between atoms: _28  and  _30
REMARK   14  A    between atoms: _30  and  _32
REMARK                            x       y       z     vdW  Elec       q    Type
REMARK                         _______ _______ _______ _____ _____    ______ ____
ROOT
ATOM      1  C   UNL     1      27.075  14.114  -3.367  0.00  0.00    +0.152 C 
ENDROOT
BRANCH   1   3
ATOM      2  C   UNL     1      26.555  16.786  -3.187  0.00  0.00    +0.400 C 
ATOM      3  N   UNL     1      26.456  15.435  -3.424  0.00  0.00    -0.278 N 
ATOM      4  H   UNL     1      25.483  15.330  -3.853  0.00  0.00    +0.152 HD
ATOM      5  O   UNL     1      25.684  17.520  -3.645  0.00  0.00    -0.226 OA
BRANCH   2   6
ATOM      6  O   UNL     1      27.561  17.155  -2.463  0.00  0.00    -0.450 OA
BRANCH   6   7
ATOM      7  C   UNL     1      27.815  17.763  -1.218  0.00  0.00    +0.240 C 
BRANCH   7   8
ATOM      8  C   UNL     1      29.255  17.699  -0.676  0.00  0.00    +0.100 C 
BRANCH   8  10
ATOM      9  N   UNL     1      30.751  16.073   0.438  0.00  0.00    -0.134 NA
ATOM     10  C   UNL     1      29.518  16.380  -0.072  0.00  0.00    +0.086 A 
ATOM     11  C   UNL     1      28.682  15.296   0.089  0.00  0.00    +0.133 A 
ATOM     12  N   UNL     1      29.470  14.363   0.689  0.00  0.00    -0.251 N 
ATOM     13  N   UNL     1      30.712  14.831   0.900  0.00  0.00    -0.065 NA
BRANCH  12  14
ATOM     14  C   UNL     1      29.120  13.019   1.093  0.00  0.00    +0.156 C 
BRANCH  14  15
ATOM     15  C   UNL     1      28.463  12.238  -0.037  0.00  0.00    +0.143 C 
BRANCH  15  16
ATOM     16  C   UNL     1      27.176  11.626   0.437  0.00  0.00    +0.306 C 
ATOM     17  O   UNL     1      26.796  10.499   0.161  0.00  0.00    -0.251 OA
BRANCH  16  18
ATOM     18  O   UNL     1      26.452  12.468   1.207  0.00  0.00    -0.481 OA
ATOM     19  H   UNL     1      26.055  12.052   1.997  0.00  0.00    +0.295 HD
ENDBRANCH  16  18
ENDBRANCH  15  16
ENDBRANCH  14  15
ENDBRANCH  12  14
ENDBRANCH   8  10
ENDBRANCH   7   8
ENDBRANCH   6   7
ENDBRANCH   2   6
ENDBRANCH   1   3
BRANCH   1  20
ATOM     20  C   UNL     1      26.113  12.909  -3.428  0.00  0.00    +0.193 C 
ATOM     21  O   UNL     1      26.917  11.725  -3.231  0.00  0.00    -0.219 OA
BRANCH  20  22
ATOM     22  C   UNL     1      25.016  12.815  -2.344  0.00  0.00    +0.212 C 
ATOM     23  O   UNL     1      25.334  13.668  -1.233  0.00  0.00    -0.218 OA
BRANCH  22  24
ATOM     24  C   UNL     1      23.581  13.192  -2.875  0.00  0.00    +0.171 C 
ATOM     25  O   UNL     1      23.536  14.491  -3.456  0.00  0.00    -0.343 OA
ATOM     26  C   UNL     1      22.358  15.169  -3.781  0.00  0.00    +0.220 C 
ATOM     27  C   UNL     1      21.370  15.193  -2.601  0.00  0.00    +0.076 C 
ATOM     28  C   UNL     1      21.174  13.742  -2.133  0.00  0.00    +0.177 C 
ATOM     29  O   UNL     1      20.236  13.702  -1.067  0.00  0.00    -0.221 OA
ATOM     30  C   UNL     1      22.542  13.124  -1.708  0.00  0.00    +0.155 C 
BRANCH  30  31
ATOM     31  N   UNL     1      22.358  11.747  -1.255  0.00  0.00    -0.202 NA
ATOM     32  C   UNL     1      22.701  11.168  -0.077  0.00  0.00    +0.242 C 
ATOM     33  C   UNL     1      22.133   9.810   0.245  0.00  0.00    +0.096 C 
ATOM     34  O   UNL     1      23.457  11.758   0.693  0.00  0.00    -0.273 OA
ENDBRANCH  30  31
BRANCH  26  35
ATOM     35  C   UNL     1      21.653  14.626  -5.140  0.00  0.00    +0.391 C 
ATOM     36  O   UNL     1      22.591  13.868  -5.739  0.00  0.00    -0.243 OA
ATOM     37  O   UNL     1      20.345  14.879  -5.004  0.00  0.00    -0.243 OA
ENDBRANCH  26  35
ENDBRANCH  22  24
ENDBRANCH  20  22
ENDBRANCH   1  20
TORSDOF 14
