REMARK VINA RESULT:    -6.801      2.478      3.768
REMARK INTER + INTRA:         -15.940
REMARK INTER:                 -13.068
REMARK INTRA:                  -2.872
REMARK UNBOUND:                -2.580
REMARK  Name = lig_assembled_90.pdb
REMARK  17 active torsions:
REMARK  status: ('A' for Active; 'I' for Inactive)
REMARK    1  A    between atoms: _2  and  _12
REMARK    2  A    between atoms: _3  and  _14
REMARK    3  A    between atoms: _4  and  _16
REMARK    4  A    between atoms: _9  and  _10
REMARK    5  A    between atoms: _9  and  _23
REMARK    6  A    between atoms: _12  and  _13
REMARK    7  A    between atoms: _14  and  _15
REMARK    8  A    between atoms: _15  and  _16
REMARK    9  A    between atoms: _15  and  _21
REMARK   10  A    between atoms: _23  and  _25
REMARK   11  A    between atoms: _24  and  _29
REMARK   12  A    between atoms: _25  and  _28
REMARK   13  A    between atoms: _33  and  _43
REMARK   14  A    between atoms: _35  and  _36
REMARK   15  A    between atoms: _37  and  _39
REMARK   16  A    between atoms: _39  and  _41
REMARK   17  A    between atoms: _41  and  _43
REMARK                            x       y       z     vdW  Elec       q    Type
REMARK                         _______ _______ _______ _____ _____    ______ ____
ROOT
ATOM      1  C   UNL     1      27.307  17.693  -2.957  0.00  0.00    +0.240 C 
ENDROOT
BRANCH   1   2
ATOM      2  O   UNL     1      26.111  17.088  -3.392  0.00  0.00    -0.450 OA
BRANCH   2   3
ATOM      3  C   UNL     1      25.715  16.201  -4.244  0.00  0.00    +0.400 C 
ATOM      4  N   UNL     1      24.474  15.659  -4.006  0.00  0.00    -0.278 N 
ATOM      5  H   UNL     1      24.263  15.120  -4.904  0.00  0.00    +0.152 HD
ATOM      6  O   UNL     1      26.326  15.832  -5.244  0.00  0.00    -0.226 OA
BRANCH   4   7
ATOM      7  C   UNL     1      23.348  15.482  -3.092  0.00  0.00    +0.152 C 
BRANCH   7   8
ATOM      8  C   UNL     1      22.241  14.515  -3.558  0.00  0.00    +0.193 C 
ATOM      9  O   UNL     1      21.605  15.131  -4.700  0.00  0.00    -0.219 OA
BRANCH   8  10
ATOM     10  C   UNL     1      22.674  13.121  -4.064  0.00  0.00    +0.212 C 
ATOM     11  O   UNL     1      22.993  13.173  -5.464  0.00  0.00    -0.218 OA
BRANCH  10  12
ATOM     12  C   UNL     1      23.912  12.532  -3.287  0.00  0.00    +0.171 C 
ATOM     13  O   UNL     1      25.085  12.470  -4.091  0.00  0.00    -0.343 OA
ATOM     14  C   UNL     1      26.245  11.775  -3.740  0.00  0.00    +0.220 C 
ATOM     15  C   UNL     1      25.938  10.328  -3.317  0.00  0.00    +0.076 C 
ATOM     16  C   UNL     1      24.862  10.385  -2.221  0.00  0.00    +0.177 C 
ATOM     17  O   UNL     1      24.569   9.072  -1.764  0.00  0.00    -0.221 OA
ATOM     18  C   UNL     1      23.582  11.097  -2.761  0.00  0.00    +0.155 C 
BRANCH  18  19
ATOM     19  N   UNL     1      22.554  11.147  -1.724  0.00  0.00    -0.202 NA
ATOM     20  C   UNL     1      22.530  11.842  -0.559  0.00  0.00    +0.242 C 
ATOM     21  C   UNL     1      21.224  11.946   0.186  0.00  0.00    +0.096 C 
ATOM     22  O   UNL     1      23.561  12.367  -0.143  0.00  0.00    -0.273 OA
ENDBRANCH  18  19
BRANCH  14  23
ATOM     23  C   UNL     1      27.148  12.544  -2.629  0.00  0.00    +0.391 C 
ATOM     24  O   UNL     1      28.277  11.815  -2.534  0.00  0.00    -0.243 OA
ATOM     25  O   UNL     1      26.579  13.743  -2.456  0.00  0.00    -0.243 OA
ENDBRANCH  14  23
ENDBRANCH  10  12
ENDBRANCH   8  10
ENDBRANCH   7   8
ENDBRANCH   4   7
ENDBRANCH   2   3
ENDBRANCH   1   2
BRANCH   1  26
ATOM     26  C   UNL     1      27.464  17.953  -1.447  0.00  0.00    +0.100 C 
BRANCH  26  28
ATOM     27  N   UNL     1      29.717  17.704  -0.441  0.00  0.00    -0.134 NA
ATOM     28  C   UNL     1      28.557  17.130  -0.893  0.00  0.00    +0.086 A 
ATOM     29  C   UNL     1      28.638  15.766  -0.732  0.00  0.00    +0.134 A 
ATOM     30  N   UNL     1      29.859  15.574  -0.159  0.00  0.00    -0.243 N 
ATOM     31  N   UNL     1      30.514  16.738  -0.001  0.00  0.00    -0.065 NA
BRANCH  30  32
ATOM     32  C   UNL     1      30.509  14.326   0.165  0.00  0.00    +0.240 C 
BRANCH  32  33
ATOM     33  C   UNL     1      31.730  14.102  -0.698  0.00  0.00    +0.235 C 
ATOM     34  O   UNL     1      31.668  13.590  -1.814  0.00  0.00    -0.274 OA
ATOM     35  N   UNL     1      32.920  14.564  -0.167  0.00  0.00    -0.311 N 
ATOM     36  H   UNL     1      32.977  14.721   0.837  0.00  0.00    +0.149 HD
BRANCH  35  37
ATOM     37  C   UNL     1      34.178  14.333  -0.862  0.00  0.00    +0.137 C 
BRANCH  37  38
ATOM     38  C   UNL     1      35.110  13.433  -0.038  0.00  0.00    +0.151 C 
BRANCH  38  39
ATOM     39  O   UNL     1      36.464  13.699  -0.424  0.00  0.00    -0.388 OA
ATOM     40  H   UNL     1      37.025  12.943  -0.156  0.00  0.00    +0.210 HD
ENDBRANCH  38  39
BRANCH  38  41
ATOM     41  C   UNL     1      34.911  13.639   1.469  0.00  0.00    +0.162 C 
BRANCH  41  42
ATOM     42  N   UNL     1      34.292  12.489   2.112  0.00  0.00    -0.269 N 
ATOM     43  C   UNL     1      34.826  11.219   2.054  0.00  0.00    +0.113 A 
ATOM     44  C   UNL     1      33.945  10.412   2.734  0.00  0.00    +0.137 A 
ATOM     45  N   UNL     1      32.886  11.143   3.205  0.00  0.00    -0.172 NA
ATOM     46  C   UNL     1      33.125  12.389   2.829  0.00  0.00    +0.450 A 
ATOM     47  N   UNL     1      32.231  13.477   3.147  0.00  0.00    +0.120 N 
ATOM     48  O   UNL     1      32.590  14.624   2.847  0.00  0.00    +0.045 OA
ATOM     49  O   UNL     1      31.157  13.188   3.690  0.00  0.00    -0.573 OA
ENDBRANCH  41  42
ENDBRANCH  38  41
ENDBRANCH  37  38
ENDBRANCH  35  37
ENDBRANCH  32  33
ENDBRANCH  30  32
ENDBRANCH  26  28
ENDBRANCH   1  26
TORSDOF 17
