REMARK VINA RESULT:    -6.548      3.876      9.646
REMARK INTER + INTRA:         -12.567
REMARK INTER:                 -11.370
REMARK INTRA:                  -1.197
REMARK UNBOUND:                -1.808
REMARK  Name = lig_assembled_8.pdb
REMARK  11 active torsions:
REMARK  status: ('A' for Active; 'I' for Inactive)
REMARK    1  A    between atoms: _2  and  _8
REMARK    2  A    between atoms: _5  and  _6
REMARK    3  A    between atoms: _5  and  _13
REMARK    4  A    between atoms: _13  and  _15
REMARK    5  A    between atoms: _14  and  _19
REMARK    6  A    between atoms: _15  and  _18
REMARK    7  A    between atoms: _23  and  _33
REMARK    8  A    between atoms: _25  and  _26
REMARK    9  A    between atoms: _27  and  _29
REMARK   10  A    between atoms: _29  and  _31
REMARK   11  A    between atoms: _31  and  _33
REMARK                            x       y       z     vdW  Elec       q    Type
REMARK                         _______ _______ _______ _____ _____    ______ ____
ROOT
ATOM      1  C   UNL     1      27.933  17.699  -1.062  0.00  0.00    +0.400 C 
ATOM      2  N   UNL     1      27.187  17.565  -2.209  0.00  0.00    -0.278 N 
ATOM      3  H   UNL     1      26.261  18.038  -1.958  0.00  0.00    +0.152 HD
ATOM      4  O   UNL     1      27.498  18.421  -0.168  0.00  0.00    -0.226 OA
ENDROOT
BRANCH   1   5
ATOM      5  O   UNL     1      29.029  17.014  -1.024  0.00  0.00    -0.450 OA
BRANCH   5   6
ATOM      6  C   UNL     1      29.574  15.908  -0.342  0.00  0.00    +0.240 C 
BRANCH   6   7
ATOM      7  C   UNL     1      30.810  16.158   0.542  0.00  0.00    +0.100 C 
BRANCH   7   9
ATOM      8  N   UNL     1      30.119  14.005   1.530  0.00  0.00    -0.134 NA
ATOM      9  C   UNL     1      30.987  15.051   1.499  0.00  0.00    +0.086 A 
ATOM     10  C   UNL     1      31.959  14.849   2.451  0.00  0.00    +0.139 A 
ATOM     11  N   UNL     1      31.655  13.634   3.040  0.00  0.00    -0.219 N 
ATOM     12  N   UNL     1      30.527  13.161   2.466  0.00  0.00    -0.061 NA
BRANCH  11  13
ATOM     13  C   UNL     1      32.377  12.946   4.064  0.00  0.00    +0.081 A 
ATOM     14  C   UNL     1      31.639  12.193   5.005  0.00  0.00    +0.029 A 
ATOM     15  C   UNL     1      32.269  11.510   6.050  0.00  0.00    +0.002 A 
ATOM     16  C   UNL     1      33.647  11.562   6.182  0.00  0.00    +0.001 A 
ATOM     17  C   UNL     1      34.396  12.292   5.262  0.00  0.00    +0.017 A 
ATOM     18  C   UNL     1      33.779  12.984   4.202  0.00  0.00    +0.043 A 
ATOM     19 BR   UNL     1      35.010  13.903   3.076  0.00  0.00    -0.048 Br
ENDBRANCH  11  13
ENDBRANCH   7   9
ENDBRANCH   6   7
ENDBRANCH   5   6
ENDBRANCH   1   5
BRANCH   2  20
ATOM     20  C   UNL     1      27.098  17.091  -3.588  0.00  0.00    +0.152 C 
BRANCH  20  21
ATOM     21  C   UNL     1      25.945  16.115  -3.898  0.00  0.00    +0.193 C 
ATOM     22  O   UNL     1      25.951  15.906  -5.327  0.00  0.00    -0.219 OA
BRANCH  21  23
ATOM     23  C   UNL     1      26.030  14.694  -3.300  0.00  0.00    +0.212 C 
ATOM     24  O   UNL     1      26.774  14.711  -2.070  0.00  0.00    -0.218 OA
BRANCH  23  25
ATOM     25  C   UNL     1      24.620  14.045  -3.027  0.00  0.00    +0.171 C 
ATOM     26  O   UNL     1      23.854  14.779  -2.077  0.00  0.00    -0.343 OA
ATOM     27  C   UNL     1      22.686  14.308  -1.473  0.00  0.00    +0.220 C 
ATOM     28  C   UNL     1      22.879  12.903  -0.876  0.00  0.00    +0.076 C 
ATOM     29  C   UNL     1      23.443  12.001  -1.986  0.00  0.00    +0.177 C 
ATOM     30  O   UNL     1      23.603  10.678  -1.496  0.00  0.00    -0.221 OA
ATOM     31  C   UNL     1      24.794  12.578  -2.513  0.00  0.00    +0.155 C 
BRANCH  31  32
ATOM     32  N   UNL     1      25.336  11.721  -3.563  0.00  0.00    -0.202 NA
ATOM     33  C   UNL     1      26.435  10.924  -3.551  0.00  0.00    +0.242 C 
ATOM     34  C   UNL     1      26.603   9.921  -4.663  0.00  0.00    +0.096 C 
ATOM     35  O   UNL     1      27.257  11.036  -2.644  0.00  0.00    -0.273 OA
ENDBRANCH  31  32
BRANCH  27  36
ATOM     36  C   UNL     1      21.385  14.370  -2.445  0.00  0.00    +0.391 C 
ATOM     37  O   UNL     1      20.463  13.596  -1.841  0.00  0.00    -0.243 OA
ATOM     38  O   UNL     1      21.608  15.379  -3.296  0.00  0.00    -0.243 OA
ENDBRANCH  27  36
ENDBRANCH  23  25
ENDBRANCH  21  23
ENDBRANCH  20  21
ENDBRANCH   2  20
TORSDOF 11
