REMARK VINA RESULT:    -6.756      2.405      6.051
REMARK INTER + INTRA:         -15.220
REMARK INTER:                 -11.583
REMARK INTRA:                  -3.637
REMARK UNBOUND:                -2.540
REMARK  Name = lig_assembled_31.pdb
REMARK  15 active torsions:
REMARK  status: ('A' for Active; 'I' for Inactive)
REMARK    1  A    between atoms: _2  and  _10
REMARK    2  A    between atoms: _3  and  _11
REMARK    3  A    between atoms: _4  and  _13
REMARK    4  A    between atoms: _7  and  _8
REMARK    5  A    between atoms: _7  and  _19
REMARK    6  A    between atoms: _10  and  _11
REMARK    7  A    between atoms: _13  and  _14
REMARK    8  A    between atoms: _19  and  _21
REMARK    9  A    between atoms: _20  and  _25
REMARK   10  A    between atoms: _21  and  _24
REMARK   11  A    between atoms: _29  and  _39
REMARK   12  A    between atoms: _31  and  _32
REMARK   13  A    between atoms: _33  and  _35
REMARK   14  A    between atoms: _35  and  _37
REMARK   15  A    between atoms: _37  and  _39
REMARK                            x       y       z     vdW  Elec       q    Type
REMARK                         _______ _______ _______ _____ _____    ______ ____
ROOT
ATOM      1  C   UNL     1      23.188  13.225  -2.639  0.00  0.00    +0.400 C 
ATOM      2  N   UNL     1      23.281  11.860  -2.505  0.00  0.00    -0.278 N 
ATOM      3  H   UNL     1      22.942  11.686  -1.507  0.00  0.00    +0.152 HD
ATOM      4  O   UNL     1      22.617  13.857  -1.753  0.00  0.00    -0.226 OA
ENDROOT
BRANCH   2   5
ATOM      5  C   UNL     1      23.614  10.571  -3.106  0.00  0.00    +0.152 C 
BRANCH   5   6
ATOM      6  C   UNL     1      25.080  10.112  -2.960  0.00  0.00    +0.193 C 
ATOM      7  O   UNL     1      25.906  11.255  -3.272  0.00  0.00    -0.219 OA
BRANCH   6   8
ATOM      8  C   UNL     1      25.553   9.664  -1.560  0.00  0.00    +0.212 C 
ATOM      9  O   UNL     1      26.521   8.608  -1.671  0.00  0.00    -0.218 OA
BRANCH   8  10
ATOM     10  C   UNL     1      26.179  10.834  -0.709  0.00  0.00    +0.171 C 
ATOM     11  O   UNL     1      27.571  10.652  -0.468  0.00  0.00    -0.343 OA
ATOM     12  C   UNL     1      28.315  11.397   0.450  0.00  0.00    +0.220 C 
ATOM     13  C   UNL     1      27.642  11.437   1.833  0.00  0.00    +0.076 C 
ATOM     14  C   UNL     1      26.196  11.919   1.629  0.00  0.00    +0.177 C 
ATOM     15  O   UNL     1      25.539  12.013   2.885  0.00  0.00    -0.221 OA
ATOM     16  C   UNL     1      25.439  10.956   0.663  0.00  0.00    +0.155 C 
BRANCH  16  17
ATOM     17  N   UNL     1      24.063  11.406   0.473  0.00  0.00    -0.202 NA
ATOM     18  C   UNL     1      22.903  10.868   0.928  0.00  0.00    +0.242 C 
ATOM     19  C   UNL     1      21.646  11.695   0.836  0.00  0.00    +0.096 C 
ATOM     20  O   UNL     1      22.904   9.733   1.400  0.00  0.00    -0.273 OA
ENDBRANCH  16  17
BRANCH  12  21
ATOM     21  C   UNL     1      28.686  12.889  -0.077  0.00  0.00    +0.391 C 
ATOM     22  O   UNL     1      29.056  12.721  -1.362  0.00  0.00    -0.243 OA
ATOM     23  O   UNL     1      28.206  13.735   0.842  0.00  0.00    -0.243 OA
ENDBRANCH  12  21
ENDBRANCH   8  10
ENDBRANCH   6   8
ENDBRANCH   5   6
ENDBRANCH   2   5
BRANCH   1  24
ATOM     24  O   UNL     1      23.750  13.724  -3.691  0.00  0.00    -0.450 OA
BRANCH  24  25
ATOM     25  C   UNL     1      23.963  14.979  -4.295  0.00  0.00    +0.240 C 
BRANCH  25  26
ATOM     26  C   UNL     1      25.396  15.316  -4.746  0.00  0.00    +0.100 C 
BRANCH  26  28
ATOM     27  N   UNL     1      26.859  14.990  -2.776  0.00  0.00    -0.134 NA
ATOM     28  C   UNL     1      26.184  15.839  -3.612  0.00  0.00    +0.086 A 
ATOM     29  C   UNL     1      26.388  17.136  -3.196  0.00  0.00    +0.133 A 
ATOM     30  N   UNL     1      27.186  17.006  -2.098  0.00  0.00    -0.250 N 
ATOM     31  N   UNL     1      27.473  15.718  -1.851  0.00  0.00    -0.065 NA
BRANCH  30  32
ATOM     32  C   UNL     1      27.706  18.051  -1.241  0.00  0.00    +0.164 C 
BRANCH  32  33
ATOM     33  C   UNL     1      29.150  17.778  -0.847  0.00  0.00    +0.129 C 
BRANCH  33  34
ATOM     34  N   UNL     1      29.310  16.861   0.274  0.00  0.00    -0.298 N 
ATOM     35  H   UNL     1      28.745  16.957   1.105  0.00  0.00    +0.150 HD
ATOM     36  C   UNL     1      30.485  16.163   0.379  0.00  0.00    +0.300 C 
ATOM     37  O   UNL     1      31.362  16.205  -0.481  0.00  0.00    -0.253 OA
ATOM     38  N   UNL     1      30.588  15.400   1.501  0.00  0.00    -0.292 N 
ATOM     39  H   UNL     1      29.886  15.400   2.227  0.00  0.00    +0.151 HD
BRANCH  38  40
ATOM     40  C   UNL     1      31.788  14.623   1.701  0.00  0.00    +0.180 C 
BRANCH  40  41
ATOM     41  C   UNL     1      31.653  13.594   2.762  0.00  0.00    +0.122 A 
ATOM     42  O   UNL     1      32.777  12.982   3.241  0.00  0.00    -0.466 OA
ATOM     43  C   UNL     1      32.368  12.097   4.192  0.00  0.00    +0.195 A 
ATOM     44  C   UNL     1      31.000  12.129   4.330  0.00  0.00    +0.041 A 
ATOM     45  C   UNL     1      30.537  13.094   3.407  0.00  0.00    +0.046 A 
ENDBRANCH  40  41
ENDBRANCH  38  40
ENDBRANCH  33  34
ENDBRANCH  32  33
ENDBRANCH  30  32
ENDBRANCH  26  28
ENDBRANCH  25  26
ENDBRANCH  24  25
ENDBRANCH   1  24
TORSDOF 15
