REMARK VINA RESULT:    -7.034      1.650      2.860
REMARK INTER + INTRA:         -13.246
REMARK INTER:                 -11.952
REMARK INTRA:                  -1.294
REMARK UNBOUND:                -1.689
REMARK  Name = lig_assembled_49.pdb
REMARK  11 active torsions:
REMARK  status: ('A' for Active; 'I' for Inactive)
REMARK    1  A    between atoms: _2  and  _8
REMARK    2  A    between atoms: _5  and  _6
REMARK    3  A    between atoms: _5  and  _12
REMARK    4  A    between atoms: _12  and  _14
REMARK    5  A    between atoms: _13  and  _18
REMARK    6  A    between atoms: _14  and  _17
REMARK    7  A    between atoms: _22  and  _32
REMARK    8  A    between atoms: _24  and  _25
REMARK    9  A    between atoms: _26  and  _28
REMARK   10  A    between atoms: _28  and  _30
REMARK   11  A    between atoms: _30  and  _32
REMARK                            x       y       z     vdW  Elec       q    Type
REMARK                         _______ _______ _______ _____ _____    ______ ____
ROOT
ATOM      1  C   UNL     1      29.444  14.945  -0.093  0.00  0.00    +0.152 C 
ENDROOT
BRANCH   1   3
ATOM      2  C   UNL     1      28.146  17.253  -0.750  0.00  0.00    +0.400 C 
ATOM      3  N   UNL     1      28.859  16.283  -0.086  0.00  0.00    -0.278 N 
ATOM      4  H   UNL     1      29.054  16.728   0.866  0.00  0.00    +0.152 HD
ATOM      5  O   UNL     1      27.763  18.230  -0.111  0.00  0.00    -0.226 OA
BRANCH   2   6
ATOM      6  O   UNL     1      27.971  17.052  -2.015  0.00  0.00    -0.450 OA
BRANCH   6   7
ATOM      7  C   UNL     1      27.022  17.329  -3.019  0.00  0.00    +0.240 C 
BRANCH   7   8
ATOM      8  C   UNL     1      26.644  16.181  -3.975  0.00  0.00    +0.100 C 
BRANCH   8  10
ATOM      9  N   UNL     1      24.446  15.178  -4.504  0.00  0.00    -0.134 NA
ATOM     10  C   UNL     1      25.362  15.575  -3.567  0.00  0.00    +0.086 A 
ATOM     11  C   UNL     1      24.864  15.314  -2.310  0.00  0.00    +0.134 A 
ATOM     12  N   UNL     1      23.638  14.765  -2.550  0.00  0.00    -0.248 N 
ATOM     13  N   UNL     1      23.392  14.684  -3.869  0.00  0.00    -0.065 NA
BRANCH  12  14
ATOM     14  C   UNL     1      22.663  14.328  -1.581  0.00  0.00    +0.109 C 
ATOM     15  C   UNL     1      21.215  14.461  -2.055  0.00  0.00    +0.027 C 
ATOM     16  C   UNL     1      20.459  13.559  -1.093  0.00  0.00    +0.002 C 
ATOM     17  C   UNL     1      21.374  12.356  -0.913  0.00  0.00    +0.002 C 
ATOM     18  C   UNL     1      22.799  12.858  -1.161  0.00  0.00    +0.027 C 
ENDBRANCH  12  14
ENDBRANCH   8  10
ENDBRANCH   7   8
ENDBRANCH   6   7
ENDBRANCH   2   6
ENDBRANCH   1   3
BRANCH   1  19
ATOM     19  C   UNL     1      30.984  14.875  -0.049  0.00  0.00    +0.193 C 
ATOM     20  O   UNL     1      31.472  16.108  -0.623  0.00  0.00    -0.219 OA
BRANCH  19  21
ATOM     21  C   UNL     1      31.657  14.804   1.340  0.00  0.00    +0.212 C 
ATOM     22  O   UNL     1      31.250  15.917   2.153  0.00  0.00    -0.218 OA
BRANCH  21  23
ATOM     23  C   UNL     1      31.343  13.470   2.118  0.00  0.00    +0.171 C 
ATOM     24  O   UNL     1      30.124  13.537   2.851  0.00  0.00    -0.343 OA
ATOM     25  C   UNL     1      29.728  12.603   3.811  0.00  0.00    +0.220 C 
ATOM     26  C   UNL     1      30.837  12.344   4.846  0.00  0.00    +0.076 C 
ATOM     27  C   UNL     1      32.115  11.977   4.073  0.00  0.00    +0.177 C 
ATOM     28  O   UNL     1      33.164  11.688   4.986  0.00  0.00    -0.221 OA
ATOM     29  C   UNL     1      32.509  13.136   3.105  0.00  0.00    +0.155 C 
BRANCH  29  30
ATOM     30  N   UNL     1      33.726  12.794   2.374  0.00  0.00    -0.202 NA
ATOM     31  C   UNL     1      34.955  13.369   2.417  0.00  0.00    +0.242 C 
ATOM     32  C   UNL     1      36.110  12.638   1.784  0.00  0.00    +0.096 C 
ATOM     33  O   UNL     1      35.096  14.460   2.967  0.00  0.00    -0.273 OA
ENDBRANCH  29  30
BRANCH  25  34
ATOM     34  C   UNL     1      29.172  11.216   3.173  0.00  0.00    +0.391 C 
ATOM     35  O   UNL     1      29.335  10.296   4.144  0.00  0.00    -0.243 OA
ATOM     36  O   UNL     1      28.498  11.561   2.069  0.00  0.00    -0.243 OA
ENDBRANCH  25  34
ENDBRANCH  21  23
ENDBRANCH  19  21
ENDBRANCH   1  19
TORSDOF 11
