REMARK VINA RESULT:    -5.912     23.614     26.406
REMARK INTER + INTRA:         -12.717
REMARK INTER:                 -10.060
REMARK INTRA:                  -2.657
REMARK UNBOUND:                -2.657
REMARK  Name = lig_assembled_46.pdb
REMARK  12 active torsions:
REMARK  status: ('A' for Active; 'I' for Inactive)
REMARK    1  A    between atoms: _2  and  _8
REMARK    2  A    between atoms: _5  and  _6
REMARK    3  A    between atoms: _5  and  _14
REMARK    4  A    between atoms: _8  and  _9
REMARK    5  A    between atoms: _14  and  _16
REMARK    6  A    between atoms: _15  and  _20
REMARK    7  A    between atoms: _16  and  _19
REMARK    8  A    between atoms: _24  and  _34
REMARK    9  A    between atoms: _26  and  _27
REMARK   10  A    between atoms: _28  and  _30
REMARK   11  A    between atoms: _30  and  _32
REMARK   12  A    between atoms: _32  and  _34
REMARK                            x       y       z     vdW  Elec       q    Type
REMARK                         _______ _______ _______ _____ _____    ______ ____
ROOT
ATOM      1  C   UNL     1      29.781  39.782  10.275  0.00  0.00    +0.400 C 
ATOM      2  N   UNL     1      28.768  39.400  11.123  0.00  0.00    -0.278 N 
ATOM      3  H   UNL     1      29.080  38.436  11.462  0.00  0.00    +0.152 HD
ATOM      4  O   UNL     1      30.800  39.097  10.244  0.00  0.00    -0.226 OA
ENDROOT
BRANCH   2   5
ATOM      5  C   UNL     1      27.496  39.720  11.765  0.00  0.00    +0.152 C 
BRANCH   5   6
ATOM      6  C   UNL     1      26.238  39.596  10.879  0.00  0.00    +0.193 C 
ATOM      7  O   UNL     1      26.261  40.716   9.967  0.00  0.00    -0.219 OA
BRANCH   6   8
ATOM      8  C   UNL     1      26.127  38.356   9.965  0.00  0.00    +0.212 C 
ATOM      9  O   UNL     1      27.130  37.387  10.309  0.00  0.00    -0.218 OA
BRANCH   8  10
ATOM     10  C   UNL     1      24.713  37.662  10.024  0.00  0.00    +0.171 C 
ATOM     11  O   UNL     1      24.792  36.290  10.398  0.00  0.00    -0.343 OA
ATOM     12  C   UNL     1      23.735  35.383  10.294  0.00  0.00    +0.220 C 
ATOM     13  C   UNL     1      23.095  35.410   8.895  0.00  0.00    +0.076 C 
ATOM     14  C   UNL     1      22.728  36.870   8.582  0.00  0.00    +0.177 C 
ATOM     15  O   UNL     1      22.096  36.946   7.313  0.00  0.00    -0.221 OA
ATOM     16  C   UNL     1      24.004  37.768   8.635  0.00  0.00    +0.155 C 
BRANCH  16  17
ATOM     17  N   UNL     1      23.660  39.155   8.331  0.00  0.00    -0.202 NA
ATOM     18  C   UNL     1      24.096  39.956   7.326  0.00  0.00    +0.242 C 
ATOM     19  C   UNL     1      23.360  41.246   7.070  0.00  0.00    +0.096 C 
ATOM     20  O   UNL     1      25.067  39.615   6.654  0.00  0.00    -0.273 OA
ENDBRANCH  16  17
BRANCH  12  21
ATOM     21  C   UNL     1      22.620  35.552  11.464  0.00  0.00    +0.391 C 
ATOM     22  O   UNL     1      22.929  36.713  12.073  0.00  0.00    -0.243 OA
ATOM     23  O   UNL     1      21.661  34.657  11.193  0.00  0.00    -0.243 OA
ENDBRANCH  12  21
ENDBRANCH   8  10
ENDBRANCH   6   8
ENDBRANCH   5   6
ENDBRANCH   2   5
BRANCH   1  24
ATOM     24  O   UNL     1      29.543  40.829   9.554  0.00  0.00    -0.450 OA
BRANCH  24  25
ATOM     25  C   UNL     1      29.367  41.177   8.201  0.00  0.00    +0.240 C 
BRANCH  25  26
ATOM     26  C   UNL     1      30.287  40.499   7.167  0.00  0.00    +0.100 C 
BRANCH  26  28
ATOM     27  N   UNL     1      30.143  38.725   5.446  0.00  0.00    -0.134 NA
ATOM     28  C   UNL     1      29.590  39.372   6.520  0.00  0.00    +0.086 A 
ATOM     29  C   UNL     1      28.395  38.768   6.843  0.00  0.00    +0.134 A 
ATOM     30  N   UNL     1      28.304  37.724   5.966  0.00  0.00    -0.247 N 
ATOM     31  N   UNL     1      29.352  37.712   5.120  0.00  0.00    -0.065 NA
BRANCH  30  32
ATOM     32  C   UNL     1      27.407  36.584   6.038  0.00  0.00    +0.180 C 
BRANCH  32  33
ATOM     33  C   UNL     1      27.775  35.587   7.108  0.00  0.00    -0.026 A 
ATOM     34  C   UNL     1      29.118  35.276   7.374  0.00  0.00    +0.005 A 
ATOM     35  C   UNL     1      29.453  34.425   8.430  0.00  0.00    +0.000 A 
ATOM     36  C   UNL     1      28.453  33.878   9.232  0.00  0.00    +0.000 A 
ATOM     37  C   UNL     1      27.117  34.172   8.974  0.00  0.00    +0.000 A 
ATOM     38  C   UNL     1      26.779  35.022   7.919  0.00  0.00    +0.005 A 
ENDBRANCH  32  33
ENDBRANCH  30  32
ENDBRANCH  26  28
ENDBRANCH  25  26
ENDBRANCH  24  25
ENDBRANCH   1  24
TORSDOF 12
