REMARK VINA RESULT:    -6.422      2.552      8.433
REMARK INTER + INTRA:         -16.253
REMARK INTER:                 -12.544
REMARK INTRA:                  -3.709
REMARK UNBOUND:                -3.824
REMARK  Name = lig_assembled_81.pdb
REMARK  17 active torsions:
REMARK  status: ('A' for Active; 'I' for Inactive)
REMARK    1  A    between atoms: _2  and  _11
REMARK    2  A    between atoms: _7  and  _23
REMARK    3  A    between atoms: _8  and  _9
REMARK    4  A    between atoms: _8  and  _25
REMARK    5  A    between atoms: _13  and  _14
REMARK    6  A    between atoms: _20  and  _21
REMARK    7  A    between atoms: _21  and  _22
REMARK    8  A    between atoms: _22  and  _24
REMARK    9  A    between atoms: _23  and  _24
REMARK   10  A    between atoms: _25  and  _27
REMARK   11  A    between atoms: _26  and  _31
REMARK   12  A    between atoms: _27  and  _30
REMARK   13  A    between atoms: _35  and  _45
REMARK   14  A    between atoms: _37  and  _38
REMARK   15  A    between atoms: _39  and  _41
REMARK   16  A    between atoms: _41  and  _43
REMARK   17  A    between atoms: _43  and  _45
REMARK                            x       y       z     vdW  Elec       q    Type
REMARK                         _______ _______ _______ _____ _____    ______ ____
ROOT
ATOM      1  C   UNL     1      27.149  17.475  -2.503  0.00  0.00    +0.096 C 
ENDROOT
BRANCH   1   3
ATOM      2  N   UNL     1      27.540  15.103  -2.020  0.00  0.00    -0.133 NA
ATOM      3  C   UNL     1      27.655  16.401  -1.624  0.00  0.00    +0.066 C 
ATOM      4  C   UNL     1      28.241  16.431  -0.372  0.00  0.00    +0.120 C 
ATOM      5  N   UNL     1      28.591  15.112  -0.117  0.00  0.00    -0.187 N 
ATOM      6  N   UNL     1      27.984  14.337  -1.038  0.00  0.00    -0.010 NA
BRANCH   5   7
ATOM      7  C   UNL     1      29.279  14.586   1.027  0.00  0.00    +0.150 A 
ATOM      8  C   UNL     1      30.686  14.481   1.168  0.00  0.00    +0.022 A 
ATOM      9  C   UNL     1      31.082  13.845   2.375  0.00  0.00    +0.081 A 
ATOM     10  N   UNL     1      30.169  13.331   3.245  0.00  0.00    -0.214 NA
ATOM     11  C   UNL     1      28.880  13.467   2.989  0.00  0.00    +0.215 A 
ATOM     12  N   UNL     1      27.979  12.863   3.833  0.00  0.00    -0.327 N 
ATOM     13  H   UNL     1      28.385  12.692   4.741  0.00  0.00    +0.145 HD
ATOM     14  H   UNL     1      27.068  13.292   3.779  0.00  0.00    +0.145 HD
ATOM     15  N   UNL     1      28.399  14.152   1.970  0.00  0.00    -0.198 NA
BRANCH   9  16
ATOM     16  C   UNL     1      32.486  13.603   2.883  0.00  0.00    +0.001 A 
ATOM     17  C   UNL     1      33.305  14.575   3.485  0.00  0.00    +0.010 A 
ATOM     18  C   UNL     1      34.600  14.287   3.949  0.00  0.00    +0.001 A 
ATOM     19  C   UNL     1      35.101  13.000   3.885  0.00  0.00    +0.000 A 
ATOM     20  C   UNL     1      34.305  11.991   3.348  0.00  0.00    +0.001 A 
ATOM     21  C   UNL     1      33.031  12.297   2.848  0.00  0.00    +0.010 A 
ENDBRANCH   9  16
BRANCH   8  22
ATOM     22  C   UNL     1      31.782  15.052   0.265  0.00  0.00    +0.069 C 
BRANCH  22  23
ATOM     23  C   UNL     1      32.259  14.301  -0.963  0.00  0.00    +0.164 C 
BRANCH  23  24
ATOM     24  O   UNL     1      31.268  13.551  -1.675  0.00  0.00    -0.380 OA
BRANCH  24  25
ATOM     25  C   UNL     1      31.980  12.770  -2.654  0.00  0.00    +0.156 C 
ATOM     26  C   UNL     1      33.122  13.546  -3.266  0.00  0.00    +0.034 C 
ENDBRANCH  24  25
ENDBRANCH  23  24
ENDBRANCH  22  23
ENDBRANCH   8  22
ENDBRANCH   5   7
ENDBRANCH   1   3
BRANCH   1  27
ATOM     27  C   UNL     1      26.884  16.928  -3.918  0.00  0.00    +0.240 C 
BRANCH  27  28
ATOM     28  O   UNL     1      25.591  16.442  -4.195  0.00  0.00    -0.450 OA
BRANCH  28  29
ATOM     29  C   UNL     1      25.002  15.324  -4.469  0.00  0.00    +0.400 C 
ATOM     30  N   UNL     1      24.485  14.644  -3.392  0.00  0.00    -0.278 N 
ATOM     31  H   UNL     1      23.889  13.881  -3.844  0.00  0.00    +0.152 HD
ATOM     32  O   UNL     1      24.843  14.844  -5.589  0.00  0.00    -0.226 OA
BRANCH  30  33
ATOM     33  C   UNL     1      24.399  14.491  -1.942  0.00  0.00    +0.152 C 
BRANCH  33  34
ATOM     34  C   UNL     1      23.892  13.126  -1.432  0.00  0.00    +0.193 C 
ATOM     35  O   UNL     1      22.624  12.885  -2.081  0.00  0.00    -0.219 OA
BRANCH  34  36
ATOM     36  C   UNL     1      24.739  11.879  -1.764  0.00  0.00    +0.212 C 
ATOM     37  O   UNL     1      25.639  12.158  -2.848  0.00  0.00    -0.218 OA
BRANCH  36  38
ATOM     38  C   UNL     1      25.575  11.347  -0.538  0.00  0.00    +0.171 C 
ATOM     39  O   UNL     1      26.716  10.594  -0.939  0.00  0.00    -0.343 OA
ATOM     40  C   UNL     1      27.486   9.811  -0.075  0.00  0.00    +0.220 C 
ATOM     41  C   UNL     1      26.615   8.857   0.760  0.00  0.00    +0.076 C 
ATOM     42  C   UNL     1      25.530   9.704   1.448  0.00  0.00    +0.177 C 
ATOM     43  O   UNL     1      24.719   8.874   2.267  0.00  0.00    -0.221 OA
ATOM     44  C   UNL     1      24.676  10.455   0.379  0.00  0.00    +0.155 C 
BRANCH  44  45
ATOM     45  N   UNL     1      23.641  11.255   1.028  0.00  0.00    -0.202 NA
ATOM     46  C   UNL     1      22.293  11.094   1.028  0.00  0.00    +0.242 C 
ATOM     47  C   UNL     1      21.479  11.885   2.018  0.00  0.00    +0.096 C 
ATOM     48  O   UNL     1      21.774  10.315   0.232  0.00  0.00    -0.273 OA
ENDBRANCH  44  45
BRANCH  40  49
ATOM     49  C   UNL     1      28.490  10.678   0.862  0.00  0.00    +0.391 C 
ATOM     50  O   UNL     1      28.384  10.127   2.087  0.00  0.00    -0.243 OA
ATOM     51  O   UNL     1      29.251  11.395   0.026  0.00  0.00    -0.243 OA
ENDBRANCH  40  49
ENDBRANCH  36  38
ENDBRANCH  34  36
ENDBRANCH  33  34
ENDBRANCH  30  33
ENDBRANCH  28  29
ENDBRANCH  27  28
ENDBRANCH   1  27
TORSDOF 16
