REMARK VINA RESULT:    -6.274      2.996      4.875
REMARK INTER + INTRA:         -12.308
REMARK INTER:                 -10.769
REMARK INTRA:                  -1.539
REMARK UNBOUND:                -1.999
REMARK  Name = lig_assembled_57.pdb
REMARK  12 active torsions:
REMARK  status: ('A' for Active; 'I' for Inactive)
REMARK    1  A    between atoms: _2  and  _9
REMARK    2  A    between atoms: _3  and  _12
REMARK    3  A    between atoms: _6  and  _7
REMARK    4  A    between atoms: _6  and  _14
REMARK    5  A    between atoms: _14  and  _16
REMARK    6  A    between atoms: _15  and  _20
REMARK    7  A    between atoms: _16  and  _19
REMARK    8  A    between atoms: _24  and  _34
REMARK    9  A    between atoms: _26  and  _27
REMARK   10  A    between atoms: _28  and  _30
REMARK   11  A    between atoms: _30  and  _32
REMARK   12  A    between atoms: _32  and  _34
REMARK                            x       y       z     vdW  Elec       q    Type
REMARK                         _______ _______ _______ _____ _____    ______ ____
ROOT
ATOM      1  C   UNL     1      27.839  17.604  -1.093  0.00  0.00    +0.400 C 
ATOM      2  N   UNL     1      26.898  16.974  -1.873  0.00  0.00    -0.278 N 
ATOM      3  H   UNL     1      25.985  17.455  -1.595  0.00  0.00    +0.152 HD
ATOM      4  O   UNL     1      27.495  18.601  -0.462  0.00  0.00    -0.226 OA
ENDROOT
BRANCH   1   5
ATOM      5  O   UNL     1      29.010  17.057  -1.076  0.00  0.00    -0.450 OA
BRANCH   5   6
ATOM      6  C   UNL     1      29.909  16.487  -0.154  0.00  0.00    +0.240 C 
BRANCH   6   7
ATOM      7  C   UNL     1      30.106  14.959  -0.204  0.00  0.00    +0.100 C 
BRANCH   7   9
ATOM      8  N   UNL     1      31.237  15.295   1.966  0.00  0.00    -0.134 NA
ATOM      9  C   UNL     1      31.055  14.540   0.842  0.00  0.00    +0.086 A 
ATOM     10  C   UNL     1      31.851  13.416   0.921  0.00  0.00    +0.134 A 
ATOM     11  N   UNL     1      32.426  13.500   2.154  0.00  0.00    -0.248 N 
ATOM     12  N   UNL     1      32.105  14.671   2.745  0.00  0.00    -0.065 NA
BRANCH  11  13
ATOM     13  C   UNL     1      33.227  12.540   2.904  0.00  0.00    +0.111 C 
ATOM     14  C   UNL     1      34.135  11.737   1.962  0.00  0.00    +0.042 C 
ATOM     15  C   UNL     1      35.302  12.596   1.482  0.00  0.00    +0.086 C 
ATOM     16  N   UNL     1      36.127  13.108   2.582  0.00  0.00    -0.305 NA
ATOM     17  C   UNL     1      35.341  13.833   3.582  0.00  0.00    +0.086 C 
ATOM     18  C   UNL     1      36.975  12.075   3.167  0.00  0.00    +0.104 C 
ATOM     19  C   UNL     1      34.071  13.111   4.055  0.00  0.00    +0.042 C 
ENDBRANCH  11  13
ENDBRANCH   7   9
ENDBRANCH   6   7
ENDBRANCH   5   6
ENDBRANCH   1   5
BRANCH   2  20
ATOM     20  C   UNL     1      26.596  15.977  -2.896  0.00  0.00    +0.152 C 
BRANCH  20  21
ATOM     21  C   UNL     1      25.403  15.044  -2.605  0.00  0.00    +0.193 C 
ATOM     22  O   UNL     1      24.552  15.081  -3.772  0.00  0.00    -0.219 OA
BRANCH  21  23
ATOM     23  C   UNL     1      25.703  13.544  -2.395  0.00  0.00    +0.212 C 
ATOM     24  O   UNL     1      27.042  13.236  -2.816  0.00  0.00    -0.218 OA
BRANCH  23  25
ATOM     25  C   UNL     1      25.524  13.074  -0.901  0.00  0.00    +0.171 C 
ATOM     26  O   UNL     1      26.596  12.251  -0.453  0.00  0.00    -0.343 OA
ATOM     27  C   UNL     1      26.577  11.506   0.728  0.00  0.00    +0.220 C 
ATOM     28  C   UNL     1      25.303  10.652   0.844  0.00  0.00    +0.076 C 
ATOM     29  C   UNL     1      24.099  11.588   0.650  0.00  0.00    +0.177 C 
ATOM     30  O   UNL     1      22.890  10.854   0.787  0.00  0.00    -0.221 OA
ATOM     31  C   UNL     1      24.182  12.288  -0.742  0.00  0.00    +0.155 C 
BRANCH  31  32
ATOM     32  N   UNL     1      23.036  13.174  -0.933  0.00  0.00    -0.202 NA
ATOM     33  C   UNL     1      22.025  13.102  -1.836  0.00  0.00    +0.242 C 
ATOM     34  C   UNL     1      20.815  13.975  -1.626  0.00  0.00    +0.096 C 
ATOM     35  O   UNL     1      22.117  12.335  -2.792  0.00  0.00    -0.273 OA
ENDBRANCH  31  32
BRANCH  27  36
ATOM     36  C   UNL     1      26.818  12.402   2.062  0.00  0.00    +0.391 C 
ATOM     37  O   UNL     1      26.440  11.611   3.085  0.00  0.00    -0.243 OA
ATOM     38  O   UNL     1      27.567  13.443   1.677  0.00  0.00    -0.243 OA
ENDBRANCH  27  36
ENDBRANCH  23  25
ENDBRANCH  21  23
ENDBRANCH  20  21
ENDBRANCH   2  20
TORSDOF 11
