REMARK VINA RESULT:    -6.469      1.348      1.741
REMARK INTER + INTRA:         -13.479
REMARK INTER:                 -12.160
REMARK INTRA:                  -1.319
REMARK UNBOUND:                -2.094
REMARK  Name = lig_assembled_24.pdb
REMARK  14 active torsions:
REMARK  status: ('A' for Active; 'I' for Inactive)
REMARK    1  A    between atoms: _2  and  _8
REMARK    2  A    between atoms: _5  and  _6
REMARK    3  A    between atoms: _5  and  _16
REMARK    4  A    between atoms: _8  and  _9
REMARK    5  A    between atoms: _12  and  _15
REMARK    6  A    between atoms: _13  and  _15
REMARK    7  A    between atoms: _16  and  _18
REMARK    8  A    between atoms: _17  and  _22
REMARK    9  A    between atoms: _18  and  _21
REMARK   10  A    between atoms: _26  and  _36
REMARK   11  A    between atoms: _28  and  _29
REMARK   12  A    between atoms: _30  and  _32
REMARK   13  A    between atoms: _32  and  _34
REMARK   14  A    between atoms: _34  and  _36
REMARK                            x       y       z     vdW  Elec       q    Type
REMARK                         _______ _______ _______ _____ _____    ______ ____
ROOT
ATOM      1  C   UNL     1      27.472  15.920  -1.655  0.00  0.00    +0.400 C 
ATOM      2  N   UNL     1      28.378  15.591  -0.674  0.00  0.00    -0.278 N 
ATOM      3  H   UNL     1      29.033  16.435  -0.650  0.00  0.00    +0.152 HD
ATOM      4  O   UNL     1      27.493  17.063  -2.104  0.00  0.00    -0.226 OA
ENDROOT
BRANCH   1   5
ATOM      5  O   UNL     1      26.691  14.964  -2.038  0.00  0.00    -0.450 OA
BRANCH   5   6
ATOM      6  C   UNL     1      25.637  14.745  -2.947  0.00  0.00    +0.240 C 
BRANCH   6   7
ATOM      7  C   UNL     1      24.558  15.839  -3.061  0.00  0.00    +0.100 C 
BRANCH   7   9
ATOM      8  N   UNL     1      22.089  15.856  -3.243  0.00  0.00    -0.134 NA
ATOM      9  C   UNL     1      23.229  15.284  -2.745  0.00  0.00    +0.086 A 
ATOM     10  C   UNL     1      22.888  14.187  -1.986  0.00  0.00    +0.134 A 
ATOM     11  N   UNL     1      21.533  14.098  -2.117  0.00  0.00    -0.247 N 
ATOM     12  N   UNL     1      21.056  15.129  -2.845  0.00  0.00    -0.065 NA
BRANCH  11  13
ATOM     13  C   UNL     1      20.599  13.082  -1.659  0.00  0.00    +0.180 C 
BRANCH  13  14
ATOM     14  C   UNL     1      21.098  12.235  -0.514  0.00  0.00    -0.026 A 
ATOM     15  C   UNL     1      21.672  10.980  -0.754  0.00  0.00    +0.009 A 
ATOM     16  C   UNL     1      22.133  10.202   0.311  0.00  0.00    +0.046 A 
ATOM     17  C   UNL     1      22.046  10.669   1.623  0.00  0.00    +0.120 A 
ATOM     18  C   UNL     1      21.453  11.904   1.872  0.00  0.00    +0.046 A 
ATOM     19  C   UNL     1      20.983  12.685   0.810  0.00  0.00    +0.009 A 
BRANCH  17  20
ATOM     20  O   UNL     1      22.511   9.813   2.583  0.00  0.00    -0.495 OA
ATOM     21  C   UNL     1      23.825  10.085   3.060  0.00  0.00    +0.277 C 
ENDBRANCH  17  20
ENDBRANCH  13  14
ENDBRANCH  11  13
ENDBRANCH   7   9
ENDBRANCH   6   7
ENDBRANCH   5   6
ENDBRANCH   1   5
BRANCH   2  22
ATOM     22  C   UNL     1      28.826  14.636   0.336  0.00  0.00    +0.152 C 
BRANCH  22  23
ATOM     23  C   UNL     1      30.171  13.933   0.057  0.00  0.00    +0.193 C 
ATOM     24  O   UNL     1      30.249  13.740  -1.373  0.00  0.00    -0.219 OA
BRANCH  23  25
ATOM     25  C   UNL     1      31.465  14.697   0.414  0.00  0.00    +0.212 C 
ATOM     26  O   UNL     1      31.151  15.991   0.954  0.00  0.00    -0.218 OA
BRANCH  25  27
ATOM     27  C   UNL     1      32.379  13.929   1.444  0.00  0.00    +0.171 C 
ATOM     28  O   UNL     1      32.557  14.648   2.660  0.00  0.00    -0.343 OA
ATOM     29  C   UNL     1      33.501  14.322   3.637  0.00  0.00    +0.220 C 
ATOM     30  C   UNL     1      34.906  14.143   3.035  0.00  0.00    +0.076 C 
ATOM     31  C   UNL     1      34.790  13.131   1.884  0.00  0.00    +0.177 C 
ATOM     32  O   UNL     1      36.072  12.898   1.317  0.00  0.00    -0.221 OA
ATOM     33  C   UNL     1      33.782  13.649   0.812  0.00  0.00    +0.155 C 
BRANCH  33  34
ATOM     34  N   UNL     1      33.674  12.693  -0.288  0.00  0.00    -0.202 NA
ATOM     35  C   UNL     1      34.271  12.701  -1.506  0.00  0.00    +0.242 C 
ATOM     36  C   UNL     1      34.220  11.445  -2.337  0.00  0.00    +0.096 C 
ATOM     37  O   UNL     1      34.835  13.721  -1.900  0.00  0.00    -0.273 OA
ENDBRANCH  33  34
BRANCH  29  38
ATOM     38  C   UNL     1      33.075  13.047   4.549  0.00  0.00    +0.391 C 
ATOM     39  O   UNL     1      34.168  12.765   5.283  0.00  0.00    -0.243 OA
ATOM     40  O   UNL     1      31.743  12.953   4.454  0.00  0.00    -0.243 OA
ENDBRANCH  29  38
ENDBRANCH  25  27
ENDBRANCH  23  25
ENDBRANCH  22  23
ENDBRANCH   2  22
TORSDOF 13
