REMARK VINA RESULT:    -6.278      1.288      1.760
REMARK INTER + INTRA:         -13.702
REMARK INTER:                 -11.569
REMARK INTRA:                  -2.133
REMARK UNBOUND:                -2.286
REMARK  Name = lig_assembled_62.pdb
REMARK  15 active torsions:
REMARK  status: ('A' for Active; 'I' for Inactive)
REMARK    1  A    between atoms: _2  and  _9
REMARK    2  A    between atoms: _5  and  _9
REMARK    3  A    between atoms: _6  and  _7
REMARK    4  A    between atoms: _6  and  _14
REMARK    5  A    between atoms: _9  and  _10
REMARK    6  A    between atoms: _10  and  _13
REMARK    7  A    between atoms: _11  and  _13
REMARK    8  A    between atoms: _14  and  _16
REMARK    9  A    between atoms: _15  and  _20
REMARK   10  A    between atoms: _16  and  _19
REMARK   11  A    between atoms: _24  and  _34
REMARK   12  A    between atoms: _26  and  _27
REMARK   13  A    between atoms: _28  and  _30
REMARK   14  A    between atoms: _30  and  _32
REMARK   15  A    between atoms: _32  and  _34
REMARK                            x       y       z     vdW  Elec       q    Type
REMARK                         _______ _______ _______ _____ _____    ______ ____
ROOT
ATOM      1  C   UNL     1      27.802  17.307  -1.212  0.00  0.00    +0.400 C 
ATOM      2  N   UNL     1      28.236  16.195  -0.530  0.00  0.00    -0.278 N 
ATOM      3  H   UNL     1      28.456  16.573   0.445  0.00  0.00    +0.152 HD
ATOM      4  O   UNL     1      27.600  18.336  -0.572  0.00  0.00    -0.226 OA
ENDROOT
BRANCH   2   5
ATOM      5  C   UNL     1      28.510  14.760  -0.536  0.00  0.00    +0.152 C 
BRANCH   5   6
ATOM      6  C   UNL     1      29.525  14.258   0.511  0.00  0.00    +0.193 C 
ATOM      7  O   UNL     1      29.754  12.859   0.230  0.00  0.00    -0.219 OA
BRANCH   6   8
ATOM      8  C   UNL     1      30.935  14.888   0.500  0.00  0.00    +0.212 C 
ATOM      9  O   UNL     1      30.887  16.234   1.002  0.00  0.00    -0.218 OA
BRANCH   8  10
ATOM     10  C   UNL     1      31.990  14.074   1.342  0.00  0.00    +0.171 C 
ATOM     11  O   UNL     1      32.293  14.694   2.587  0.00  0.00    -0.343 OA
ATOM     12  C   UNL     1      33.358  14.325   3.413  0.00  0.00    +0.220 C 
ATOM     13  C   UNL     1      34.684  14.255   2.635  0.00  0.00    +0.076 C 
ATOM     14  C   UNL     1      34.460  13.339   1.420  0.00  0.00    +0.177 C 
ATOM     15  O   UNL     1      35.669  13.207   0.687  0.00  0.00    -0.221 OA
ATOM     16  C   UNL     1      33.313  13.905   0.526  0.00  0.00    +0.155 C 
BRANCH  16  17
ATOM     17  N   UNL     1      33.102  13.041  -0.633  0.00  0.00    -0.202 NA
ATOM     18  C   UNL     1      33.126  13.344  -1.956  0.00  0.00    +0.242 C 
ATOM     19  C   UNL     1      33.168  12.211  -2.949  0.00  0.00    +0.096 C 
ATOM     20  O   UNL     1      33.114  14.521  -2.311  0.00  0.00    -0.273 OA
ENDBRANCH  16  17
BRANCH  12  21
ATOM     21  C   UNL     1      33.085  12.962   4.252  0.00  0.00    +0.391 C 
ATOM     22  O   UNL     1      34.269  12.659   4.819  0.00  0.00    -0.243 OA
ATOM     23  O   UNL     1      31.754  12.825   4.312  0.00  0.00    -0.243 OA
ENDBRANCH  12  21
ENDBRANCH   8  10
ENDBRANCH   6   8
ENDBRANCH   5   6
ENDBRANCH   2   5
BRANCH   1  24
ATOM     24  O   UNL     1      27.677  17.166  -2.491  0.00  0.00    -0.450 OA
BRANCH  24  25
ATOM     25  C   UNL     1      26.702  17.332  -3.493  0.00  0.00    +0.240 C 
BRANCH  25  26
ATOM     26  C   UNL     1      26.395  16.120  -4.394  0.00  0.00    +0.100 C 
BRANCH  26  28
ATOM     27  N   UNL     1      25.273  13.928  -4.125  0.00  0.00    -0.134 NA
ATOM     28  C   UNL     1      25.406  15.238  -3.747  0.00  0.00    +0.086 A 
ATOM     29  C   UNL     1      24.507  15.506  -2.739  0.00  0.00    +0.134 A 
ATOM     30  N   UNL     1      23.846  14.325  -2.559  0.00  0.00    -0.237 N 
ATOM     31  N   UNL     1      24.317  13.378  -3.391  0.00  0.00    -0.065 NA
BRANCH  30  32
ATOM     32  C   UNL     1      22.794  13.990  -1.615  0.00  0.00    +0.219 C 
BRANCH  32  33
ATOM     33  C   UNL     1      22.605  12.485  -1.544  0.00  0.00    +0.237 C 
ATOM     34  O   UNL     1      23.028  11.776  -0.634  0.00  0.00    -0.274 OA
ATOM     35  N   UNL     1      21.857  11.924  -2.545  0.00  0.00    -0.328 N 
ATOM     36  H   UNL     1      21.402  12.459  -3.274  0.00  0.00    +0.145 HD
ATOM     37  H   UNL     1      21.708  10.924  -2.518  0.00  0.00    +0.145 HD
ENDBRANCH  32  33
BRANCH  32  38
ATOM     38  C   UNL     1      21.488  14.688  -1.992  0.00  0.00    +0.195 C 
BRANCH  38  39
ATOM     39  O   UNL     1      21.340  14.684  -3.418  0.00  0.00    -0.380 OA
ATOM     40  C   UNL     1      20.743  15.885  -3.890  0.00  0.00    +0.194 C 
ENDBRANCH  38  39
ENDBRANCH  32  38
ENDBRANCH  30  32
ENDBRANCH  26  28
ENDBRANCH  25  26
ENDBRANCH  24  25
ENDBRANCH   1  24
TORSDOF 14
