REMARK VINA RESULT:    -6.407      1.254      3.556
REMARK INTER + INTRA:         -12.741
REMARK INTER:                 -11.828
REMARK INTRA:                  -0.913
REMARK UNBOUND:                -1.839
REMARK  Name = lig_assembled_61.pdb
REMARK  12 active torsions:
REMARK  status: ('A' for Active; 'I' for Inactive)
REMARK    1  A    between atoms: _2  and  _8
REMARK    2  A    between atoms: _5  and  _6
REMARK    3  A    between atoms: _5  and  _12
REMARK    4  A    between atoms: _8  and  _9
REMARK    5  A    between atoms: _12  and  _14
REMARK    6  A    between atoms: _13  and  _18
REMARK    7  A    between atoms: _14  and  _17
REMARK    8  A    between atoms: _22  and  _32
REMARK    9  A    between atoms: _24  and  _25
REMARK   10  A    between atoms: _26  and  _28
REMARK   11  A    between atoms: _28  and  _30
REMARK   12  A    between atoms: _30  and  _32
REMARK                            x       y       z     vdW  Elec       q    Type
REMARK                         _______ _______ _______ _____ _____    ______ ____
ROOT
ATOM      1  C   UNL     1      29.221  15.192   0.278  0.00  0.00    +0.152 C 
ENDROOT
BRANCH   1   3
ATOM      2  C   UNL     1      27.859  17.336  -0.717  0.00  0.00    +0.400 C 
ATOM      3  N   UNL     1      28.626  16.509   0.069  0.00  0.00    -0.278 N 
ATOM      4  H   UNL     1      28.883  17.127   0.902  0.00  0.00    +0.152 HD
ATOM      5  O   UNL     1      27.513  18.419  -0.253  0.00  0.00    -0.226 OA
BRANCH   2   6
ATOM      6  O   UNL     1      27.599  16.897  -1.905  0.00  0.00    -0.450 OA
BRANCH   6   7
ATOM      7  C   UNL     1      26.893  17.291  -3.059  0.00  0.00    +0.240 C 
BRANCH   7   8
ATOM      8  C   UNL     1      26.665  16.228  -4.150  0.00  0.00    +0.100 C 
BRANCH   8  10
ATOM      9  N   UNL     1      24.793  14.889  -5.060  0.00  0.00    -0.134 NA
ATOM     10  C   UNL     1      25.292  15.695  -4.070  0.00  0.00    +0.086 A 
ATOM     11  C   UNL     1      24.328  15.869  -3.100  0.00  0.00    +0.134 A 
ATOM     12  N   UNL     1      23.250  15.192  -3.588  0.00  0.00    -0.247 N 
ATOM     13  N   UNL     1      23.545  14.570  -4.744  0.00  0.00    -0.065 NA
BRANCH  12  14
ATOM     14  C   UNL     1      21.930  15.061  -2.998  0.00  0.00    +0.180 C 
BRANCH  14  15
ATOM     15  C   UNL     1      21.884  13.962  -1.972  0.00  0.00    -0.019 A 
ATOM     16  C   UNL     1      20.801  13.751  -1.052  0.00  0.00    +0.013 A 
ATOM     17  C   UNL     1      21.029  12.700  -0.191  0.00  0.00    +0.045 A 
ATOM     18  S   UNL     1      22.533  11.947  -0.484  0.00  0.00    -0.105 S 
ATOM     19  C   UNL     1      22.889  13.034  -1.754  0.00  0.00    +0.050 A 
ENDBRANCH  14  15
ENDBRANCH  12  14
ENDBRANCH   8  10
ENDBRANCH   7   8
ENDBRANCH   6   7
ENDBRANCH   2   6
ENDBRANCH   1   3
BRANCH   1  20
ATOM     20  C   UNL     1      30.518  14.899  -0.505  0.00  0.00    +0.193 C 
ATOM     21  O   UNL     1      31.299  16.114  -0.483  0.00  0.00    -0.219 OA
BRANCH  20  22
ATOM     22  C   UNL     1      31.467  13.820   0.061  0.00  0.00    +0.212 C 
ATOM     23  O   UNL     1      30.767  12.577   0.234  0.00  0.00    -0.218 OA
BRANCH  22  24
ATOM     24  C   UNL     1      32.732  13.565  -0.844  0.00  0.00    +0.171 C 
ATOM     25  O   UNL     1      32.418  12.848  -2.034  0.00  0.00    -0.343 OA
ATOM     26  C   UNL     1      33.369  12.280  -2.886  0.00  0.00    +0.220 C 
ATOM     27  C   UNL     1      34.379  11.412  -2.116  0.00  0.00    +0.076 C 
ATOM     28  C   UNL     1      34.958  12.272  -0.981  0.00  0.00    +0.177 C 
ATOM     29  O   UNL     1      35.930  11.527  -0.259  0.00  0.00    -0.221 OA
ATOM     30  C   UNL     1      33.813  12.768  -0.043  0.00  0.00    +0.155 C 
BRANCH  30  31
ATOM     31  N   UNL     1      34.360  13.580   1.040  0.00  0.00    -0.202 NA
ATOM     32  C   UNL     1      34.265  13.412   2.384  0.00  0.00    +0.242 C 
ATOM     33  C   UNL     1      35.169  14.226   3.272  0.00  0.00    +0.096 C 
ATOM     34  O   UNL     1      33.454  12.609   2.840  0.00  0.00    -0.273 OA
ENDBRANCH  30  31
BRANCH  26  35
ATOM     35  C   UNL     1      34.117  13.366  -3.835  0.00  0.00    +0.391 C 
ATOM     36  O   UNL     1      33.447  14.518  -3.641  0.00  0.00    -0.243 OA
ATOM     37  O   UNL     1      35.271  12.798  -4.207  0.00  0.00    -0.243 OA
ENDBRANCH  26  35
ENDBRANCH  22  24
ENDBRANCH  20  22
ENDBRANCH   1  20
TORSDOF 12
