REMARK VINA RESULT:    -6.341      3.558      8.841
REMARK INTER + INTRA:         -12.740
REMARK INTER:                 -10.783
REMARK INTRA:                  -1.957
REMARK UNBOUND:                -1.952
REMARK  Name = lig_assembled_44.pdb
REMARK  12 active torsions:
REMARK  status: ('A' for Active; 'I' for Inactive)
REMARK    1  A    between atoms: _2  and  _8
REMARK    2  A    between atoms: _5  and  _6
REMARK    3  A    between atoms: _5  and  _14
REMARK    4  A    between atoms: _8  and  _9
REMARK    5  A    between atoms: _14  and  _16
REMARK    6  A    between atoms: _15  and  _20
REMARK    7  A    between atoms: _16  and  _19
REMARK    8  A    between atoms: _24  and  _34
REMARK    9  A    between atoms: _26  and  _27
REMARK   10  A    between atoms: _28  and  _30
REMARK   11  A    between atoms: _30  and  _32
REMARK   12  A    between atoms: _32  and  _34
REMARK                            x       y       z     vdW  Elec       q    Type
REMARK                         _______ _______ _______ _____ _____    ______ ____
ROOT
ATOM      1  C   UNL     1      27.898  17.440  -0.961  0.00  0.00    +0.400 C 
ATOM      2  N   UNL     1      27.009  16.679  -1.683  0.00  0.00    -0.278 N 
ATOM      3  H   UNL     1      26.063  17.123  -1.456  0.00  0.00    +0.152 HD
ATOM      4  O   UNL     1      27.483  18.467  -0.428  0.00  0.00    -0.226 OA
ENDROOT
BRANCH   2   5
ATOM      5  C   UNL     1      26.783  15.573  -2.609  0.00  0.00    +0.152 C 
BRANCH   5   6
ATOM      6  C   UNL     1      25.782  15.837  -3.752  0.00  0.00    +0.193 C 
ATOM      7  O   UNL     1      26.565  16.127  -4.931  0.00  0.00    -0.219 OA
BRANCH   6   8
ATOM      8  C   UNL     1      24.860  14.673  -4.179  0.00  0.00    +0.212 C 
ATOM      9  O   UNL     1      25.600  13.697  -4.930  0.00  0.00    -0.218 OA
BRANCH   8  10
ATOM     10  C   UNL     1      24.164  13.951  -2.963  0.00  0.00    +0.171 C 
ATOM     11  O   UNL     1      24.775  12.705  -2.642  0.00  0.00    -0.343 OA
ATOM     12  C   UNL     1      24.222  11.754  -1.782  0.00  0.00    +0.220 C 
ATOM     13  C   UNL     1      22.762  11.433  -2.149  0.00  0.00    +0.076 C 
ATOM     14  C   UNL     1      21.999  12.766  -2.218  0.00  0.00    +0.177 C 
ATOM     15  O   UNL     1      20.631  12.523  -2.516  0.00  0.00    -0.221 OA
ATOM     16  C   UNL     1      22.652  13.706  -3.279  0.00  0.00    +0.155 C 
BRANCH  16  17
ATOM     17  N   UNL     1      21.925  14.970  -3.352  0.00  0.00    -0.202 NA
ATOM     18  C   UNL     1      21.149  15.469  -4.348  0.00  0.00    +0.242 C 
ATOM     19  C   UNL     1      20.278  16.661  -4.048  0.00  0.00    +0.096 C 
ATOM     20  O   UNL     1      21.173  14.942  -5.459  0.00  0.00    -0.273 OA
ENDBRANCH  16  17
BRANCH  12  21
ATOM     21  C   UNL     1      24.371  12.139  -0.210  0.00  0.00    +0.391 C 
ATOM     22  O   UNL     1      23.424  11.413   0.416  0.00  0.00    -0.243 OA
ATOM     23  O   UNL     1      25.541  12.778  -0.096  0.00  0.00    -0.243 OA
ENDBRANCH  12  21
ENDBRANCH   8  10
ENDBRANCH   6   8
ENDBRANCH   5   6
ENDBRANCH   2   5
BRANCH   1  24
ATOM     24  O   UNL     1      29.101  16.974  -0.886  0.00  0.00    -0.450 OA
BRANCH  24  25
ATOM     25  C   UNL     1      30.194  16.975   0.003  0.00  0.00    +0.240 C 
BRANCH  25  26
ATOM     26  C   UNL     1      31.186  15.801  -0.089  0.00  0.00    +0.100 C 
BRANCH  26  28
ATOM     27  N   UNL     1      32.006  14.324   1.725  0.00  0.00    -0.134 NA
ATOM     28  C   UNL     1      30.958  14.846   1.012  0.00  0.00    +0.086 A 
ATOM     29  C   UNL     1      29.779  14.349   1.515  0.00  0.00    +0.134 A 
ATOM     30  N   UNL     1      30.171  13.593   2.581  0.00  0.00    -0.247 N 
ATOM     31  N   UNL     1      31.511  13.547   2.679  0.00  0.00    -0.065 NA
BRANCH  30  32
ATOM     32  C   UNL     1      29.337  12.892   3.539  0.00  0.00    +0.180 C 
BRANCH  32  33
ATOM     33  C   UNL     1      28.472  11.854   2.863  0.00  0.00    -0.026 A 
ATOM     34  C   UNL     1      28.979  11.076   1.811  0.00  0.00    +0.006 A 
ATOM     35  C   UNL     1      28.172  10.128   1.178  0.00  0.00    +0.015 A 
ATOM     36  C   UNL     1      26.854   9.952   1.594  0.00  0.00    +0.018 A 
ATOM     37 BR   UNL     1      25.768   8.656   0.749  0.00  0.00    -0.050 Br
ATOM     38  C   UNL     1      26.331  10.724   2.629  0.00  0.00    +0.015 A 
ATOM     39  C   UNL     1      27.137  11.677   3.258  0.00  0.00    +0.006 A 
ENDBRANCH  32  33
ENDBRANCH  30  32
ENDBRANCH  26  28
ENDBRANCH  25  26
ENDBRANCH  24  25
ENDBRANCH   1  24
TORSDOF 12
