REMARK VINA RESULT:    -6.774      2.056      4.228
REMARK INTER + INTRA:         -13.321
REMARK INTER:                 -11.621
REMARK INTRA:                  -1.700
REMARK UNBOUND:                -2.191
REMARK  Name = lig_assembled_93.pdb
REMARK  11 active torsions:
REMARK  status: ('A' for Active; 'I' for Inactive)
REMARK    1  A    between atoms: _2  and  _8
REMARK    2  A    between atoms: _5  and  _6
REMARK    3  A    between atoms: _5  and  _13
REMARK    4  A    between atoms: _13  and  _15
REMARK    5  A    between atoms: _14  and  _19
REMARK    6  A    between atoms: _15  and  _18
REMARK    7  A    between atoms: _23  and  _33
REMARK    8  A    between atoms: _25  and  _26
REMARK    9  A    between atoms: _27  and  _29
REMARK   10  A    between atoms: _29  and  _31
REMARK   11  A    between atoms: _31  and  _33
REMARK                            x       y       z     vdW  Elec       q    Type
REMARK                         _______ _______ _______ _____ _____    ______ ____
ROOT
ATOM      1  C   UNL     1      28.696  16.362  -0.895  0.00  0.00    +0.400 C 
ATOM      2  N   UNL     1      28.879  15.069  -0.466  0.00  0.00    -0.278 N 
ATOM      3  H   UNL     1      29.907  15.049  -0.172  0.00  0.00    +0.152 HD
ATOM      4  O   UNL     1      29.595  17.174  -0.690  0.00  0.00    -0.226 OA
ENDROOT
BRANCH   1   5
ATOM      5  O   UNL     1      27.585  16.595  -1.513  0.00  0.00    -0.450 OA
BRANCH   5   6
ATOM      6  C   UNL     1      27.069  17.465  -2.493  0.00  0.00    +0.240 C 
BRANCH   6   7
ATOM      7  C   UNL     1      26.710  16.860  -3.864  0.00  0.00    +0.100 C 
BRANCH   7   9
ATOM      8  N   UNL     1      25.154  15.169  -4.762  0.00  0.00    -0.134 NA
ATOM      9  C   UNL     1      25.532  15.982  -3.741  0.00  0.00    +0.086 A 
ATOM     10  C   UNL     1      24.662  15.809  -2.690  0.00  0.00    +0.139 A 
ATOM     11  N   UNL     1      23.757  14.847  -3.110  0.00  0.00    -0.219 N 
ATOM     12  N   UNL     1      24.084  14.494  -4.373  0.00  0.00    -0.061 NA
BRANCH  11  13
ATOM     13  C   UNL     1      22.666  14.281  -2.378  0.00  0.00    +0.080 A 
ATOM     14  C   UNL     1      21.370  14.784  -2.642  0.00  0.00    +0.029 A 
ATOM     15  C   UNL     1      20.243  14.309  -1.965  0.00  0.00    +0.002 A 
ATOM     16  C   UNL     1      20.379  13.319  -1.006  0.00  0.00    +0.001 A 
ATOM     17  C   UNL     1      21.642  12.801  -0.730  0.00  0.00    +0.016 A 
ATOM     18  C   UNL     1      22.790  13.267  -1.405  0.00  0.00    +0.039 A 
ATOM     19  I   UNL     1      24.552  12.282  -0.769  0.00  0.00    -0.042 I 
ENDBRANCH  11  13
ENDBRANCH   7   9
ENDBRANCH   6   7
ENDBRANCH   5   6
ENDBRANCH   1   5
BRANCH   2  20
ATOM     20  C   UNL     1      28.310  13.746  -0.223  0.00  0.00    +0.152 C 
BRANCH  20  21
ATOM     21  C   UNL     1      28.721  12.637  -1.214  0.00  0.00    +0.193 C 
ATOM     22  O   UNL     1      28.757  13.244  -2.525  0.00  0.00    -0.219 OA
BRANCH  21  23
ATOM     23  C   UNL     1      30.121  12.008  -1.042  0.00  0.00    +0.212 C 
ATOM     24  O   UNL     1      30.115  10.641  -1.487  0.00  0.00    -0.218 OA
BRANCH  23  25
ATOM     25  C   UNL     1      31.254  12.784  -1.816  0.00  0.00    +0.171 C 
ATOM     26  O   UNL     1      31.882  11.986  -2.814  0.00  0.00    -0.343 OA
ATOM     27  C   UNL     1      33.063  12.333  -3.473  0.00  0.00    +0.220 C 
ATOM     28  C   UNL     1      34.172  12.733  -2.484  0.00  0.00    +0.076 C 
ATOM     29  C   UNL     1      33.599  13.824  -1.564  0.00  0.00    +0.177 C 
ATOM     30  O   UNL     1      34.599  14.259  -0.653  0.00  0.00    -0.221 OA
ATOM     31  C   UNL     1      32.342  13.287  -0.811  0.00  0.00    +0.155 C 
BRANCH  31  32
ATOM     32  N   UNL     1      31.799  14.318   0.069  0.00  0.00    -0.202 NA
ATOM     33  C   UNL     1      31.875  14.433   1.420  0.00  0.00    +0.242 C 
ATOM     34  C   UNL     1      31.483  15.745   2.048  0.00  0.00    +0.096 C 
ATOM     35  O   UNL     1      32.258  13.477   2.091  0.00  0.00    -0.273 OA
ENDBRANCH  31  32
BRANCH  27  36
ATOM     36  C   UNL     1      32.854  13.461  -4.624  0.00  0.00    +0.391 C 
ATOM     37  O   UNL     1      31.788  13.041  -5.332  0.00  0.00    -0.243 OA
ATOM     38  O   UNL     1      33.606  14.506  -4.258  0.00  0.00    -0.243 OA
ENDBRANCH  27  36
ENDBRANCH  23  25
ENDBRANCH  21  23
ENDBRANCH  20  21
ENDBRANCH   2  20
TORSDOF 11
