REMARK VINA RESULT:    -6.886      3.239      7.748
REMARK INTER + INTRA:         -14.637
REMARK INTER:                 -11.699
REMARK INTRA:                  -2.937
REMARK UNBOUND:                -2.115
REMARK  Name = lig_assembled_26.pdb
REMARK  15 active torsions:
REMARK  status: ('A' for Active; 'I' for Inactive)
REMARK    1  A    between atoms: _2  and  _8
REMARK    2  A    between atoms: _5  and  _6
REMARK    3  A    between atoms: _5  and  _18
REMARK    4  A    between atoms: _8  and  _9
REMARK    5  A    between atoms: _8  and  _10
REMARK    6  A    between atoms: _10  and  _11
REMARK    7  A    between atoms: _11  and  _12
REMARK    8  A    between atoms: _18  and  _20
REMARK    9  A    between atoms: _19  and  _24
REMARK   10  A    between atoms: _20  and  _23
REMARK   11  A    between atoms: _28  and  _38
REMARK   12  A    between atoms: _30  and  _31
REMARK   13  A    between atoms: _32  and  _34
REMARK   14  A    between atoms: _34  and  _36
REMARK   15  A    between atoms: _36  and  _38
REMARK                            x       y       z     vdW  Elec       q    Type
REMARK                         _______ _______ _______ _____ _____    ______ ____
ROOT
ATOM      1  C   UNL     1      29.013  16.471  -0.494  0.00  0.00    +0.400 C 
ATOM      2  N   UNL     1      27.862  16.407  -1.243  0.00  0.00    -0.278 N 
ATOM      3  H   UNL     1      27.403  17.356  -1.073  0.00  0.00    +0.152 HD
ATOM      4  O   UNL     1      29.325  17.553  -0.003  0.00  0.00    -0.226 OA
ENDROOT
BRANCH   2   5
ATOM      5  C   UNL     1      27.013  15.647  -2.158  0.00  0.00    +0.152 C 
BRANCH   5   6
ATOM      6  C   UNL     1      26.167  16.475  -3.146  0.00  0.00    +0.193 C 
ATOM      7  O   UNL     1      27.078  17.363  -3.830  0.00  0.00    -0.219 OA
BRANCH   6   8
ATOM      8  C   UNL     1      25.444  15.715  -4.280  0.00  0.00    +0.212 C 
ATOM      9  O   UNL     1      26.224  15.755  -5.487  0.00  0.00    -0.218 OA
BRANCH   8  10
ATOM     10  C   UNL     1      25.139  14.209  -3.927  0.00  0.00    +0.171 C 
ATOM     11  O   UNL     1      26.095  13.312  -4.482  0.00  0.00    -0.343 OA
ATOM     12  C   UNL     1      25.938  11.925  -4.534  0.00  0.00    +0.220 C 
ATOM     13  C   UNL     1      24.578  11.527  -5.133  0.00  0.00    +0.076 C 
ATOM     14  C   UNL     1      23.489  12.274  -4.345  0.00  0.00    +0.177 C 
ATOM     15  O   UNL     1      22.206  11.910  -4.834  0.00  0.00    -0.221 OA
ATOM     16  C   UNL     1      23.716  13.815  -4.442  0.00  0.00    +0.155 C 
BRANCH  16  17
ATOM     17  N   UNL     1      22.680  14.528  -3.700  0.00  0.00    -0.202 NA
ATOM     18  C   UNL     1      21.505  15.050  -4.135  0.00  0.00    +0.242 C 
ATOM     19  C   UNL     1      20.486  15.473  -3.109  0.00  0.00    +0.096 C 
ATOM     20  O   UNL     1      21.300  15.162  -5.342  0.00  0.00    -0.273 OA
ENDBRANCH  16  17
BRANCH  12  21
ATOM     21  C   UNL     1      26.200  11.191  -3.108  0.00  0.00    +0.391 C 
ATOM     22  O   UNL     1      25.486  10.050  -3.169  0.00  0.00    -0.243 OA
ATOM     23  O   UNL     1      27.236  11.827  -2.549  0.00  0.00    -0.243 OA
ENDBRANCH  12  21
ENDBRANCH   8  10
ENDBRANCH   6   8
ENDBRANCH   5   6
ENDBRANCH   2   5
BRANCH   1  24
ATOM     24  O   UNL     1      29.651  15.356  -0.351  0.00  0.00    -0.450 OA
BRANCH  24  25
ATOM     25  C   UNL     1      29.491  14.108   0.283  0.00  0.00    +0.240 C 
BRANCH  25  26
ATOM     26  C   UNL     1      28.434  14.007   1.399  0.00  0.00    +0.100 C 
BRANCH  26  28
ATOM     27  N   UNL     1      28.248  11.627   0.721  0.00  0.00    -0.134 NA
ATOM     28  C   UNL     1      27.688  12.741   1.287  0.00  0.00    +0.086 A 
ATOM     29  C   UNL     1      26.407  12.446   1.690  0.00  0.00    +0.134 A 
ATOM     30  N   UNL     1      26.230  11.146   1.321  0.00  0.00    -0.248 N 
ATOM     31  N   UNL     1      27.352  10.648   0.763  0.00  0.00    -0.065 NA
BRANCH  30  32
ATOM     32  C   UNL     1      25.080  10.277   1.516  0.00  0.00    +0.113 C 
ATOM     33  C   UNL     1      25.432   8.852   1.968  0.00  0.00    +0.033 C 
BRANCH  32  34
ATOM     34  C   UNL     1      24.001  10.910   2.413  0.00  0.00    +0.106 C 
BRANCH  34  35
ATOM     35  C   UNL     1      22.583  10.504   2.054  0.00  0.00    +0.165 C 
ATOM     36  O   UNL     1      21.937   9.706   2.729  0.00  0.00    -0.292 OA
BRANCH  35  37
ATOM     37  C   UNL     1      21.968  11.063   0.815  0.00  0.00    +0.017 A 
ATOM     38  C   UNL     1      21.339  12.315   0.785  0.00  0.00    +0.011 A 
ATOM     39  C   UNL     1      20.816  12.807  -0.413  0.00  0.00    +0.001 A 
ATOM     40  C   UNL     1      20.911  12.053  -1.583  0.00  0.00    +0.000 A 
ATOM     41  C   UNL     1      21.523  10.803  -1.559  0.00  0.00    +0.001 A 
ATOM     42  C   UNL     1      22.049  10.308  -0.366  0.00  0.00    +0.011 A 
ENDBRANCH  35  37
ENDBRANCH  34  35
ENDBRANCH  32  34
ENDBRANCH  30  32
ENDBRANCH  26  28
ENDBRANCH  25  26
ENDBRANCH  24  25
ENDBRANCH   1  24
TORSDOF 14
