REMARK VINA RESULT:    -7.365      2.181      4.531
REMARK INTER + INTRA:         -13.770
REMARK INTER:                 -11.856
REMARK INTRA:                  -1.914
REMARK UNBOUND:                -1.669
REMARK  Name = lig_assembled_70.pdb
REMARK  11 active torsions:
REMARK  status: ('A' for Active; 'I' for Inactive)
REMARK    1  A    between atoms: _2  and  _9
REMARK    2  A    between atoms: _6  and  _7
REMARK    3  A    between atoms: _6  and  _17
REMARK    4  A    between atoms: _17  and  _19
REMARK    5  A    between atoms: _18  and  _23
REMARK    6  A    between atoms: _19  and  _22
REMARK    7  A    between atoms: _27  and  _37
REMARK    8  A    between atoms: _29  and  _30
REMARK    9  A    between atoms: _31  and  _33
REMARK   10  A    between atoms: _33  and  _35
REMARK   11  A    between atoms: _35  and  _37
REMARK                            x       y       z     vdW  Elec       q    Type
REMARK                         _______ _______ _______ _____ _____    ______ ____
ROOT
ATOM      1  C   UNL     1      32.758  13.121  -4.484  0.00  0.00    +0.400 C 
ATOM      2  N   UNL     1      33.520  13.074  -3.340  0.00  0.00    -0.278 N 
ATOM      3  H   UNL     1      34.341  13.720  -3.564  0.00  0.00    +0.152 HD
ATOM      4  O   UNL     1      33.049  13.951  -5.341  0.00  0.00    -0.226 OA
ENDROOT
BRANCH   1   5
ATOM      5  O   UNL     1      31.807  12.248  -4.559  0.00  0.00    -0.450 OA
BRANCH   5   6
ATOM      6  C   UNL     1      30.445  12.179  -4.912  0.00  0.00    +0.240 C 
BRANCH   6   7
ATOM      7  C   UNL     1      29.478  11.546  -3.894  0.00  0.00    +0.100 C 
BRANCH   7   9
ATOM      8  N   UNL     1      27.822  13.069  -4.936  0.00  0.00    -0.134 NA
ATOM      9  C   UNL     1      28.184  12.253  -3.903  0.00  0.00    +0.086 A 
ATOM     10  C   UNL     1      27.173  12.236  -2.971  0.00  0.00    +0.140 A 
ATOM     11  N   UNL     1      26.197  13.057  -3.488  0.00  0.00    -0.218 N 
ATOM     12  N   UNL     1      26.617  13.559  -4.672  0.00  0.00    -0.060 NA
BRANCH  11  13
ATOM     13  C   UNL     1      24.930  13.357  -2.948  0.00  0.00    +0.086 A 
ATOM     14  C   UNL     1      24.193  14.425  -3.436  0.00  0.00    +0.139 A 
ATOM     15  N   UNL     1      22.948  14.743  -2.995  0.00  0.00    -0.253 NA
ATOM     16  C   UNL     1      22.396  13.974  -2.038  0.00  0.00    +0.071 A 
ATOM     17  C   UNL     1      23.077  12.877  -1.472  0.00  0.00    +0.002 A 
ATOM     18  C   UNL     1      22.466  12.097  -0.474  0.00  0.00    +0.010 A 
ATOM     19  C   UNL     1      21.174  12.386  -0.049  0.00  0.00    +0.001 A 
ATOM     20  C   UNL     1      20.493  13.460  -0.609  0.00  0.00    +0.002 A 
ATOM     21  C   UNL     1      21.110  14.245  -1.589  0.00  0.00    +0.028 A 
ATOM     22  C   UNL     1      24.365  12.582  -1.936  0.00  0.00    +0.039 A 
ENDBRANCH  11  13
ENDBRANCH   7   9
ENDBRANCH   6   7
ENDBRANCH   5   6
ENDBRANCH   1   5
BRANCH   2  23
ATOM     23  C   UNL     1      33.700  12.561  -1.985  0.00  0.00    +0.152 C 
BRANCH  23  24
ATOM     24  C   UNL     1      33.525  13.583  -0.843  0.00  0.00    +0.193 C 
ATOM     25  O   UNL     1      34.404  14.691  -1.139  0.00  0.00    -0.219 OA
BRANCH  24  26
ATOM     26  C   UNL     1      32.134  14.231  -0.669  0.00  0.00    +0.212 C 
ATOM     27  O   UNL     1      31.207  13.692  -1.626  0.00  0.00    -0.218 OA
BRANCH  26  28
ATOM     28  C   UNL     1      31.533  14.043   0.776  0.00  0.00    +0.171 C 
ATOM     29  O   UNL     1      31.828  12.765   1.330  0.00  0.00    -0.343 OA
ATOM     30  C   UNL     1      31.225  12.245   2.477  0.00  0.00    +0.220 C 
ATOM     31  C   UNL     1      29.691  12.338   2.407  0.00  0.00    +0.076 C 
ATOM     32  C   UNL     1      29.329  13.799   2.091  0.00  0.00    +0.177 C 
ATOM     33  O   UNL     1      27.917  13.948   2.054  0.00  0.00    -0.221 OA
ATOM     34  C   UNL     1      29.981  14.234   0.742  0.00  0.00    +0.155 C 
BRANCH  34  35
ATOM     35  N   UNL     1      29.635  15.619   0.434  0.00  0.00    -0.202 NA
ATOM     36  C   UNL     1      28.792  16.114  -0.507  0.00  0.00    +0.242 C 
ATOM     37  C   UNL     1      28.390  17.564  -0.417  0.00  0.00    +0.096 C 
ATOM     38  O   UNL     1      28.379  15.378  -1.401  0.00  0.00    -0.273 OA
ENDBRANCH  34  35
BRANCH  30  39
ATOM     39  C   UNL     1      31.799  12.884   3.856  0.00  0.00    +0.391 C 
ATOM     40  O   UNL     1      32.792  13.708   3.471  0.00  0.00    -0.243 OA
ATOM     41  O   UNL     1      30.896  12.594   4.802  0.00  0.00    -0.243 OA
ENDBRANCH  30  39
ENDBRANCH  26  28
ENDBRANCH  24  26
ENDBRANCH  23  24
ENDBRANCH   2  23
TORSDOF 11
