REMARK VINA RESULT:    -7.626      1.775      2.424
REMARK INTER + INTRA:         -15.452
REMARK INTER:                 -13.048
REMARK INTRA:                  -2.404
REMARK UNBOUND:                -1.807
REMARK  Name = lig_assembled_75.pdb
REMARK  14 active torsions:
REMARK  status: ('A' for Active; 'I' for Inactive)
REMARK    1  A    between atoms: _2  and  _8
REMARK    2  A    between atoms: _5  and  _6
REMARK    3  A    between atoms: _5  and  _18
REMARK    4  A    between atoms: _10  and  _11
REMARK    5  A    between atoms: _12  and  _13
REMARK    6  A    between atoms: _13  and  _16
REMARK    7  A    between atoms: _18  and  _20
REMARK    8  A    between atoms: _19  and  _24
REMARK    9  A    between atoms: _20  and  _23
REMARK   10  A    between atoms: _28  and  _38
REMARK   11  A    between atoms: _30  and  _31
REMARK   12  A    between atoms: _32  and  _34
REMARK   13  A    between atoms: _34  and  _36
REMARK   14  A    between atoms: _36  and  _38
REMARK                            x       y       z     vdW  Elec       q    Type
REMARK                         _______ _______ _______ _____ _____    ______ ____
ROOT
ATOM      1  C   UNL     1      27.556  17.598  -1.690  0.00  0.00    +0.400 C 
ATOM      2  N   UNL     1      28.032  16.588  -0.888  0.00  0.00    -0.278 N 
ATOM      3  H   UNL     1      28.399  17.106  -0.029  0.00  0.00    +0.152 HD
ATOM      4  O   UNL     1      27.487  18.730  -1.217  0.00  0.00    -0.226 OA
ENDROOT
BRANCH   2   5
ATOM      5  C   UNL     1      28.242  15.157  -0.682  0.00  0.00    +0.152 C 
BRANCH   5   6
ATOM      6  C   UNL     1      29.302  14.771   0.370  0.00  0.00    +0.193 C 
ATOM      7  O   UNL     1      29.038  13.400   0.741  0.00  0.00    -0.219 OA
BRANCH   6   8
ATOM      8  C   UNL     1      30.782  14.772  -0.072  0.00  0.00    +0.212 C 
ATOM      9  O   UNL     1      31.271  16.118  -0.186  0.00  0.00    -0.218 OA
BRANCH   8  10
ATOM     10  C   UNL     1      31.726  13.973   0.905  0.00  0.00    +0.171 C 
ATOM     11  O   UNL     1      31.885  14.620   2.164  0.00  0.00    -0.343 OA
ATOM     12  C   UNL     1      32.844  14.267   3.116  0.00  0.00    +0.220 C 
ATOM     13  C   UNL     1      34.251  14.174   2.502  0.00  0.00    +0.076 C 
ATOM     14  C   UNL     1      34.165  13.232   1.289  0.00  0.00    +0.177 C 
ATOM     15  O   UNL     1      35.452  13.079   0.706  0.00  0.00    -0.221 OA
ATOM     16  C   UNL     1      33.135  13.781   0.254  0.00  0.00    +0.155 C 
BRANCH  16  17
ATOM     17  N   UNL     1      33.056  12.892  -0.902  0.00  0.00    -0.202 NA
ATOM     18  C   UNL     1      33.186  13.174  -2.224  0.00  0.00    +0.242 C 
ATOM     19  C   UNL     1      33.354  12.027  -3.187  0.00  0.00    +0.096 C 
ATOM     20  O   UNL     1      33.165  14.344  -2.600  0.00  0.00    -0.273 OA
ENDBRANCH  16  17
BRANCH  12  21
ATOM     21  C   UNL     1      32.465  12.924   3.948  0.00  0.00    +0.391 C 
ATOM     22  O   UNL     1      33.612  12.554   4.551  0.00  0.00    -0.243 OA
ATOM     23  O   UNL     1      31.128  12.865   3.967  0.00  0.00    -0.243 OA
ENDBRANCH  12  21
ENDBRANCH   8  10
ENDBRANCH   6   8
ENDBRANCH   5   6
ENDBRANCH   2   5
BRANCH   1  24
ATOM     24  O   UNL     1      27.251  17.257  -2.899  0.00  0.00    -0.450 OA
BRANCH  24  25
ATOM     25  C   UNL     1      26.112  17.122  -3.716  0.00  0.00    +0.240 C 
BRANCH  25  26
ATOM     26  C   UNL     1      25.813  15.727  -4.296  0.00  0.00    +0.100 C 
BRANCH  26  28
ATOM     27  N   UNL     1      23.600  15.105  -3.382  0.00  0.00    -0.134 NA
ATOM     28  C   UNL     1      24.957  14.960  -3.372  0.00  0.00    +0.086 A 
ATOM     29  C   UNL     1      25.305  14.042  -2.408  0.00  0.00    +0.139 A 
ATOM     30  N   UNL     1      24.113  13.647  -1.846  0.00  0.00    -0.220 N 
ATOM     31  N   UNL     1      23.094  14.306  -2.452  0.00  0.00    -0.061 NA
BRANCH  30  32
ATOM     32  C   UNL     1      23.888  12.734  -0.784  0.00  0.00    +0.068 A 
ATOM     33  C   UNL     1      24.929  12.461   0.121  0.00  0.00    +0.035 A 
ATOM     34  C   UNL     1      24.762  11.515   1.142  0.00  0.00    -0.023 A 
ATOM     35  C   UNL     1      23.517  10.891   1.286  0.00  0.00    +0.008 A 
ATOM     36  C   UNL     1      22.472  11.175   0.402  0.00  0.00    +0.003 A 
ATOM     37  C   UNL     1      22.656  12.087  -0.636  0.00  0.00    +0.028 A 
BRANCH  34  38
ATOM     38  C   UNL     1      25.840  11.167   2.080  0.00  0.00    +0.015 C 
ATOM     39  C   UNL     1      26.494  12.067   2.832  0.00  0.00    +0.092 C 
BRANCH  39  40
ATOM     40  C   UNL     1      27.599  11.626   3.706  0.00  0.00    +0.330 C 
ATOM     41  O   UNL     1      27.917  10.464   3.888  0.00  0.00    -0.246 OA
BRANCH  40  42
ATOM     42  O   UNL     1      28.235  12.667   4.279  0.00  0.00    -0.478 OA
ATOM     43  H   UNL     1      27.946  12.895   5.181  0.00  0.00    +0.295 HD
ENDBRANCH  40  42
ENDBRANCH  39  40
ENDBRANCH  34  38
ENDBRANCH  30  32
ENDBRANCH  26  28
ENDBRANCH  25  26
ENDBRANCH  24  25
ENDBRANCH   1  24
TORSDOF 14
