REMARK VINA RESULT:    -6.015      2.368      3.768
REMARK INTER + INTRA:         -13.173
REMARK INTER:                 -10.875
REMARK INTRA:                  -2.298
REMARK UNBOUND:                -2.235
REMARK  Name = lig_assembled_50.pdb
REMARK  15 active torsions:
REMARK  status: ('A' for Active; 'I' for Inactive)
REMARK    1  A    between atoms: _2  and  _8
REMARK    2  A    between atoms: _4  and  _9
REMARK    3  A    between atoms: _4  and  _10
REMARK    4  A    between atoms: _5  and  _6
REMARK    5  A    between atoms: _5  and  _12
REMARK    6  A    between atoms: _8  and  _9
REMARK    7  A    between atoms: _9  and  _11
REMARK    8  A    between atoms: _12  and  _14
REMARK    9  A    between atoms: _13  and  _18
REMARK   10  A    between atoms: _14  and  _17
REMARK   11  A    between atoms: _22  and  _32
REMARK   12  A    between atoms: _24  and  _25
REMARK   13  A    between atoms: _26  and  _28
REMARK   14  A    between atoms: _28  and  _30
REMARK   15  A    between atoms: _30  and  _32
REMARK                            x       y       z     vdW  Elec       q    Type
REMARK                         _______ _______ _______ _____ _____    ______ ____
ROOT
ATOM      1  C   UNL     1      27.644  13.171   2.451  0.00  0.00    +0.400 C 
ATOM      2  N   UNL     1      28.303  13.780   1.410  0.00  0.00    -0.278 N 
ATOM      3  H   UNL     1      28.538  14.748   1.798  0.00  0.00    +0.152 HD
ATOM      4  O   UNL     1      27.639  13.734   3.542  0.00  0.00    -0.226 OA
ENDROOT
BRANCH   2   5
ATOM      5  C   UNL     1      28.827  13.695   0.049  0.00  0.00    +0.152 C 
BRANCH   5   6
ATOM      6  C   UNL     1      29.440  14.989  -0.526  0.00  0.00    +0.193 C 
ATOM      7  O   UNL     1      28.596  16.077  -0.089  0.00  0.00    -0.219 OA
BRANCH   6   8
ATOM      8  C   UNL     1      30.855  15.383  -0.049  0.00  0.00    +0.212 C 
ATOM      9  O   UNL     1      30.796  16.551   0.787  0.00  0.00    -0.218 OA
BRANCH   8  10
ATOM     10  C   UNL     1      31.590  14.235   0.742  0.00  0.00    +0.171 C 
ATOM     11  O   UNL     1      32.009  14.644   2.040  0.00  0.00    -0.343 OA
ATOM     12  C   UNL     1      32.885  13.918   2.851  0.00  0.00    +0.220 C 
ATOM     13  C   UNL     1      34.163  13.518   2.094  0.00  0.00    +0.076 C 
ATOM     14  C   UNL     1      33.732  12.801   0.804  0.00  0.00    +0.177 C 
ATOM     15  O   UNL     1      34.880  12.374   0.084  0.00  0.00    -0.221 OA
ATOM     16  C   UNL     1      32.839  13.744  -0.062  0.00  0.00    +0.155 C 
BRANCH  16  17
ATOM     17  N   UNL     1      32.433  13.070  -1.292  0.00  0.00    -0.202 NA
ATOM     18  C   UNL     1      32.746  13.355  -2.582  0.00  0.00    +0.242 C 
ATOM     19  C   UNL     1      32.436  12.326  -3.637  0.00  0.00    +0.096 C 
ATOM     20  O   UNL     1      33.270  14.433  -2.856  0.00  0.00    -0.273 OA
ENDBRANCH  16  17
BRANCH  12  21
ATOM     21  C   UNL     1      32.190  12.637   3.569  0.00  0.00    +0.391 C 
ATOM     22  O   UNL     1      33.217  11.849   3.942  0.00  0.00    -0.243 OA
ATOM     23  O   UNL     1      30.915  12.981   3.786  0.00  0.00    -0.243 OA
ENDBRANCH  12  21
ENDBRANCH   8  10
ENDBRANCH   6   8
ENDBRANCH   5   6
ENDBRANCH   2   5
BRANCH   1  24
ATOM     24  O   UNL     1      27.055  12.056   2.165  0.00  0.00    -0.450 OA
BRANCH  24  25
ATOM     25  C   UNL     1      25.753  11.554   1.974  0.00  0.00    +0.240 C 
BRANCH  25  26
ATOM     26  C   UNL     1      25.451  10.849   0.638  0.00  0.00    +0.100 C 
BRANCH  26  28
ATOM     27  N   UNL     1      23.604  12.282  -0.184  0.00  0.00    -0.134 NA
ATOM     28  C   UNL     1      24.883  11.806  -0.332  0.00  0.00    +0.086 A 
ATOM     29  C   UNL     1      25.447  12.373  -1.456  0.00  0.00    +0.133 A 
ATOM     30  N   UNL     1      24.464  13.171  -1.948  0.00  0.00    -0.249 N 
ATOM     31  N   UNL     1      23.363  13.128  -1.174  0.00  0.00    -0.065 NA
BRANCH  30  32
ATOM     32  C   UNL     1      24.484  13.990  -3.137  0.00  0.00    +0.178 C 
BRANCH  32  33
ATOM     33  C   UNL     1      24.731  15.479  -2.866  0.00  0.00    +0.161 C 
BRANCH  33  34
ATOM     34  O   UNL     1      24.036  15.952  -1.708  0.00  0.00    -0.388 OA
ATOM     35  H   UNL     1      23.123  15.598  -1.727  0.00  0.00    +0.210 HD
ENDBRANCH  33  34
BRANCH  33  36
ATOM     36  C   UNL     1      26.217  15.846  -2.765  0.00  0.00    +0.189 C 
BRANCH  36  37
ATOM     37  O   UNL     1      26.417  16.967  -1.903  0.00  0.00    -0.392 OA
ATOM     38  H   UNL     1      26.744  17.712  -2.443  0.00  0.00    +0.210 HD
ENDBRANCH  36  37
ENDBRANCH  33  36
ENDBRANCH  32  33
ENDBRANCH  30  32
ENDBRANCH  26  28
ENDBRANCH  25  26
ENDBRANCH  24  25
ENDBRANCH   1  24
TORSDOF 15
