REMARK VINA RESULT:    -7.223      1.780      3.114
REMARK INTER + INTRA:         -13.366
REMARK INTER:                 -11.464
REMARK INTRA:                  -1.902
REMARK UNBOUND:                -1.499
REMARK  Name = lig_assembled_15.pdb
REMARK  11 active torsions:
REMARK  status: ('A' for Active; 'I' for Inactive)
REMARK    1  A    between atoms: _2  and  _8
REMARK    2  A    between atoms: _5  and  _6
REMARK    3  A    between atoms: _5  and  _13
REMARK    4  A    between atoms: _13  and  _15
REMARK    5  A    between atoms: _14  and  _19
REMARK    6  A    between atoms: _15  and  _18
REMARK    7  A    between atoms: _23  and  _33
REMARK    8  A    between atoms: _25  and  _26
REMARK    9  A    between atoms: _27  and  _29
REMARK   10  A    between atoms: _29  and  _31
REMARK   11  A    between atoms: _31  and  _33
REMARK                            x       y       z     vdW  Elec       q    Type
REMARK                         _______ _______ _______ _____ _____    ______ ____
ROOT
ATOM      1  C   UNL     1      27.896  17.372  -0.788  0.00  0.00    +0.400 C 
ATOM      2  N   UNL     1      28.563  16.472   0.009  0.00  0.00    -0.278 N 
ATOM      3  H   UNL     1      28.773  17.033   0.894  0.00  0.00    +0.152 HD
ATOM      4  O   UNL     1      27.553  18.442  -0.292  0.00  0.00    -0.226 OA
ENDROOT
BRANCH   1   5
ATOM      5  O   UNL     1      27.717  17.008  -2.015  0.00  0.00    -0.450 OA
BRANCH   5   6
ATOM      6  C   UNL     1      27.040  17.444  -3.171  0.00  0.00    +0.240 C 
BRANCH   6   7
ATOM      7  C   UNL     1      26.228  16.396  -3.957  0.00  0.00    +0.100 C 
BRANCH   7   9
ATOM      8  N   UNL     1      26.984  14.226  -3.041  0.00  0.00    -0.134 NA
ATOM      9  C   UNL     1      26.020  15.188  -3.136  0.00  0.00    +0.086 A 
ATOM     10  C   UNL     1      24.939  14.820  -2.369  0.00  0.00    +0.139 A 
ATOM     11  N   UNL     1      25.302  13.624  -1.792  0.00  0.00    -0.220 N 
ATOM     12  N   UNL     1      26.539  13.277  -2.228  0.00  0.00    -0.061 NA
BRANCH  11  13
ATOM     13  C   UNL     1      24.582  12.833  -0.860  0.00  0.00    +0.067 A 
ATOM     14  C   UNL     1      23.181  12.780  -0.891  0.00  0.00    +0.029 A 
ATOM     15  C   UNL     1      22.487  12.026   0.060  0.00  0.00    +0.017 A 
ATOM     16  C   UNL     1      23.188  11.325   1.040  0.00  0.00    +0.018 A 
ATOM     17 BR   UNL     1      22.242  10.332   2.340  0.00  0.00    -0.050 Br
ATOM     18  C   UNL     1      24.581  11.359   1.071  0.00  0.00    +0.017 A 
ATOM     19  C   UNL     1      25.279  12.110   0.122  0.00  0.00    +0.029 A 
ENDBRANCH  11  13
ENDBRANCH   7   9
ENDBRANCH   6   7
ENDBRANCH   5   6
ENDBRANCH   1   5
BRANCH   2  20
ATOM     20  C   UNL     1      29.088  15.121   0.190  0.00  0.00    +0.152 C 
BRANCH  20  21
ATOM     21  C   UNL     1      30.624  14.990   0.242  0.00  0.00    +0.193 C 
ATOM     22  O   UNL     1      31.059  15.674   1.438  0.00  0.00    -0.219 OA
BRANCH  21  23
ATOM     23  C   UNL     1      31.217  13.570   0.373  0.00  0.00    +0.212 C 
ATOM     24  O   UNL     1      32.147  13.314  -0.691  0.00  0.00    -0.218 OA
BRANCH  23  25
ATOM     25  C   UNL     1      31.945  13.322   1.749  0.00  0.00    +0.171 C 
ATOM     26  O   UNL     1      33.275  12.843   1.586  0.00  0.00    -0.343 OA
ATOM     27  C   UNL     1      34.055  12.315   2.618  0.00  0.00    +0.220 C 
ATOM     28  C   UNL     1      33.301  11.227   3.404  0.00  0.00    +0.076 C 
ATOM     29  C   UNL     1      31.957  11.827   3.849  0.00  0.00    +0.177 C 
ATOM     30  O   UNL     1      31.235  10.873   4.616  0.00  0.00    -0.221 OA
ATOM     31  C   UNL     1      31.137  12.292   2.606  0.00  0.00    +0.155 C 
BRANCH  31  32
ATOM     32  N   UNL     1      29.856  12.855   3.024  0.00  0.00    -0.202 NA
ATOM     33  C   UNL     1      28.594  12.439   2.750  0.00  0.00    +0.242 C 
ATOM     34  C   UNL     1      27.458  13.025   3.548  0.00  0.00    +0.096 C 
ATOM     35  O   UNL     1      28.408  11.602   1.869  0.00  0.00    -0.273 OA
ENDBRANCH  31  32
BRANCH  27  36
ATOM     36  C   UNL     1      34.672  13.447   3.607  0.00  0.00    +0.391 C 
ATOM     37  O   UNL     1      34.945  12.794   4.754  0.00  0.00    -0.243 OA
ATOM     38  O   UNL     1      34.952  14.502   2.833  0.00  0.00    -0.243 OA
ENDBRANCH  27  36
ENDBRANCH  23  25
ENDBRANCH  21  23
ENDBRANCH  20  21
ENDBRANCH   2  20
TORSDOF 11
