REMARK VINA RESULT:    -6.884      2.043      3.492
REMARK INTER + INTRA:         -13.548
REMARK INTER:                 -11.826
REMARK INTRA:                  -1.722
REMARK UNBOUND:                -1.431
REMARK  Name = lig_assembled_36.pdb
REMARK  13 active torsions:
REMARK  status: ('A' for Active; 'I' for Inactive)
REMARK    1  A    between atoms: _2  and  _9
REMARK    2  A    between atoms: _6  and  _7
REMARK    3  A    between atoms: _6  and  _16
REMARK    4  A    between atoms: _9  and  _10
REMARK    5  A    between atoms: _13  and  _14
REMARK    6  A    between atoms: _16  and  _18
REMARK    7  A    between atoms: _17  and  _22
REMARK    8  A    between atoms: _18  and  _21
REMARK    9  A    between atoms: _26  and  _36
REMARK   10  A    between atoms: _28  and  _29
REMARK   11  A    between atoms: _30  and  _32
REMARK   12  A    between atoms: _32  and  _34
REMARK   13  A    between atoms: _34  and  _36
REMARK                            x       y       z     vdW  Elec       q    Type
REMARK                         _______ _______ _______ _____ _____    ______ ____
ROOT
ATOM      1  C   UNL     1      28.446  16.828  -1.170  0.00  0.00    +0.400 C 
ATOM      2  N   UNL     1      28.220  15.560  -0.688  0.00  0.00    -0.278 N 
ATOM      3  H   UNL     1      28.854  15.506   0.171  0.00  0.00    +0.152 HD
ATOM      4  O   UNL     1      29.103  17.603  -0.479  0.00  0.00    -0.226 OA
ENDROOT
BRANCH   1   5
ATOM      5  O   UNL     1      27.960  17.075  -2.342  0.00  0.00    -0.450 OA
BRANCH   5   6
ATOM      6  C   UNL     1      26.723  17.040  -3.015  0.00  0.00    +0.240 C 
BRANCH   6   7
ATOM      7  C   UNL     1      26.483  15.883  -4.003  0.00  0.00    +0.100 C 
BRANCH   7   9
ATOM      8  N   UNL     1      24.551  14.668  -4.967  0.00  0.00    -0.134 NA
ATOM      9  C   UNL     1      25.062  15.492  -3.997  0.00  0.00    +0.086 A 
ATOM     10  C   UNL     1      24.063  15.811  -3.105  0.00  0.00    +0.134 A 
ATOM     11  N   UNL     1      22.997  15.076  -3.534  0.00  0.00    -0.247 N 
ATOM     12  N   UNL     1      23.277  14.435  -4.683  0.00  0.00    -0.065 NA
BRANCH  11  13
ATOM     13  C   UNL     1      21.705  14.924  -2.897  0.00  0.00    +0.180 C 
BRANCH  13  14
ATOM     14  C   UNL     1      21.762  13.919  -1.769  0.00  0.00    -0.026 A 
ATOM     15  C   UNL     1      20.659  13.719  -0.926  0.00  0.00    +0.007 A 
ATOM     16  C   UNL     1      20.719  12.784   0.113  0.00  0.00    +0.019 A 
ATOM     17  C   UNL     1      21.884  12.042   0.325  0.00  0.00    +0.052 A 
ATOM     18  C   UNL     1      22.996  12.253  -0.494  0.00  0.00    +0.019 A 
ATOM     19  C   UNL     1      22.937  13.188  -1.532  0.00  0.00    +0.007 A 
BRANCH  17  20
ATOM     20  C   UNL     1      21.937  11.067   1.378  0.00  0.00    +0.099 C 
ATOM     21  N   UNL     1      21.989  10.286   2.234  0.00  0.00    -0.191 NA
ENDBRANCH  17  20
ENDBRANCH  13  14
ENDBRANCH  11  13
ENDBRANCH   7   9
ENDBRANCH   6   7
ENDBRANCH   5   6
ENDBRANCH   1   5
BRANCH   2  22
ATOM     22  C   UNL     1      27.510  14.290  -0.811  0.00  0.00    +0.152 C 
BRANCH  22  23
ATOM     23  C   UNL     1      28.250  13.167  -1.565  0.00  0.00    +0.193 C 
ATOM     24  O   UNL     1      29.329  13.796  -2.291  0.00  0.00    -0.219 OA
BRANCH  23  25
ATOM     25  C   UNL     1      28.940  12.073  -0.721  0.00  0.00    +0.212 C 
ATOM     26  O   UNL     1      29.947  11.402  -1.496  0.00  0.00    -0.218 OA
BRANCH  25  27
ATOM     27  C   UNL     1      29.605  12.627   0.597  0.00  0.00    +0.171 C 
ATOM     28  O   UNL     1      30.973  12.975   0.415  0.00  0.00    -0.343 OA
ATOM     29  C   UNL     1      31.860  13.257   1.458  0.00  0.00    +0.220 C 
ATOM     30  C   UNL     1      31.835  12.162   2.539  0.00  0.00    +0.076 C 
ATOM     31  C   UNL     1      30.371  11.969   2.968  0.00  0.00    +0.177 C 
ATOM     32  O   UNL     1      30.296  10.993   3.998  0.00  0.00    -0.221 OA
ATOM     33  C   UNL     1      29.499  11.564   1.739  0.00  0.00    +0.155 C 
BRANCH  33  34
ATOM     34  N   UNL     1      28.109  11.373   2.144  0.00  0.00    -0.202 NA
ATOM     35  C   UNL     1      27.188  12.286   2.544  0.00  0.00    +0.242 C 
ATOM     36  C   UNL     1      25.745  11.861   2.621  0.00  0.00    +0.096 C 
ATOM     37  O   UNL     1      27.548  13.427   2.830  0.00  0.00    -0.273 OA
ENDBRANCH  33  34
BRANCH  29  38
ATOM     38  C   UNL     1      31.655  14.735   2.100  0.00  0.00    +0.391 C 
ATOM     39  O   UNL     1      32.532  14.795   3.120  0.00  0.00    -0.243 OA
ATOM     40  O   UNL     1      30.932  15.427   1.210  0.00  0.00    -0.243 OA
ENDBRANCH  29  38
ENDBRANCH  25  27
ENDBRANCH  23  25
ENDBRANCH  22  23
ENDBRANCH   2  22
TORSDOF 13
