REMARK VINA RESULT:    -6.483      3.546      9.490
REMARK INTER + INTRA:         -12.276
REMARK INTER:                 -10.255
REMARK INTRA:                  -2.020
REMARK UNBOUND:                -1.624
REMARK  Name = lig_assembled_3.pdb
REMARK  11 active torsions:
REMARK  status: ('A' for Active; 'I' for Inactive)
REMARK    1  A    between atoms: _2  and  _8
REMARK    2  A    between atoms: _5  and  _6
REMARK    3  A    between atoms: _5  and  _13
REMARK    4  A    between atoms: _13  and  _15
REMARK    5  A    between atoms: _14  and  _19
REMARK    6  A    between atoms: _15  and  _18
REMARK    7  A    between atoms: _23  and  _33
REMARK    8  A    between atoms: _25  and  _26
REMARK    9  A    between atoms: _27  and  _29
REMARK   10  A    between atoms: _29  and  _31
REMARK   11  A    between atoms: _31  and  _33
REMARK                            x       y       z     vdW  Elec       q    Type
REMARK                         _______ _______ _______ _____ _____    ______ ____
ROOT
ATOM      1  C   UNL     1      30.915  15.710   0.935  0.00  0.00    +0.152 C 
ENDROOT
BRANCH   1   3
ATOM      2  C   UNL     1      31.395  13.665   2.676  0.00  0.00    +0.400 C 
ATOM      3  N   UNL     1      30.803  14.685   1.970  0.00  0.00    -0.278 N 
ATOM      4  H   UNL     1      29.823  14.743   2.393  0.00  0.00    +0.152 HD
ATOM      5  O   UNL     1      30.805  13.222   3.659  0.00  0.00    -0.226 OA
BRANCH   2   6
ATOM      6  O   UNL     1      32.523  13.241   2.209  0.00  0.00    -0.450 OA
BRANCH   6   7
ATOM      7  C   UNL     1      33.888  13.589   2.235  0.00  0.00    +0.240 C 
BRANCH   7   8
ATOM      8  C   UNL     1      34.437  14.216   3.531  0.00  0.00    +0.100 C 
BRANCH   8  10
ATOM      9  N   UNL     1      34.634  12.044   4.699  0.00  0.00    -0.134 NA
ATOM     10  C   UNL     1      34.175  13.329   4.680  0.00  0.00    +0.086 A 
ATOM     11  C   UNL     1      33.495  13.582   5.849  0.00  0.00    +0.139 A 
ATOM     12  N   UNL     1      33.588  12.416   6.575  0.00  0.00    -0.220 N 
ATOM     13  N   UNL     1      34.269  11.494   5.850  0.00  0.00    -0.061 NA
BRANCH  12  14
ATOM     14  C   UNL     1      33.103  12.140   7.880  0.00  0.00    +0.067 A 
ATOM     15  C   UNL     1      33.987  11.917   8.945  0.00  0.00    +0.028 A 
ATOM     16  C   UNL     1      33.489  11.617  10.216  0.00  0.00    +0.002 A 
ATOM     17  C   UNL     1      32.115  11.541  10.431  0.00  0.00    +0.000 A 
ATOM     18  C   UNL     1      31.231  11.771   9.379  0.00  0.00    +0.002 A 
ATOM     19  C   UNL     1      31.719  12.072   8.105  0.00  0.00    +0.028 A 
ENDBRANCH  12  14
ENDBRANCH   8  10
ENDBRANCH   7   8
ENDBRANCH   6   7
ENDBRANCH   2   6
ENDBRANCH   1   3
BRANCH   1  20
ATOM     20  C   UNL     1      29.633  16.006   0.131  0.00  0.00    +0.193 C 
ATOM     21  O   UNL     1      29.970  17.038  -0.822  0.00  0.00    -0.219 OA
BRANCH  20  22
ATOM     22  C   UNL     1      29.048  14.864  -0.729  0.00  0.00    +0.212 C 
ATOM     23  O   UNL     1      30.090  13.967  -1.148  0.00  0.00    -0.218 OA
BRANCH  22  24
ATOM     24  C   UNL     1      27.935  14.031   0.013  0.00  0.00    +0.171 C 
ATOM     25  O   UNL     1      28.478  13.047   0.888  0.00  0.00    -0.343 OA
ATOM     26  C   UNL     1      27.736  12.021   1.477  0.00  0.00    +0.220 C 
ATOM     27  C   UNL     1      26.897  11.255   0.439  0.00  0.00    +0.076 C 
ATOM     28  C   UNL     1      26.067  12.289  -0.338  0.00  0.00    +0.177 C 
ATOM     29  O   UNL     1      25.240  11.629  -1.287  0.00  0.00    -0.221 OA
ATOM     30  C   UNL     1      27.008  13.324  -1.030  0.00  0.00    +0.155 C 
BRANCH  30  31
ATOM     31  N   UNL     1      26.223  14.305  -1.776  0.00  0.00    -0.202 NA
ATOM     32  C   UNL     1      26.184  14.552  -3.110  0.00  0.00    +0.242 C 
ATOM     33  C   UNL     1      25.072  15.415  -3.645  0.00  0.00    +0.096 C 
ATOM     34  O   UNL     1      27.047  14.071  -3.842  0.00  0.00    -0.273 OA
ENDBRANCH  30  31
BRANCH  26  35
ATOM     35  C   UNL     1      26.829  12.516   2.731  0.00  0.00    +0.391 C 
ATOM     36  O   UNL     1      25.896  11.556   2.884  0.00  0.00    -0.243 OA
ATOM     37  O   UNL     1      27.514  13.506   3.316  0.00  0.00    -0.243 OA
ENDBRANCH  26  35
ENDBRANCH  22  24
ENDBRANCH  20  22
ENDBRANCH   1  20
TORSDOF 11
