REMARK VINA RESULT:    -7.164      1.806      2.408
REMARK INTER + INTRA:         -13.597
REMARK INTER:                 -11.490
REMARK INTRA:                  -2.107
REMARK UNBOUND:                -1.407
REMARK  Name = lig_assembled_82.pdb
REMARK  14 active torsions:
REMARK  status: ('A' for Active; 'I' for Inactive)
REMARK    1  A    between atoms: _2  and  _8
REMARK    2  A    between atoms: _4  and  _15
REMARK    3  A    between atoms: _5  and  _6
REMARK    4  A    between atoms: _5  and  _17
REMARK    5  A    between atoms: _8  and  _9
REMARK    6  A    between atoms: _15  and  _16
REMARK    7  A    between atoms: _17  and  _19
REMARK    8  A    between atoms: _18  and  _23
REMARK    9  A    between atoms: _19  and  _22
REMARK   10  A    between atoms: _27  and  _37
REMARK   11  A    between atoms: _29  and  _30
REMARK   12  A    between atoms: _31  and  _33
REMARK   13  A    between atoms: _33  and  _35
REMARK   14  A    between atoms: _35  and  _37
REMARK                            x       y       z     vdW  Elec       q    Type
REMARK                         _______ _______ _______ _____ _____    ______ ____
ROOT
ATOM      1  C   UNL     1      27.214  12.904  -2.673  0.00  0.00    +0.400 C 
ATOM      2  N   UNL     1      27.332  13.878  -1.710  0.00  0.00    -0.278 N 
ATOM      3  H   UNL     1      26.625  13.578  -0.967  0.00  0.00    +0.152 HD
ATOM      4  O   UNL     1      26.541  11.909  -2.411  0.00  0.00    -0.226 OA
ENDROOT
BRANCH   2   5
ATOM      5  C   UNL     1      27.984  15.102  -1.252  0.00  0.00    +0.152 C 
BRANCH   5   6
ATOM      6  C   UNL     1      28.830  14.981   0.032  0.00  0.00    +0.193 C 
ATOM      7  O   UNL     1      28.668  13.628   0.511  0.00  0.00    -0.219 OA
BRANCH   6   8
ATOM      8  C   UNL     1      30.358  15.164  -0.098  0.00  0.00    +0.212 C 
ATOM      9  O   UNL     1      30.730  16.517   0.208  0.00  0.00    -0.218 OA
BRANCH   8  10
ATOM     10  C   UNL     1      31.184  14.192   0.829  0.00  0.00    +0.171 C 
ATOM     11  O   UNL     1      31.316  14.685   2.159  0.00  0.00    -0.343 OA
ATOM     12  C   UNL     1      32.190  14.157   3.112  0.00  0.00    +0.220 C 
ATOM     13  C   UNL     1      33.621  14.021   2.561  0.00  0.00    +0.076 C 
ATOM     14  C   UNL     1      33.537  13.225   1.248  0.00  0.00    +0.177 C 
ATOM     15  O   UNL     1      34.840  13.036   0.715  0.00  0.00    -0.221 OA
ATOM     16  C   UNL     1      32.610  13.962   0.231  0.00  0.00    +0.155 C 
BRANCH  16  17
ATOM     17  N   UNL     1      32.533  13.212  -1.021  0.00  0.00    -0.202 NA
ATOM     18  C   UNL     1      33.017  13.524  -2.250  0.00  0.00    +0.242 C 
ATOM     19  C   UNL     1      33.057  12.443  -3.298  0.00  0.00    +0.096 C 
ATOM     20  O   UNL     1      33.407  14.668  -2.477  0.00  0.00    -0.273 OA
ENDBRANCH  16  17
BRANCH  12  21
ATOM     21  C   UNL     1      31.668  12.765   3.768  0.00  0.00    +0.391 C 
ATOM     22  O   UNL     1      32.781  12.157   4.222  0.00  0.00    -0.243 OA
ATOM     23  O   UNL     1      30.340  12.885   3.880  0.00  0.00    -0.243 OA
ENDBRANCH  12  21
ENDBRANCH   8  10
ENDBRANCH   6   8
ENDBRANCH   5   6
ENDBRANCH   2   5
BRANCH   1  24
ATOM     24  O   UNL     1      27.810  13.148  -3.793  0.00  0.00    -0.450 OA
BRANCH  24  25
ATOM     25  C   UNL     1      27.516  13.203  -5.170  0.00  0.00    +0.240 C 
BRANCH  25  26
ATOM     26  C   UNL     1      27.026  14.548  -5.739  0.00  0.00    +0.100 C 
BRANCH  26  28
ATOM     27  N   UNL     1      26.320  16.208  -4.047  0.00  0.00    -0.134 NA
ATOM     28  C   UNL     1      26.013  15.148  -4.867  0.00  0.00    +0.086 A 
ATOM     29  C   UNL     1      24.682  14.821  -4.680  0.00  0.00    +0.134 A 
ATOM     30  N   UNL     1      24.282  15.626  -3.650  0.00  0.00    -0.247 N 
ATOM     31  N   UNL     1      25.243  16.516  -3.338  0.00  0.00    -0.065 NA
BRANCH  30  32
ATOM     32  C   UNL     1      23.051  15.551  -2.859  0.00  0.00    +0.176 C 
BRANCH  32  33
ATOM     33  C   UNL     1      22.878  14.214  -2.182  0.00  0.00    -0.049 C 
ATOM     34  C   UNL     1      21.557  13.527  -2.321  0.00  0.00    +0.023 C 
ATOM     35  C   UNL     1      21.538  11.936  -2.439  0.00  0.00    -0.025 C 
ATOM     36  C   UNL     1      22.532  10.959  -3.078  0.00  0.00    +0.012 C 
ATOM     37  C   UNL     1      21.827  12.037  -0.869  0.00  0.00    -0.000 C 
ATOM     38  C   UNL     1      23.293  12.427  -0.501  0.00  0.00    +0.031 C 
ATOM     39  C   UNL     1      20.164  11.629  -3.087  0.00  0.00    +0.012 C 
ATOM     40  C   UNL     1      20.932  13.304  -0.886  0.00  0.00    +0.012 C 
ATOM     41  C   UNL     1      23.728  13.640  -1.307  0.00  0.00    -0.025 C 
ENDBRANCH  32  33
ENDBRANCH  30  32
ENDBRANCH  26  28
ENDBRANCH  25  26
ENDBRANCH  24  25
ENDBRANCH   1  24
TORSDOF 12
