REMARK VINA RESULT:    -6.719      1.236      2.322
REMARK INTER + INTRA:         -15.097
REMARK INTER:                 -12.764
REMARK INTRA:                  -2.333
REMARK UNBOUND:                -2.880
REMARK  Name = lig_assembled_21.pdb
REMARK  15 active torsions:
REMARK  status: ('A' for Active; 'I' for Inactive)
REMARK    1  A    between atoms: _2  and  _8
REMARK    2  A    between atoms: _5  and  _6
REMARK    3  A    between atoms: _5  and  _18
REMARK    4  A    between atoms: _8  and  _9
REMARK    5  A    between atoms: _10  and  _17
REMARK    6  A    between atoms: _11  and  _12
REMARK    7  A    between atoms: _11  and  _17
REMARK    8  A    between atoms: _18  and  _20
REMARK    9  A    between atoms: _19  and  _24
REMARK   10  A    between atoms: _20  and  _23
REMARK   11  A    between atoms: _28  and  _38
REMARK   12  A    between atoms: _30  and  _31
REMARK   13  A    between atoms: _32  and  _34
REMARK   14  A    between atoms: _34  and  _36
REMARK   15  A    between atoms: _36  and  _38
REMARK                            x       y       z     vdW  Elec       q    Type
REMARK                         _______ _______ _______ _____ _____    ______ ____
ROOT
ATOM      1  C   UNL     1      27.854  17.253  -1.218  0.00  0.00    +0.400 C 
ATOM      2  N   UNL     1      28.422  16.405  -0.297  0.00  0.00    -0.278 N 
ATOM      3  H   UNL     1      29.106  17.036   0.230  0.00  0.00    +0.152 HD
ATOM      4  O   UNL     1      28.084  18.455  -1.119  0.00  0.00    -0.226 OA
ENDROOT
BRANCH   2   5
ATOM      5  C   UNL     1      28.499  15.066   0.281  0.00  0.00    +0.152 C 
BRANCH   5   6
ATOM      6  C   UNL     1      29.811  14.294   0.034  0.00  0.00    +0.193 C 
ATOM      7  O   UNL     1      29.896  14.065  -1.390  0.00  0.00    -0.219 OA
BRANCH   6   8
ATOM      8  C   UNL     1      31.136  15.002   0.390  0.00  0.00    +0.212 C 
ATOM      9  O   UNL     1      30.877  16.217   1.113  0.00  0.00    -0.218 OA
BRANCH   8  10
ATOM     10  C   UNL     1      32.113  14.107   1.243  0.00  0.00    +0.171 C 
ATOM     11  O   UNL     1      32.388  14.663   2.525  0.00  0.00    -0.343 OA
ATOM     12  C   UNL     1      33.396  14.212   3.380  0.00  0.00    +0.220 C 
ATOM     13  C   UNL     1      34.751  14.109   2.659  0.00  0.00    +0.076 C 
ATOM     14  C   UNL     1      34.541  13.253   1.399  0.00  0.00    +0.177 C 
ATOM     15  O   UNL     1      35.775  13.092   0.714  0.00  0.00    -0.221 OA
ATOM     16  C   UNL     1      33.463  13.906   0.479  0.00  0.00    +0.155 C 
BRANCH  16  17
ATOM     17  N   UNL     1      33.265  13.100  -0.722  0.00  0.00    -0.202 NA
ATOM     18  C   UNL     1      33.331  13.459  -2.029  0.00  0.00    +0.242 C 
ATOM     19  C   UNL     1      33.377  12.370  -3.070  0.00  0.00    +0.096 C 
ATOM     20  O   UNL     1      33.354  14.651  -2.332  0.00  0.00    -0.273 OA
ENDBRANCH  16  17
BRANCH  12  21
ATOM     21  C   UNL     1      33.023  12.831   4.150  0.00  0.00    +0.391 C 
ATOM     22  O   UNL     1      34.171  12.439   4.737  0.00  0.00    -0.243 OA
ATOM     23  O   UNL     1      31.686  12.767   4.167  0.00  0.00    -0.243 OA
ENDBRANCH  12  21
ENDBRANCH   8  10
ENDBRANCH   6   8
ENDBRANCH   5   6
ENDBRANCH   2   5
BRANCH   1  24
ATOM     24  O   UNL     1      27.142  16.685  -2.136  0.00  0.00    -0.450 OA
BRANCH  24  25
ATOM     25  C   UNL     1      26.651  16.957  -3.428  0.00  0.00    +0.240 C 
BRANCH  25  26
ATOM     26  C   UNL     1      25.754  15.891  -4.087  0.00  0.00    +0.100 C 
BRANCH  26  28
ATOM     27  N   UNL     1      24.175  15.059  -2.377  0.00  0.00    -0.134 NA
ATOM     28  C   UNL     1      25.332  14.892  -3.087  0.00  0.00    +0.086 A 
ATOM     29  C   UNL     1      25.917  13.701  -2.721  0.00  0.00    +0.134 A 
ATOM     30  N   UNL     1      25.020  13.145  -1.849  0.00  0.00    -0.247 N 
ATOM     31  N   UNL     1      23.996  13.986  -1.621  0.00  0.00    -0.065 NA
BRANCH  30  32
ATOM     32  C   UNL     1      25.084  11.795  -1.298  0.00  0.00    +0.184 C 
BRANCH  32  33
ATOM     33  C   UNL     1      25.439  11.702   0.167  0.00  0.00    +0.016 A 
ATOM     34  C   UNL     1      24.470  11.436   1.151  0.00  0.00    +0.137 A 
ATOM     35  C   UNL     1      24.818  11.349   2.499  0.00  0.00    +0.047 A 
ATOM     36  C   UNL     1      26.150  11.512   2.880  0.00  0.00    +0.004 A 
ATOM     37  C   UNL     1      27.123  11.790   1.922  0.00  0.00    +0.001 A 
ATOM     38  C   UNL     1      26.771  11.881   0.575  0.00  0.00    +0.009 A 
BRANCH  34  39
ATOM     39  O   UNL     1      23.125  11.348   0.716  0.00  0.00    -0.426 OA
BRANCH  39  40
ATOM     40  C   UNL     1      22.096  10.892   1.542  0.00  0.00    +0.309 C 
ATOM     41  O   UNL     1      21.860   9.734   1.862  0.00  0.00    -0.251 OA
ATOM     42  C   UNL     1      21.335  12.073   2.068  0.00  0.00    +0.136 C 
ENDBRANCH  39  40
ENDBRANCH  34  39
ENDBRANCH  32  33
ENDBRANCH  30  32
ENDBRANCH  26  28
ENDBRANCH  25  26
ENDBRANCH  24  25
ENDBRANCH   1  24
TORSDOF 14
