REMARK VINA RESULT:    -6.245      2.799      4.643
REMARK INTER + INTRA:         -12.771
REMARK INTER:                 -10.627
REMARK INTRA:                  -2.144
REMARK UNBOUND:                -2.144
REMARK  Name = lig_assembled_63.pdb
REMARK  12 active torsions:
REMARK  status: ('A' for Active; 'I' for Inactive)
REMARK    1  A    between atoms: _2  and  _10
REMARK    2  A    between atoms: _6  and  _14
REMARK    3  A    between atoms: _7  and  _8
REMARK    4  A    between atoms: _7  and  _15
REMARK    5  A    between atoms: _15  and  _17
REMARK    6  A    between atoms: _16  and  _21
REMARK    7  A    between atoms: _17  and  _20
REMARK    8  A    between atoms: _25  and  _35
REMARK    9  A    between atoms: _27  and  _28
REMARK   10  A    between atoms: _29  and  _31
REMARK   11  A    between atoms: _31  and  _33
REMARK   12  A    between atoms: _33  and  _35
REMARK                            x       y       z     vdW  Elec       q    Type
REMARK                         _______ _______ _______ _____ _____    ______ ____
ROOT
ATOM      1  C   UNL     1      29.118  17.272  -0.501  0.00  0.00    +0.400 C 
ATOM      2  N   UNL     1      29.218  16.001   0.013  0.00  0.00    -0.278 N 
ATOM      3  H   UNL     1      29.924  16.110   0.807  0.00  0.00    +0.152 HD
ATOM      4  O   UNL     1      29.652  18.190   0.117  0.00  0.00    -0.226 OA
ENDROOT
BRANCH   2   5
ATOM      5  C   UNL     1      28.791  14.605  -0.029  0.00  0.00    +0.152 C 
BRANCH   5   6
ATOM      6  C   UNL     1      29.896  13.564  -0.305  0.00  0.00    +0.193 C 
ATOM      7  O   UNL     1      30.966  13.839   0.626  0.00  0.00    -0.219 OA
BRANCH   6   8
ATOM      8  C   UNL     1      29.552  12.077  -0.069  0.00  0.00    +0.212 C 
ATOM      9  O   UNL     1      30.443  11.504   0.901  0.00  0.00    -0.218 OA
BRANCH   8  10
ATOM     10  C   UNL     1      28.069  11.847   0.411  0.00  0.00    +0.171 C 
ATOM     11  O   UNL     1      27.996  11.150   1.651  0.00  0.00    -0.343 OA
ATOM     12  C   UNL     1      26.824  10.605   2.181  0.00  0.00    +0.220 C 
ATOM     13  C   UNL     1      26.086   9.730   1.153  0.00  0.00    +0.076 C 
ATOM     14  C   UNL     1      25.890  10.574  -0.117  0.00  0.00    +0.177 C 
ATOM     15  O   UNL     1      25.175   9.824  -1.089  0.00  0.00    -0.221 OA
ATOM     16  C   UNL     1      27.272  11.044  -0.669  0.00  0.00    +0.155 C 
BRANCH  16  17
ATOM     17  N   UNL     1      27.091  11.840  -1.880  0.00  0.00    -0.202 NA
ATOM     18  C   UNL     1      27.562  11.630  -3.135  0.00  0.00    +0.242 C 
ATOM     19  C   UNL     1      26.983  12.445  -4.262  0.00  0.00    +0.096 C 
ATOM     20  O   UNL     1      28.438  10.788  -3.322  0.00  0.00    -0.273 OA
ENDBRANCH  16  17
BRANCH  12  21
ATOM     21  C   UNL     1      25.836  11.713   2.841  0.00  0.00    +0.391 C 
ATOM     22  O   UNL     1      26.618  12.788   3.061  0.00  0.00    -0.243 OA
ATOM     23  O   UNL     1      24.591  11.264   2.642  0.00  0.00    -0.243 OA
ENDBRANCH  12  21
ENDBRANCH   8  10
ENDBRANCH   6   8
ENDBRANCH   5   6
ENDBRANCH   2   5
BRANCH   1  24
ATOM     24  O   UNL     1      28.485  17.374  -1.623  0.00  0.00    -0.450 OA
BRANCH  24  25
ATOM     25  C   UNL     1      27.164  17.504  -2.097  0.00  0.00    +0.240 C 
BRANCH  25  26
ATOM     26  C   UNL     1      26.853  16.941  -3.497  0.00  0.00    +0.100 C 
BRANCH  26  28
ATOM     27  N   UNL     1      25.163  15.496  -4.575  0.00  0.00    -0.134 NA
ATOM     28  C   UNL     1      25.708  16.014  -3.436  0.00  0.00    +0.087 A 
ATOM     29  C   UNL     1      25.009  15.539  -2.352  0.00  0.00    +0.141 A 
ATOM     30  N   UNL     1      24.009  14.752  -2.888  0.00  0.00    -0.201 N 
ATOM     31  N   UNL     1      24.139  14.727  -4.231  0.00  0.00    -0.059 NA
BRANCH  30  32
ATOM     32  C   UNL     1      22.958  14.110  -2.168  0.00  0.00    +0.173 A 
ATOM     33  C   UNL     1      21.634  14.555  -2.222  0.00  0.00    +0.096 A 
ATOM     34  C   UNL     1      20.698  13.910  -1.397  0.00  0.00    +0.024 A 
ATOM     35  C   UNL     1      21.082  12.851  -0.581  0.00  0.00    +0.021 A 
ATOM     36  C   UNL     1      22.402  12.451  -0.618  0.00  0.00    +0.113 A 
ATOM     37  N   UNL     1      23.339  13.052  -1.382  0.00  0.00    -0.235 NA
BRANCH  33  38
ATOM     38  C   UNL     1      21.142  15.605  -3.063  0.00  0.00    +0.103 C 
ATOM     39  N   UNL     1      20.660  16.464  -3.680  0.00  0.00    -0.191 NA
ENDBRANCH  33  38
ENDBRANCH  30  32
ENDBRANCH  26  28
ENDBRANCH  25  26
ENDBRANCH  24  25
ENDBRANCH   1  24
TORSDOF 12
