REMARK VINA RESULT:    -6.175      3.364      9.075
REMARK INTER + INTRA:         -13.599
REMARK INTER:                 -11.917
REMARK INTRA:                  -1.682
REMARK UNBOUND:                -2.911
REMARK  Name = lig_assembled_23.pdb
REMARK  13 active torsions:
REMARK  status: ('A' for Active; 'I' for Inactive)
REMARK    1  A    between atoms: _2  and  _9
REMARK    2  A    between atoms: _3  and  _44
REMARK    3  A    between atoms: _6  and  _7
REMARK    4  A    between atoms: _6  and  _16
REMARK    5  A    between atoms: _11  and  _44
REMARK    6  A    between atoms: _16  and  _18
REMARK    7  A    between atoms: _17  and  _22
REMARK    8  A    between atoms: _18  and  _21
REMARK    9  A    between atoms: _26  and  _36
REMARK   10  A    between atoms: _28  and  _29
REMARK   11  A    between atoms: _30  and  _32
REMARK   12  A    between atoms: _32  and  _34
REMARK   13  A    between atoms: _34  and  _36
REMARK                            x       y       z     vdW  Elec       q    Type
REMARK                         _______ _______ _______ _____ _____    ______ ____
ROOT
ATOM      1  C   UNL     1      28.049  17.341  -0.720  0.00  0.00    +0.400 C 
ATOM      2  N   UNL     1      27.197  16.728  -1.607  0.00  0.00    -0.278 N 
ATOM      3  H   UNL     1      26.232  17.063  -1.295  0.00  0.00    +0.152 HD
ATOM      4  O   UNL     1      27.587  18.196   0.031  0.00  0.00    -0.226 OA
ENDROOT
BRANCH   2   5
ATOM      5  C   UNL     1      27.025  15.857  -2.767  0.00  0.00    +0.152 C 
BRANCH   5   6
ATOM      6  C   UNL     1      25.636  15.885  -3.438  0.00  0.00    +0.193 C 
ATOM      7  O   UNL     1      25.861  15.811  -4.863  0.00  0.00    -0.219 OA
BRANCH   6   8
ATOM      8  C   UNL     1      24.673  14.715  -3.139  0.00  0.00    +0.212 C 
ATOM      9  O   UNL     1      24.601  13.825  -4.264  0.00  0.00    -0.218 OA
BRANCH   8  10
ATOM     10  C   UNL     1      25.080  13.882  -1.863  0.00  0.00    +0.171 C 
ATOM     11  O   UNL     1      26.348  13.249  -2.004  0.00  0.00    -0.343 OA
ATOM     12  C   UNL     1      26.838  12.267  -1.140  0.00  0.00    +0.220 C 
ATOM     13  C   UNL     1      25.817  11.137  -0.924  0.00  0.00    +0.076 C 
ATOM     14  C   UNL     1      24.495  11.786  -0.481  0.00  0.00    +0.177 C 
ATOM     15  O   UNL     1      23.525  10.780  -0.228  0.00  0.00    -0.221 OA
ATOM     16  C   UNL     1      23.999  12.790  -1.568  0.00  0.00    +0.155 C 
BRANCH  16  17
ATOM     17  N   UNL     1      22.740  13.404  -1.155  0.00  0.00    -0.202 NA
ATOM     18  C   UNL     1      21.504  13.303  -1.705  0.00  0.00    +0.242 C 
ATOM     19  C   UNL     1      20.324  13.800  -0.910  0.00  0.00    +0.096 C 
ATOM     20  O   UNL     1      21.375  12.812  -2.825  0.00  0.00    -0.273 OA
ENDBRANCH  16  17
BRANCH  12  21
ATOM     21  C   UNL     1      27.382  12.859   0.272  0.00  0.00    +0.391 C 
ATOM     22  O   UNL     1      27.441  11.794   1.095  0.00  0.00    -0.243 OA
ATOM     23  O   UNL     1      27.844  14.086   0.004  0.00  0.00    -0.243 OA
ENDBRANCH  12  21
ENDBRANCH   8  10
ENDBRANCH   6   8
ENDBRANCH   5   6
ENDBRANCH   2   5
BRANCH   1  24
ATOM     24  O   UNL     1      29.274  16.927  -0.742  0.00  0.00    -0.450 OA
BRANCH  24  25
ATOM     25  C   UNL     1      30.432  16.973   0.059  0.00  0.00    +0.240 C 
BRANCH  25  26
ATOM     26  C   UNL     1      31.516  15.909  -0.197  0.00  0.00    +0.100 C 
BRANCH  26  28
ATOM     27  N   UNL     1      31.138  13.488   0.136  0.00  0.00    -0.134 NA
ATOM     28  C   UNL     1      31.294  14.735   0.667  0.00  0.00    +0.086 A 
ATOM     29  C   UNL     1      31.205  14.654   2.038  0.00  0.00    +0.139 A 
ATOM     30  N   UNL     1      31.004  13.318   2.303  0.00  0.00    -0.220 N 
ATOM     31  N   UNL     1      30.959  12.634   1.134  0.00  0.00    -0.061 NA
BRANCH  30  32
ATOM     32  C   UNL     1      30.845  12.671   3.555  0.00  0.00    +0.069 A 
ATOM     33  C   UNL     1      31.910  12.662   4.466  0.00  0.00    +0.056 A 
ATOM     34  C   UNL     1      31.767  11.993   5.688  0.00  0.00    +0.107 A 
ATOM     35  C   UNL     1      30.571  11.358   6.024  0.00  0.00    +0.028 A 
ATOM     36  C   UNL     1      29.508  11.381   5.122  0.00  0.00    +0.004 A 
ATOM     37  C   UNL     1      29.642  12.030   3.890  0.00  0.00    +0.028 A 
BRANCH  34  38
ATOM     38  S   UNL     1      33.140  11.942   6.800  0.00  0.00    +0.056 S 
ATOM     39  O   UNL     1      32.659  11.598   8.117  0.00  0.00    -0.153 OA
ATOM     40  O   UNL     1      34.241  11.255   6.167  0.00  0.00    -0.153 OA
BRANCH  38  41
ATOM     41  N   UNL     1      33.600  13.555   6.863  0.00  0.00    -0.204 NA
ATOM     42  H   UNL     1      32.780  14.147   7.003  0.00  0.00    +0.144 HD
ATOM     43  H   UNL     1      34.150  13.795   6.037  0.00  0.00    +0.144 HD
ENDBRANCH  38  41
ENDBRANCH  34  38
ENDBRANCH  30  32
ENDBRANCH  26  28
ENDBRANCH  25  26
ENDBRANCH  24  25
ENDBRANCH   1  24
TORSDOF 13
