REMARK VINA RESULT:    -6.655      1.771      2.700
REMARK INTER + INTRA:         -13.276
REMARK INTER:                 -12.129
REMARK INTRA:                  -1.147
REMARK UNBOUND:                -1.952
REMARK  Name = lig_assembled_44.pdb
REMARK  12 active torsions:
REMARK  status: ('A' for Active; 'I' for Inactive)
REMARK    1  A    between atoms: _2  and  _8
REMARK    2  A    between atoms: _5  and  _6
REMARK    3  A    between atoms: _5  and  _14
REMARK    4  A    between atoms: _8  and  _9
REMARK    5  A    between atoms: _14  and  _16
REMARK    6  A    between atoms: _15  and  _20
REMARK    7  A    between atoms: _16  and  _19
REMARK    8  A    between atoms: _24  and  _34
REMARK    9  A    between atoms: _26  and  _27
REMARK   10  A    between atoms: _28  and  _30
REMARK   11  A    between atoms: _30  and  _32
REMARK   12  A    between atoms: _32  and  _34
REMARK                            x       y       z     vdW  Elec       q    Type
REMARK                         _______ _______ _______ _____ _____    ______ ____
ROOT
ATOM      1  C   UNL     1      28.261  17.627  -0.593  0.00  0.00    +0.400 C 
ATOM      2  N   UNL     1      29.448  17.392   0.061  0.00  0.00    -0.278 N 
ATOM      3  H   UNL     1      29.473  18.154   0.810  0.00  0.00    +0.152 HD
ATOM      4  O   UNL     1      27.484  18.445  -0.106  0.00  0.00    -0.226 OA
ENDROOT
BRANCH   2   5
ATOM      5  C   UNL     1      30.654  16.579   0.196  0.00  0.00    +0.152 C 
BRANCH   5   6
ATOM      6  C   UNL     1      30.495  15.250   0.963  0.00  0.00    +0.193 C 
ATOM      7  O   UNL     1      29.209  14.707   0.591  0.00  0.00    -0.219 OA
BRANCH   6   8
ATOM      8  C   UNL     1      31.497  14.118   0.646  0.00  0.00    +0.212 C 
ATOM      9  O   UNL     1      32.523  14.589  -0.242  0.00  0.00    -0.218 OA
BRANCH   8  10
ATOM     10  C   UNL     1      32.181  13.513   1.931  0.00  0.00    +0.171 C 
ATOM     11  O   UNL     1      33.603  13.532   1.855  0.00  0.00    -0.343 OA
ATOM     12  C   UNL     1      34.449  12.848   2.731  0.00  0.00    +0.220 C 
ATOM     13  C   UNL     1      34.047  11.369   2.873  0.00  0.00    +0.076 C 
ATOM     14  C   UNL     1      32.557  11.329   3.248  0.00  0.00    +0.177 C 
ATOM     15  O   UNL     1      32.143   9.982   3.432  0.00  0.00    -0.221 OA
ATOM     16  C   UNL     1      31.706  12.039   2.149  0.00  0.00    +0.155 C 
BRANCH  16  17
ATOM     17  N   UNL     1      30.289  11.996   2.499  0.00  0.00    -0.202 NA
ATOM     18  C   UNL     1      29.243  11.463   1.818  0.00  0.00    +0.242 C 
ATOM     19  C   UNL     1      27.931  11.294   2.539  0.00  0.00    +0.096 C 
ATOM     20  O   UNL     1      29.388  11.132   0.643  0.00  0.00    -0.273 OA
ENDBRANCH  16  17
BRANCH  12  21
ATOM     21  C   UNL     1      34.599  13.568   4.179  0.00  0.00    +0.391 C 
ATOM     22  O   UNL     1      34.278  14.858   3.961  0.00  0.00    -0.243 OA
ATOM     23  O   UNL     1      34.685  12.578   5.077  0.00  0.00    -0.243 OA
ENDBRANCH  12  21
ENDBRANCH   8  10
ENDBRANCH   6   8
ENDBRANCH   5   6
ENDBRANCH   2   5
BRANCH   1  24
ATOM     24  O   UNL     1      28.089  16.973  -1.694  0.00  0.00    -0.450 OA
BRANCH  24  25
ATOM     25  C   UNL     1      27.113  16.173  -2.321  0.00  0.00    +0.240 C 
BRANCH  25  26
ATOM     26  C   UNL     1      26.333  16.794  -3.495  0.00  0.00    +0.100 C 
BRANCH  26  28
ATOM     27  N   UNL     1      25.246  15.093  -4.933  0.00  0.00    -0.134 NA
ATOM     28  C   UNL     1      25.185  15.942  -3.859  0.00  0.00    +0.086 A 
ATOM     29  C   UNL     1      23.957  15.816  -3.255  0.00  0.00    +0.134 A 
ATOM     30  N   UNL     1      23.345  14.821  -3.959  0.00  0.00    -0.247 N 
ATOM     31  N   UNL     1      24.106  14.418  -4.992  0.00  0.00    -0.065 NA
BRANCH  30  32
ATOM     32  C   UNL     1      22.053  14.209  -3.712  0.00  0.00    +0.180 C 
BRANCH  32  33
ATOM     33  C   UNL     1      22.023  13.503  -2.376  0.00  0.00    -0.026 A 
ATOM     34  C   UNL     1      23.064  12.641  -1.999  0.00  0.00    +0.006 A 
ATOM     35  C   UNL     1      23.027  11.979  -0.770  0.00  0.00    +0.015 A 
ATOM     36  C   UNL     1      21.947  12.175   0.088  0.00  0.00    +0.018 A 
ATOM     37 BR   UNL     1      21.906  11.291   1.759  0.00  0.00    -0.050 Br
ATOM     38  C   UNL     1      20.899  13.018  -0.274  0.00  0.00    +0.015 A 
ATOM     39  C   UNL     1      20.935  13.676  -1.507  0.00  0.00    +0.006 A 
ENDBRANCH  32  33
ENDBRANCH  30  32
ENDBRANCH  26  28
ENDBRANCH  25  26
ENDBRANCH  24  25
ENDBRANCH   1  24
TORSDOF 12
