REMARK VINA RESULT:    -6.165      2.124      4.279
REMARK INTER + INTRA:         -13.138
REMARK INTER:                 -11.683
REMARK INTRA:                  -1.454
REMARK UNBOUND:                -2.287
REMARK  Name = lig_assembled_67.pdb
REMARK  13 active torsions:
REMARK  status: ('A' for Active; 'I' for Inactive)
REMARK    1  A    between atoms: _2  and  _8
REMARK    2  A    between atoms: _5  and  _6
REMARK    3  A    between atoms: _5  and  _14
REMARK    4  A    between atoms: _8  and  _9
REMARK    5  A    between atoms: _9  and  _10
REMARK    6  A    between atoms: _14  and  _16
REMARK    7  A    between atoms: _15  and  _20
REMARK    8  A    between atoms: _16  and  _19
REMARK    9  A    between atoms: _24  and  _34
REMARK   10  A    between atoms: _26  and  _27
REMARK   11  A    between atoms: _28  and  _30
REMARK   12  A    between atoms: _30  and  _32
REMARK   13  A    between atoms: _32  and  _34
REMARK                            x       y       z     vdW  Elec       q    Type
REMARK                         _______ _______ _______ _____ _____    ______ ____
ROOT
ATOM      1  C   UNL     1      27.884  17.417  -0.693  0.00  0.00    +0.400 C 
ATOM      2  N   UNL     1      28.534  16.477   0.071  0.00  0.00    -0.278 N 
ATOM      3  H   UNL     1      28.659  16.967   1.013  0.00  0.00    +0.152 HD
ATOM      4  O   UNL     1      27.463  18.427  -0.135  0.00  0.00    -0.226 OA
ENDROOT
BRANCH   2   5
ATOM      5  C   UNL     1      29.104  15.136   0.176  0.00  0.00    +0.152 C 
BRANCH   5   6
ATOM      6  C   UNL     1      30.480  14.928  -0.489  0.00  0.00    +0.193 C 
ATOM      7  O   UNL     1      31.115  16.225  -0.542  0.00  0.00    -0.219 OA
BRANCH   6   8
ATOM      8  C   UNL     1      31.500  14.029   0.244  0.00  0.00    +0.212 C 
ATOM      9  O   UNL     1      30.877  12.805   0.667  0.00  0.00    -0.218 OA
BRANCH   8  10
ATOM     10  C   UNL     1      32.763  13.676  -0.630  0.00  0.00    +0.171 C 
ATOM     11  O   UNL     1      32.423  12.994  -1.833  0.00  0.00    -0.343 OA
ATOM     12  C   UNL     1      33.346  12.356  -2.665  0.00  0.00    +0.220 C 
ATOM     13  C   UNL     1      34.261  11.403  -1.876  0.00  0.00    +0.076 C 
ATOM     14  C   UNL     1      34.879  12.207  -0.720  0.00  0.00    +0.177 C 
ATOM     15  O   UNL     1      35.767  11.381   0.020  0.00  0.00    -0.221 OA
ATOM     16  C   UNL     1      33.754  12.789   0.192  0.00  0.00    +0.155 C 
BRANCH  16  17
ATOM     17  N   UNL     1      34.338  13.547   1.295  0.00  0.00    -0.202 NA
ATOM     18  C   UNL     1      34.188  13.385   2.634  0.00  0.00    +0.242 C 
ATOM     19  C   UNL     1      35.132  14.115   3.553  0.00  0.00    +0.096 C 
ATOM     20  O   UNL     1      33.296  12.655   3.062  0.00  0.00    -0.273 OA
ENDBRANCH  16  17
BRANCH  12  21
ATOM     21  C   UNL     1      34.205  13.381  -3.586  0.00  0.00    +0.391 C 
ATOM     22  O   UNL     1      35.296  12.684  -3.959  0.00  0.00    -0.243 OA
ATOM     23  O   UNL     1      33.383  14.399  -3.872  0.00  0.00    -0.243 OA
ENDBRANCH  12  21
ENDBRANCH   8  10
ENDBRANCH   6   8
ENDBRANCH   5   6
ENDBRANCH   2   5
BRANCH   1  24
ATOM     24  O   UNL     1      27.806  17.154  -1.956  0.00  0.00    -0.450 OA
BRANCH  24  25
ATOM     25  C   UNL     1      26.981  17.450  -3.060  0.00  0.00    +0.240 C 
BRANCH  25  26
ATOM     26  C   UNL     1      26.503  16.270  -3.926  0.00  0.00    +0.100 C 
BRANCH  26  28
ATOM     27  N   UNL     1      25.720  14.478  -2.410  0.00  0.00    -0.134 NA
ATOM     28  C   UNL     1      25.428  15.529  -3.239  0.00  0.00    +0.086 A 
ATOM     29  C   UNL     1      24.063  15.709  -3.276  0.00  0.00    +0.133 A 
ATOM     30  N   UNL     1      23.583  14.735  -2.453  0.00  0.00    -0.251 N 
ATOM     31  N   UNL     1      24.577  13.995  -1.936  0.00  0.00    -0.065 NA
BRANCH  30  32
ATOM     32  C   UNL     1      22.208  14.457  -2.103  0.00  0.00    +0.150 C 
BRANCH  32  33
ATOM     33  C   UNL     1      21.502  13.524  -3.085  0.00  0.00    +0.084 C 
BRANCH  33  34
ATOM     34  C   UNL     1      20.435  14.238  -3.901  0.00  0.00    +0.252 C 
ATOM     35  O   UNL     1      19.507  14.897  -3.032  0.00  0.00    -0.349 OA
ATOM     36  C   UNL     1      19.063  16.005  -3.811  0.00  0.00    +0.191 C 
ATOM     37  C   UNL     1      20.300  16.414  -4.570  0.00  0.00    +0.191 C 
ATOM     38  O   UNL     1      21.033  15.205  -4.770  0.00  0.00    -0.349 OA
ENDBRANCH  33  34
ENDBRANCH  32  33
ENDBRANCH  30  32
ENDBRANCH  26  28
ENDBRANCH  25  26
ENDBRANCH  24  25
ENDBRANCH   1  24
TORSDOF 13
