REMARK VINA RESULT:    -7.412      1.365      3.243
REMARK INTER + INTRA:         -13.788
REMARK INTER:                 -12.386
REMARK INTRA:                  -1.402
REMARK UNBOUND:                -1.609
REMARK  Name = lig_assembled_87.pdb
REMARK  12 active torsions:
REMARK  status: ('A' for Active; 'I' for Inactive)
REMARK    1  A    between atoms: _2  and  _9
REMARK    2  A    between atoms: _3  and  _12
REMARK    3  A    between atoms: _6  and  _7
REMARK    4  A    between atoms: _6  and  _16
REMARK    5  A    between atoms: _16  and  _18
REMARK    6  A    between atoms: _17  and  _22
REMARK    7  A    between atoms: _18  and  _21
REMARK    8  A    between atoms: _26  and  _36
REMARK    9  A    between atoms: _28  and  _29
REMARK   10  A    between atoms: _30  and  _32
REMARK   11  A    between atoms: _32  and  _34
REMARK   12  A    between atoms: _34  and  _36
REMARK                            x       y       z     vdW  Elec       q    Type
REMARK                         _______ _______ _______ _____ _____    ______ ____
ROOT
ATOM      1  C   UNL     1      27.783  17.402  -0.622  0.00  0.00    +0.400 C 
ATOM      2  N   UNL     1      28.349  16.424   0.162  0.00  0.00    -0.278 N 
ATOM      3  H   UNL     1      28.567  16.935   1.075  0.00  0.00    +0.152 HD
ATOM      4  O   UNL     1      27.505  18.476  -0.096  0.00  0.00    -0.226 OA
ENDROOT
BRANCH   1   5
ATOM      5  O   UNL     1      27.625  17.098  -1.868  0.00  0.00    -0.450 OA
BRANCH   5   6
ATOM      6  C   UNL     1      26.894  17.536  -2.990  0.00  0.00    +0.240 C 
BRANCH   6   7
ATOM      7  C   UNL     1      26.953  16.666  -4.260  0.00  0.00    +0.100 C 
BRANCH   7   9
ATOM      8  N   UNL     1      25.407  15.185  -5.492  0.00  0.00    -0.134 NA
ATOM      9  C   UNL     1      25.784  15.771  -4.317  0.00  0.00    +0.086 A 
ATOM     10  C   UNL     1      24.931  15.363  -3.316  0.00  0.00    +0.134 A 
ATOM     11  N   UNL     1      24.127  14.432  -3.915  0.00  0.00    -0.248 N 
ATOM     12  N   UNL     1      24.352  14.427  -5.245  0.00  0.00    -0.065 NA
BRANCH  11  13
ATOM     13  C   UNL     1      23.118  13.515  -3.350  0.00  0.00    +0.112 C 
ATOM     14  C   UNL     1      21.887  13.257  -4.264  0.00  0.00    +0.045 C 
ATOM     15  C   UNL     1      20.524  13.650  -3.672  0.00  0.00    +0.059 C 
ATOM     16  C   UNL     1      20.010  12.608  -2.668  0.00  0.00    +0.020 C 
ATOM     17  C   UNL     1      20.434  13.145  -1.302  0.00  0.00    +0.020 C 
ATOM     18  C   UNL     1      21.310  14.353  -1.637  0.00  0.00    +0.059 C 
ATOM     19  N   UNL     1      20.601  14.830  -2.821  0.00  0.00    -0.299 NA
ATOM     20  C   UNL     1      21.057  16.063  -3.424  0.00  0.00    +0.105 C 
ATOM     21  C   UNL     1      22.754  13.915  -1.889  0.00  0.00    +0.045 C 
ENDBRANCH  11  13
ENDBRANCH   7   9
ENDBRANCH   6   7
ENDBRANCH   5   6
ENDBRANCH   1   5
BRANCH   2  22
ATOM     22  C   UNL     1      28.762  15.031   0.309  0.00  0.00    +0.152 C 
BRANCH  22  23
ATOM     23  C   UNL     1      30.124  14.657  -0.313  0.00  0.00    +0.193 C 
ATOM     24  O   UNL     1      30.812  15.898  -0.584  0.00  0.00    -0.219 OA
BRANCH  23  25
ATOM     25  C   UNL     1      31.111  13.851   0.560  0.00  0.00    +0.212 C 
ATOM     26  O   UNL     1      30.557  12.567   0.890  0.00  0.00    -0.218 OA
BRANCH  25  27
ATOM     27  C   UNL     1      32.515  13.634  -0.124  0.00  0.00    +0.171 C 
ATOM     28  O   UNL     1      32.429  12.864  -1.318  0.00  0.00    -0.343 OA
ATOM     29  C   UNL     1      33.529  12.320  -1.986  0.00  0.00    +0.220 C 
ATOM     30  C   UNL     1      34.443  11.532  -1.033  0.00  0.00    +0.076 C 
ATOM     31  C   UNL     1      34.793  12.458   0.144  0.00  0.00    +0.177 C 
ATOM     32  O   UNL     1      35.671  11.789   1.038  0.00  0.00    -0.221 OA
ATOM     33  C   UNL     1      33.491  12.922   0.868  0.00  0.00    +0.155 C 
BRANCH  33  34
ATOM     34  N   UNL     1      33.820  13.796   1.991  0.00  0.00    -0.202 NA
ATOM     35  C   UNL     1      33.583  13.632   3.318  0.00  0.00    +0.242 C 
ATOM     36  C   UNL     1      34.288  14.544   4.288  0.00  0.00    +0.096 C 
ATOM     37  O   UNL     1      32.810  12.753   3.692  0.00  0.00    -0.273 OA
ENDBRANCH  33  34
BRANCH  29  38
ATOM     38  C   UNL     1      34.367  13.413  -2.849  0.00  0.00    +0.391 C 
ATOM     39  O   UNL     1      35.549  12.820  -3.106  0.00  0.00    -0.243 OA
ATOM     40  O   UNL     1      33.481  14.341  -3.230  0.00  0.00    -0.243 OA
ENDBRANCH  29  38
ENDBRANCH  25  27
ENDBRANCH  23  25
ENDBRANCH  22  23
ENDBRANCH   2  22
TORSDOF 11
