REMARK VINA RESULT:    -7.380      3.201      7.371
REMARK INTER + INTRA:         -13.724
REMARK INTER:                 -10.817
REMARK INTRA:                  -2.907
REMARK UNBOUND:                -1.598
REMARK  Name = lig_assembled_80.pdb
REMARK  11 active torsions:
REMARK  status: ('A' for Active; 'I' for Inactive)
REMARK    1  A    between atoms: _2  and  _9
REMARK    2  A    between atoms: _6  and  _7
REMARK    3  A    between atoms: _6  and  _19
REMARK    4  A    between atoms: _19  and  _21
REMARK    5  A    between atoms: _20  and  _25
REMARK    6  A    between atoms: _21  and  _24
REMARK    7  A    between atoms: _29  and  _39
REMARK    8  A    between atoms: _31  and  _32
REMARK    9  A    between atoms: _33  and  _35
REMARK   10  A    between atoms: _35  and  _37
REMARK   11  A    between atoms: _37  and  _39
REMARK                            x       y       z     vdW  Elec       q    Type
REMARK                         _______ _______ _______ _____ _____    ______ ____
ROOT
ATOM      1  C   UNL     1      27.860  17.349  -0.691  0.00  0.00    +0.400 C 
ATOM      2  N   UNL     1      27.088  17.237  -1.823  0.00  0.00    -0.278 N 
ATOM      3  H   UNL     1      26.196  17.766  -1.567  0.00  0.00    +0.152 HD
ATOM      4  O   UNL     1      27.481  18.110   0.196  0.00  0.00    -0.226 OA
ENDROOT
BRANCH   1   5
ATOM      5  O   UNL     1      28.915  16.603  -0.656  0.00  0.00    -0.450 OA
BRANCH   5   6
ATOM      6  C   UNL     1      29.258  15.243  -0.525  0.00  0.00    +0.240 C 
BRANCH   6   7
ATOM      7  C   UNL     1      29.753  14.764   0.853  0.00  0.00    +0.100 C 
BRANCH   7   9
ATOM      8  N   UNL     1      28.216  14.045   2.639  0.00  0.00    -0.134 NA
ATOM      9  C   UNL     1      28.804  13.791   1.432  0.00  0.00    +0.086 A 
ATOM     10  C   UNL     1      28.357  12.583   0.946  0.00  0.00    +0.134 A 
ATOM     11  N   UNL     1      27.536  12.119   1.939  0.00  0.00    -0.240 N 
ATOM     12  N   UNL     1      27.427  13.021   2.938  0.00  0.00    -0.065 NA
BRANCH  11  13
ATOM     13  C   UNL     1      26.677  10.929   1.967  0.00  0.00    +0.195 C 
ATOM     14  C   UNL     1      26.817  10.265   3.330  0.00  0.00    +0.041 C 
ATOM     15  C   UNL     1      26.193   8.886   3.331  0.00  0.00    +0.039 C 
ATOM     16  C   UNL     1      24.725   8.992   3.609  0.00  0.00    -0.026 A 
ATOM     17  C   UNL     1      23.840   9.634   2.741  0.00  0.00    +0.037 A 
ATOM     18  C   UNL     1      22.462   9.587   3.010  0.00  0.00    +0.023 A 
ATOM     19  C   UNL     1      21.977   9.015   4.185  0.00  0.00    +0.002 A 
ATOM     20  C   UNL     1      22.863   8.443   5.086  0.00  0.00    +0.000 A 
ATOM     21  N   UNL     1      24.202  10.416   1.632  0.00  0.00    -0.284 N 
ATOM     22  H   UNL     1      23.421  10.783   1.098  0.00  0.00    +0.155 HD
ATOM     23  C   UNL     1      24.224   8.408   4.788  0.00  0.00    +0.005 A 
ATOM     24  C   UNL     1      25.275  11.243   1.458  0.00  0.00    +0.242 C 
ATOM     25  O   UNL     1      25.053  12.233   0.750  0.00  0.00    -0.273 OA
ENDBRANCH  11  13
ENDBRANCH   7   9
ENDBRANCH   6   7
ENDBRANCH   5   6
ENDBRANCH   1   5
BRANCH   2  26
ATOM     26  C   UNL     1      26.950  16.744  -3.191  0.00  0.00    +0.152 C 
BRANCH  26  27
ATOM     27  C   UNL     1      25.676  15.930  -3.495  0.00  0.00    +0.193 C 
ATOM     28  O   UNL     1      25.562  15.857  -4.933  0.00  0.00    -0.219 OA
BRANCH  27  29
ATOM     29  C   UNL     1      25.641  14.457  -3.030  0.00  0.00    +0.212 C 
ATOM     30  O   UNL     1      26.299  14.315  -1.761  0.00  0.00    -0.218 OA
BRANCH  29  31
ATOM     31  C   UNL     1      24.180  13.876  -2.908  0.00  0.00    +0.171 C 
ATOM     32  O   UNL     1      23.324  14.705  -2.130  0.00  0.00    -0.343 OA
ATOM     33  C   UNL     1      22.066  14.320  -1.662  0.00  0.00    +0.220 C 
ATOM     34  C   UNL     1      22.117  12.962  -0.941  0.00  0.00    +0.076 C 
ATOM     35  C   UNL     1      22.790  11.958  -1.892  0.00  0.00    +0.177 C 
ATOM     36  O   UNL     1      22.827  10.673  -1.288  0.00  0.00    -0.221 OA
ATOM     37  C   UNL     1      24.222  12.450  -2.268  0.00  0.00    +0.155 C 
BRANCH  37  38
ATOM     38  N   UNL     1      24.867  11.495  -3.166  0.00  0.00    -0.202 NA
ATOM     39  C   UNL     1      25.967  10.726  -2.970  0.00  0.00    +0.242 C 
ATOM     40  C   UNL     1      26.246   9.613  -3.946  0.00  0.00    +0.096 C 
ATOM     41  O   UNL     1      26.702  10.951  -2.010  0.00  0.00    -0.273 OA
ENDBRANCH  37  38
BRANCH  33  42
ATOM     42  C   UNL     1      20.913  14.344  -2.807  0.00  0.00    +0.391 C 
ATOM     43  O   UNL     1      19.968  13.492  -2.366  0.00  0.00    -0.243 OA
ATOM     44  O   UNL     1      21.186  15.400  -3.583  0.00  0.00    -0.243 OA
ENDBRANCH  33  42
ENDBRANCH  29  31
ENDBRANCH  27  29
ENDBRANCH  26  27
ENDBRANCH   2  26
TORSDOF 11
