REMARK VINA RESULT:    -6.725      2.660      4.631
REMARK INTER + INTRA:         -12.825
REMARK INTER:                 -12.005
REMARK INTRA:                  -0.819
REMARK UNBOUND:                -1.775
REMARK  Name = lig_assembled_42.pdb
REMARK  11 active torsions:
REMARK  status: ('A' for Active; 'I' for Inactive)
REMARK    1  A    between atoms: _2  and  _8
REMARK    2  A    between atoms: _5  and  _6
REMARK    3  A    between atoms: _5  and  _16
REMARK    4  A    between atoms: _16  and  _18
REMARK    5  A    between atoms: _17  and  _22
REMARK    6  A    between atoms: _18  and  _21
REMARK    7  A    between atoms: _26  and  _36
REMARK    8  A    between atoms: _28  and  _29
REMARK    9  A    between atoms: _30  and  _32
REMARK   10  A    between atoms: _32  and  _34
REMARK   11  A    between atoms: _34  and  _36
REMARK                            x       y       z     vdW  Elec       q    Type
REMARK                         _______ _______ _______ _____ _____    ______ ____
ROOT
ATOM      1  C   UNL     1      28.429  17.447  -0.484  0.00  0.00    +0.400 C 
ATOM      2  N   UNL     1      29.699  17.250   0.005  0.00  0.00    -0.278 N 
ATOM      3  H   UNL     1      29.733  17.882   0.867  0.00  0.00    +0.152 HD
ATOM      4  O   UNL     1      27.635  18.083   0.205  0.00  0.00    -0.226 OA
ENDROOT
BRANCH   1   5
ATOM      5  O   UNL     1      28.200  16.960  -1.659  0.00  0.00    -0.450 OA
BRANCH   5   6
ATOM      6  C   UNL     1      27.309  16.071  -2.292  0.00  0.00    +0.240 C 
BRANCH   6   7
ATOM      7  C   UNL     1      26.692  16.518  -3.631  0.00  0.00    +0.100 C 
BRANCH   7   9
ATOM      8  N   UNL     1      25.147  15.054  -4.908  0.00  0.00    -0.134 NA
ATOM      9  C   UNL     1      25.384  15.870  -3.840  0.00  0.00    +0.086 A 
ATOM     10  C   UNL     1      24.244  15.950  -3.077  0.00  0.00    +0.139 A 
ATOM     11  N   UNL     1      23.324  15.157  -3.721  0.00  0.00    -0.220 N 
ATOM     12  N   UNL     1      23.894  14.623  -4.830  0.00  0.00    -0.061 NA
BRANCH  11  13
ATOM     13  C   UNL     1      21.979  14.894  -3.353  0.00  0.00    +0.071 A 
ATOM     14  C   UNL     1      20.928  15.359  -4.157  0.00  0.00    +0.077 A 
ATOM     15  C   UNL     1      19.639  15.077  -3.756  0.00  0.00    +0.168 A 
ATOM     16  O   UNL     1      18.514  15.450  -4.420  0.00  0.00    -0.453 OA
ATOM     17  C   UNL     1      17.498  14.888  -3.565  0.00  0.00    +0.466 C 
ATOM     18  O   UNL     1      18.034  14.205  -2.411  0.00  0.00    -0.453 OA
ATOM     19  C   UNL     1      19.369  14.367  -2.612  0.00  0.00    +0.166 A 
ATOM     20  C   UNL     1      20.376  13.897  -1.797  0.00  0.00    +0.051 A 
ATOM     21  C   UNL     1      21.700  14.164  -2.173  0.00  0.00    +0.031 A 
ENDBRANCH  11  13
ENDBRANCH   7   9
ENDBRANCH   6   7
ENDBRANCH   5   6
ENDBRANCH   1   5
BRANCH   2  22
ATOM     22  C   UNL     1      30.986  16.569  -0.112  0.00  0.00    +0.152 C 
BRANCH  22  23
ATOM     23  C   UNL     1      31.099  15.202   0.592  0.00  0.00    +0.193 C 
ATOM     24  O   UNL     1      29.969  15.101   1.487  0.00  0.00    -0.219 OA
BRANCH  23  25
ATOM     25  C   UNL     1      31.008  13.935  -0.288  0.00  0.00    +0.212 C 
ATOM     26  O   UNL     1      29.944  14.064  -1.245  0.00  0.00    -0.218 OA
BRANCH  25  27
ATOM     27  C   UNL     1      32.344  13.614  -1.060  0.00  0.00    +0.171 C 
ATOM     28  O   UNL     1      32.120  12.886  -2.263  0.00  0.00    -0.343 OA
ATOM     29  C   UNL     1      33.126  12.266  -3.008  0.00  0.00    +0.220 C 
ATOM     30  C   UNL     1      34.020  11.375  -2.128  0.00  0.00    +0.076 C 
ATOM     31  C   UNL     1      34.520  12.235  -0.956  0.00  0.00    +0.177 C 
ATOM     32  O   UNL     1      35.386  11.469  -0.131  0.00  0.00    -0.221 OA
ATOM     33  C   UNL     1      33.309  12.792  -0.144  0.00  0.00    +0.155 C 
BRANCH  33  34
ATOM     34  N   UNL     1      33.780  13.605   0.975  0.00  0.00    -0.202 NA
ATOM     35  C   UNL     1      33.663  13.393   2.311  0.00  0.00    +0.242 C 
ATOM     36  C   UNL     1      34.494  14.235   3.244  0.00  0.00    +0.096 C 
ATOM     37  O   UNL     1      32.892  12.529   2.724  0.00  0.00    -0.273 OA
ENDBRANCH  33  34
BRANCH  29  38
ATOM     38  C   UNL     1      34.006  13.303  -3.896  0.00  0.00    +0.391 C 
ATOM     39  O   UNL     1      33.137  14.260  -4.275  0.00  0.00    -0.243 OA
ATOM     40  O   UNL     1      35.287  12.989  -3.670  0.00  0.00    -0.243 OA
ENDBRANCH  29  38
ENDBRANCH  25  27
ENDBRANCH  23  25
ENDBRANCH  22  23
ENDBRANCH   2  22
TORSDOF 11
