REMARK VINA RESULT:    -7.208      2.139      3.699
REMARK INTER + INTRA:         -14.152
REMARK INTER:                 -12.574
REMARK INTRA:                  -1.577
REMARK UNBOUND:                -1.466
REMARK  Name = lig_assembled_78.pdb
REMARK  13 active torsions:
REMARK  status: ('A' for Active; 'I' for Inactive)
REMARK    1  A    between atoms: _2  and  _8
REMARK    2  A    between atoms: _5  and  _6
REMARK    3  A    between atoms: _5  and  _16
REMARK    4  A    between atoms: _8  and  _44
REMARK    5  A    between atoms: _9  and  _44
REMARK    6  A    between atoms: _16  and  _18
REMARK    7  A    between atoms: _17  and  _22
REMARK    8  A    between atoms: _18  and  _21
REMARK    9  A    between atoms: _26  and  _36
REMARK   10  A    between atoms: _28  and  _29
REMARK   11  A    between atoms: _30  and  _32
REMARK   12  A    between atoms: _32  and  _34
REMARK   13  A    between atoms: _34  and  _36
REMARK                            x       y       z     vdW  Elec       q    Type
REMARK                         _______ _______ _______ _____ _____    ______ ____
ROOT
ATOM      1  C   UNL     1      28.289  17.639  -0.489  0.00  0.00    +0.400 C 
ATOM      2  N   UNL     1      29.515  17.563   0.128  0.00  0.00    -0.278 N 
ATOM      3  H   UNL     1      29.479  18.351   0.848  0.00  0.00    +0.152 HD
ATOM      4  O   UNL     1      27.441  18.384  -0.003  0.00  0.00    -0.226 OA
ENDROOT
BRANCH   2   5
ATOM      5  C   UNL     1      30.809  16.894   0.247  0.00  0.00    +0.152 C 
BRANCH   5   6
ATOM      6  C   UNL     1      30.800  15.362   0.071  0.00  0.00    +0.193 C 
ATOM      7  O   UNL     1      31.787  15.055  -0.938  0.00  0.00    -0.219 OA
BRANCH   6   8
ATOM      8  C   UNL     1      31.210  14.500   1.286  0.00  0.00    +0.212 C 
ATOM      9  O   UNL     1      31.457  15.332   2.431  0.00  0.00    -0.218 OA
BRANCH   8  10
ATOM     10  C   UNL     1      30.135  13.415   1.673  0.00  0.00    +0.171 C 
ATOM     11  O   UNL     1      28.811  13.939   1.694  0.00  0.00    -0.343 OA
ATOM     12  C   UNL     1      27.708  13.273   2.234  0.00  0.00    +0.220 C 
ATOM     13  C   UNL     1      27.990  12.763   3.658  0.00  0.00    +0.076 C 
ATOM     14  C   UNL     1      29.284  11.934   3.604  0.00  0.00    +0.177 C 
ATOM     15  O   UNL     1      29.570  11.404   4.891  0.00  0.00    -0.221 OA
ATOM     16  C   UNL     1      30.463  12.811   3.078  0.00  0.00    +0.155 C 
BRANCH  16  17
ATOM     17  N   UNL     1      31.696  12.030   3.033  0.00  0.00    -0.202 NA
ATOM     18  C   UNL     1      32.829  12.153   3.770  0.00  0.00    +0.242 C 
ATOM     19  C   UNL     1      33.836  11.033   3.726  0.00  0.00    +0.096 C 
ATOM     20  O   UNL     1      33.004  13.162   4.451  0.00  0.00    -0.273 OA
ENDBRANCH  16  17
BRANCH  12  21
ATOM     21  C   UNL     1      27.136  12.090   1.278  0.00  0.00    +0.391 C 
ATOM     22  O   UNL     1      27.730  12.289   0.085  0.00  0.00    -0.243 OA
ATOM     23  O   UNL     1      26.545  11.209   2.094  0.00  0.00    -0.243 OA
ENDBRANCH  12  21
ENDBRANCH   8  10
ENDBRANCH   6   8
ENDBRANCH   5   6
ENDBRANCH   2   5
BRANCH   1  24
ATOM     24  O   UNL     1      28.156  16.927  -1.560  0.00  0.00    -0.450 OA
BRANCH  24  25
ATOM     25  C   UNL     1      27.408  15.829  -2.026  0.00  0.00    +0.240 C 
BRANCH  25  26
ATOM     26  C   UNL     1      26.502  16.054  -3.252  0.00  0.00    +0.100 C 
BRANCH  26  28
ATOM     27  N   UNL     1      25.743  13.731  -2.841  0.00  0.00    -0.134 NA
ATOM     28  C   UNL     1      25.500  14.977  -3.353  0.00  0.00    +0.086 A 
ATOM     29  C   UNL     1      24.243  14.993  -3.918  0.00  0.00    +0.135 A 
ATOM     30  N   UNL     1      23.754  13.747  -3.663  0.00  0.00    -0.230 N 
ATOM     31  N   UNL     1      24.674  12.978  -3.057  0.00  0.00    -0.064 NA
BRANCH  30  32
ATOM     32  C   UNL     1      22.474  13.190  -4.027  0.00  0.00    +0.316 C 
BRANCH  32  33
ATOM     33  S   UNL     1      21.171  13.608  -2.900  0.00  0.00    +0.017 S 
ATOM     34  O   UNL     1      21.411  14.920  -2.331  0.00  0.00    -0.168 OA
ATOM     35  O   UNL     1      19.905  13.296  -3.543  0.00  0.00    -0.168 OA
BRANCH  33  36
ATOM     36  C   UNL     1      21.369  12.454  -1.559  0.00  0.00    +0.090 A 
ATOM     37  C   UNL     1      21.872  11.176  -1.826  0.00  0.00    +0.027 A 
ATOM     38  C   UNL     1      22.053  10.278  -0.774  0.00  0.00    +0.002 A 
ATOM     39  C   UNL     1      21.751  10.663   0.533  0.00  0.00    +0.000 A 
ATOM     40  C   UNL     1      21.269  11.945   0.796  0.00  0.00    +0.002 A 
ATOM     41  C   UNL     1      21.076  12.847  -0.251  0.00  0.00    +0.027 A 
ENDBRANCH  33  36
ENDBRANCH  32  33
ENDBRANCH  30  32
ENDBRANCH  26  28
ENDBRANCH  25  26
ENDBRANCH  24  25
ENDBRANCH   1  24
TORSDOF 13
