REMARK VINA RESULT:    -6.716     23.240     25.812
REMARK INTER + INTRA:         -14.342
REMARK INTER:                 -12.177
REMARK INTRA:                  -2.165
REMARK UNBOUND:                -2.327
REMARK  Name = lig_assembled_68.pdb
REMARK  14 active torsions:
REMARK  status: ('A' for Active; 'I' for Inactive)
REMARK    1  A    between atoms: _2  and  _8
REMARK    2  A    between atoms: _5  and  _6
REMARK    3  A    between atoms: _5  and  _16
REMARK    4  A    between atoms: _8  and  _9
REMARK    5  A    between atoms: _9  and  _10
REMARK    6  A    between atoms: _9  and  _15
REMARK    7  A    between atoms: _16  and  _18
REMARK    8  A    between atoms: _17  and  _22
REMARK    9  A    between atoms: _18  and  _21
REMARK   10  A    between atoms: _26  and  _36
REMARK   11  A    between atoms: _28  and  _29
REMARK   12  A    between atoms: _30  and  _32
REMARK   13  A    between atoms: _32  and  _34
REMARK   14  A    between atoms: _34  and  _36
REMARK                            x       y       z     vdW  Elec       q    Type
REMARK                         _______ _______ _______ _____ _____    ______ ____
ROOT
ATOM      1  C   UNL     1      32.843  42.025   5.238  0.00  0.00    +0.400 C 
ATOM      2  N   UNL     1      34.104  41.491   5.117  0.00  0.00    -0.278 N 
ATOM      3  H   UNL     1      34.223  41.376   4.061  0.00  0.00    +0.152 HD
ATOM      4  O   UNL     1      32.269  42.393   4.216  0.00  0.00    -0.226 OA
ENDROOT
BRANCH   2   5
ATOM      5  C   UNL     1      35.330  41.035   5.767  0.00  0.00    +0.152 C 
BRANCH   5   6
ATOM      6  C   UNL     1      35.322  39.585   6.291  0.00  0.00    +0.193 C 
ATOM      7  O   UNL     1      33.997  39.063   6.051  0.00  0.00    -0.219 OA
BRANCH   6   8
ATOM      8  C   UNL     1      36.265  38.571   5.605  0.00  0.00    +0.212 C 
ATOM      9  O   UNL     1      35.755  37.236   5.746  0.00  0.00    -0.218 OA
BRANCH   8  10
ATOM     10  C   UNL     1      36.490  38.866   4.073  0.00  0.00    +0.171 C 
ATOM     11  O   UNL     1      35.316  38.653   3.296  0.00  0.00    -0.343 OA
ATOM     12  C   UNL     1      35.293  38.602   1.901  0.00  0.00    +0.220 C 
ATOM     13  C   UNL     1      36.354  37.636   1.347  0.00  0.00    +0.076 C 
ATOM     14  C   UNL     1      37.708  38.036   1.958  0.00  0.00    +0.177 C 
ATOM     15  O   UNL     1      38.734  37.197   1.447  0.00  0.00    -0.221 OA
ATOM     16  C   UNL     1      37.637  37.962   3.515  0.00  0.00    +0.155 C 
BRANCH  16  17
ATOM     17  N   UNL     1      38.923  38.334   4.099  0.00  0.00    -0.202 NA
ATOM     18  C   UNL     1      39.971  37.552   4.463  0.00  0.00    +0.242 C 
ATOM     19  C   UNL     1      41.289  38.215   4.765  0.00  0.00    +0.096 C 
ATOM     20  O   UNL     1      39.822  36.333   4.536  0.00  0.00    -0.273 OA
ENDBRANCH  16  17
BRANCH  12  21
ATOM     21  C   UNL     1      35.392  40.064   1.198  0.00  0.00    +0.391 C 
ATOM     22  O   UNL     1      35.619  39.809  -0.105  0.00  0.00    -0.243 OA
ATOM     23  O   UNL     1      34.920  40.938   2.096  0.00  0.00    -0.243 OA
ENDBRANCH  12  21
ENDBRANCH   8  10
ENDBRANCH   6   8
ENDBRANCH   5   6
ENDBRANCH   2   5
BRANCH   1  24
ATOM     24  O   UNL     1      32.362  42.059   6.438  0.00  0.00    -0.450 OA
BRANCH  24  25
ATOM     25  C   UNL     1      31.163  41.768   7.117  0.00  0.00    +0.240 C 
BRANCH  25  26
ATOM     26  C   UNL     1      31.062  40.405   7.829  0.00  0.00    +0.100 C 
BRANCH  26  28
ATOM     27  N   UNL     1      30.557  39.223   5.709  0.00  0.00    -0.134 NA
ATOM     28  C   UNL     1      30.265  39.462   7.028  0.00  0.00    +0.086 A 
ATOM     29  C   UNL     1      29.171  38.708   7.386  0.00  0.00    +0.133 A 
ATOM     30  N   UNL     1      28.850  38.028   6.248  0.00  0.00    -0.249 N 
ATOM     31  N   UNL     1      29.678  38.349   5.239  0.00  0.00    -0.065 NA
BRANCH  30  32
ATOM     32  C   UNL     1      27.722  37.149   6.029  0.00  0.00    +0.181 C 
BRANCH  32  33
ATOM     33  C   UNL     1      28.097  35.671   6.201  0.00  0.00    +0.166 C 
BRANCH  33  34
ATOM     34  C   UNL     1      27.879  35.129   7.606  0.00  0.00    -0.017 A 
ATOM     35  C   UNL     1      26.601  35.238   8.185  0.00  0.00    +0.006 A 
ATOM     36  C   UNL     1      26.349  34.731   9.462  0.00  0.00    +0.000 A 
ATOM     37  C   UNL     1      27.364  34.103  10.176  0.00  0.00    +0.000 A 
ATOM     38  C   UNL     1      28.628  33.968   9.611  0.00  0.00    +0.000 A 
ATOM     39  C   UNL     1      28.883  34.474   8.333  0.00  0.00    +0.006 A 
ENDBRANCH  33  34
BRANCH  33  40
ATOM     40  O   UNL     1      29.480  35.499   5.872  0.00  0.00    -0.385 OA
ATOM     41  H   UNL     1      30.012  35.930   6.562  0.00  0.00    +0.210 HD
ENDBRANCH  33  40
ENDBRANCH  32  33
ENDBRANCH  30  32
ENDBRANCH  26  28
ENDBRANCH  25  26
ENDBRANCH  24  25
ENDBRANCH   1  24
TORSDOF 14
