REMARK VINA RESULT:    -6.525      2.480      5.062
REMARK INTER + INTRA:         -16.452
REMARK INTER:                 -13.212
REMARK INTRA:                  -3.239
REMARK UNBOUND:                -3.824
REMARK  Name = lig_assembled_81.pdb
REMARK  17 active torsions:
REMARK  status: ('A' for Active; 'I' for Inactive)
REMARK    1  A    between atoms: _2  and  _11
REMARK    2  A    between atoms: _7  and  _23
REMARK    3  A    between atoms: _8  and  _9
REMARK    4  A    between atoms: _8  and  _25
REMARK    5  A    between atoms: _13  and  _14
REMARK    6  A    between atoms: _20  and  _21
REMARK    7  A    between atoms: _21  and  _22
REMARK    8  A    between atoms: _22  and  _24
REMARK    9  A    between atoms: _23  and  _24
REMARK   10  A    between atoms: _25  and  _27
REMARK   11  A    between atoms: _26  and  _31
REMARK   12  A    between atoms: _27  and  _30
REMARK   13  A    between atoms: _35  and  _45
REMARK   14  A    between atoms: _37  and  _38
REMARK   15  A    between atoms: _39  and  _41
REMARK   16  A    between atoms: _41  and  _43
REMARK   17  A    between atoms: _43  and  _45
REMARK                            x       y       z     vdW  Elec       q    Type
REMARK                         _______ _______ _______ _____ _____    ______ ____
ROOT
ATOM      1  C   UNL     1      30.730  12.929  -0.638  0.00  0.00    +0.096 C 
ENDROOT
BRANCH   1   3
ATOM      2  N   UNL     1      29.237  12.413  -2.514  0.00  0.00    -0.133 NA
ATOM      3  C   UNL     1      29.477  13.144  -1.390  0.00  0.00    +0.066 C 
ATOM      4  C   UNL     1      28.425  14.020  -1.199  0.00  0.00    +0.120 C 
ATOM      5  N   UNL     1      27.498  13.673  -2.173  0.00  0.00    -0.187 N 
ATOM      6  N   UNL     1      28.105  12.843  -3.045  0.00  0.00    -0.010 NA
BRANCH   5   7
ATOM      7  C   UNL     1      26.195  14.232  -2.392  0.00  0.00    +0.150 A 
ATOM      8  C   UNL     1      24.966  13.535  -2.273  0.00  0.00    +0.022 A 
ATOM      9  C   UNL     1      23.839  14.322  -2.631  0.00  0.00    +0.081 A 
ATOM     10  N   UNL     1      23.974  15.590  -3.110  0.00  0.00    -0.214 NA
ATOM     11  C   UNL     1      25.180  16.123  -3.202  0.00  0.00    +0.215 A 
ATOM     12  N   UNL     1      25.301  17.368  -3.773  0.00  0.00    -0.327 N 
ATOM     13  H   UNL     1      24.432  17.878  -3.726  0.00  0.00    +0.145 HD
ATOM     14  H   UNL     1      26.153  17.827  -3.492  0.00  0.00    +0.145 HD
ATOM     15  N   UNL     1      26.281  15.535  -2.778  0.00  0.00    -0.198 NA
BRANCH   9  16
ATOM     16  C   UNL     1      22.378  13.933  -2.582  0.00  0.00    +0.001 A 
ATOM     17  C   UNL     1      21.499  14.226  -1.523  0.00  0.00    +0.010 A 
ATOM     18  C   UNL     1      20.146  13.848  -1.541  0.00  0.00    +0.001 A 
ATOM     19  C   UNL     1      19.606  13.215  -2.645  0.00  0.00    +0.000 A 
ATOM     20  C   UNL     1      20.424  12.953  -3.742  0.00  0.00    +0.001 A 
ATOM     21  C   UNL     1      21.782  13.296  -3.697  0.00  0.00    +0.010 A 
ENDBRANCH   9  16
BRANCH   8  22
ATOM     22  C   UNL     1      24.714  12.131  -1.718  0.00  0.00    +0.069 C 
BRANCH  22  23
ATOM     23  C   UNL     1      25.066  11.777  -0.286  0.00  0.00    +0.164 C 
BRANCH  23  24
ATOM     24  O   UNL     1      23.976  11.717   0.641  0.00  0.00    -0.380 OA
BRANCH  24  25
ATOM     25  C   UNL     1      22.832  11.267  -0.111  0.00  0.00    +0.156 C 
ATOM     26  C   UNL     1      21.882  10.463   0.745  0.00  0.00    +0.034 C 
ENDBRANCH  24  25
ENDBRANCH  23  24
ENDBRANCH  22  23
ENDBRANCH   8  22
ENDBRANCH   5   7
ENDBRANCH   1   3
BRANCH   1  27
ATOM     27  C   UNL     1      31.838  13.858  -1.168  0.00  0.00    +0.240 C 
BRANCH  27  28
ATOM     28  O   UNL     1      31.907  15.159  -0.632  0.00  0.00    -0.450 OA
BRANCH  28  29
ATOM     29  C   UNL     1      31.165  15.989   0.025  0.00  0.00    +0.400 C 
ATOM     30  N   UNL     1      31.197  15.860   1.394  0.00  0.00    -0.278 N 
ATOM     31  H   UNL     1      30.692  16.738   1.736  0.00  0.00    +0.152 HD
ATOM     32  O   UNL     1      30.472  16.881  -0.457  0.00  0.00    -0.226 OA
BRANCH  30  33
ATOM     33  C   UNL     1      31.590  15.075   2.561  0.00  0.00    +0.152 C 
BRANCH  33  34
ATOM     34  C   UNL     1      32.771  14.103   2.360  0.00  0.00    +0.193 C 
ATOM     35  O   UNL     1      33.767  14.452   3.346  0.00  0.00    -0.219 OA
BRANCH  34  36
ATOM     36  C   UNL     1      32.507  12.599   2.594  0.00  0.00    +0.212 C 
ATOM     37  O   UNL     1      33.699  11.837   2.348  0.00  0.00    -0.218 OA
BRANCH  36  38
ATOM     38  C   UNL     1      31.992  12.274   4.048  0.00  0.00    +0.171 C 
ATOM     39  O   UNL     1      32.946  11.551   4.818  0.00  0.00    -0.343 OA
ATOM     40  C   UNL     1      32.666  10.928   6.037  0.00  0.00    +0.220 C 
ATOM     41  C   UNL     1      31.419  10.031   5.946  0.00  0.00    +0.076 C 
ATOM     42  C   UNL     1      30.274  10.886   5.378  0.00  0.00    +0.177 C 
ATOM     43  O   UNL     1      29.084  10.114   5.311  0.00  0.00    -0.221 OA
ATOM     44  C   UNL     1      30.667  11.447   3.976  0.00  0.00    +0.155 C 
BRANCH  44  45
ATOM     45  N   UNL     1      29.579  12.254   3.430  0.00  0.00    -0.202 NA
ATOM     46  C   UNL     1      28.713  11.975   2.422  0.00  0.00    +0.242 C 
ATOM     47  C   UNL     1      27.501  12.856   2.257  0.00  0.00    +0.096 C 
ATOM     48  O   UNL     1      28.932  11.021   1.678  0.00  0.00    -0.273 OA
ENDBRANCH  44  45
BRANCH  40  49
ATOM     49  C   UNL     1      32.567  11.964   7.285  0.00  0.00    +0.391 C 
ATOM     50  O   UNL     1      32.009  11.252   8.284  0.00  0.00    -0.243 OA
ATOM     51  O   UNL     1      33.333  13.012   6.957  0.00  0.00    -0.243 OA
ENDBRANCH  40  49
ENDBRANCH  36  38
ENDBRANCH  34  36
ENDBRANCH  33  34
ENDBRANCH  30  33
ENDBRANCH  28  29
ENDBRANCH  27  28
ENDBRANCH   1  27
TORSDOF 16
