REMARK VINA RESULT:    -6.857      3.289      9.541
REMARK INTER + INTRA:         -13.535
REMARK INTER:                 -12.069
REMARK INTRA:                  -1.466
REMARK UNBOUND:                -1.466
REMARK  Name = lig_assembled_78.pdb
REMARK  13 active torsions:
REMARK  status: ('A' for Active; 'I' for Inactive)
REMARK    1  A    between atoms: _2  and  _8
REMARK    2  A    between atoms: _5  and  _6
REMARK    3  A    between atoms: _5  and  _16
REMARK    4  A    between atoms: _8  and  _44
REMARK    5  A    between atoms: _9  and  _44
REMARK    6  A    between atoms: _16  and  _18
REMARK    7  A    between atoms: _17  and  _22
REMARK    8  A    between atoms: _18  and  _21
REMARK    9  A    between atoms: _26  and  _36
REMARK   10  A    between atoms: _28  and  _29
REMARK   11  A    between atoms: _30  and  _32
REMARK   12  A    between atoms: _32  and  _34
REMARK   13  A    between atoms: _34  and  _36
REMARK                            x       y       z     vdW  Elec       q    Type
REMARK                         _______ _______ _______ _____ _____    ______ ____
ROOT
ATOM      1  C   UNL     1      27.896  17.711  -1.143  0.00  0.00    +0.400 C 
ATOM      2  N   UNL     1      27.142  17.592  -2.286  0.00  0.00    -0.278 N 
ATOM      3  H   UNL     1      26.229  18.087  -2.033  0.00  0.00    +0.152 HD
ATOM      4  O   UNL     1      27.481  18.445  -0.249  0.00  0.00    -0.226 OA
ENDROOT
BRANCH   2   5
ATOM      5  C   UNL     1      27.037  17.116  -3.663  0.00  0.00    +0.152 C 
BRANCH   5   6
ATOM      6  C   UNL     1      25.896  16.118  -3.952  0.00  0.00    +0.193 C 
ATOM      7  O   UNL     1      25.889  15.899  -5.380  0.00  0.00    -0.219 OA
BRANCH   6   8
ATOM      8  C   UNL     1      26.014  14.703  -3.346  0.00  0.00    +0.212 C 
ATOM      9  O   UNL     1      26.760  14.743  -2.118  0.00  0.00    -0.218 OA
BRANCH   8  10
ATOM     10  C   UNL     1      24.619  14.025  -3.066  0.00  0.00    +0.171 C 
ATOM     11  O   UNL     1      23.833  14.756  -2.130  0.00  0.00    -0.343 OA
ATOM     12  C   UNL     1      22.674  14.267  -1.522  0.00  0.00    +0.220 C 
ATOM     13  C   UNL     1      22.899  12.877  -0.901  0.00  0.00    +0.076 C 
ATOM     14  C   UNL     1      23.487  11.971  -1.995  0.00  0.00    +0.177 C 
ATOM     15  O   UNL     1      23.678  10.660  -1.483  0.00  0.00    -0.221 OA
ATOM     16  C   UNL     1      24.826  12.572  -2.527  0.00  0.00    +0.155 C 
BRANCH  16  17
ATOM     17  N   UNL     1      25.392  11.710  -3.562  0.00  0.00    -0.202 NA
ATOM     18  C   UNL     1      26.585  11.064  -3.596  0.00  0.00    +0.242 C 
ATOM     19  C   UNL     1      26.795  10.005  -4.648  0.00  0.00    +0.096 C 
ATOM     20  O   UNL     1      27.455  11.351  -2.777  0.00  0.00    -0.273 OA
ENDBRANCH  16  17
BRANCH  12  21
ATOM     21  C   UNL     1      21.376  14.282  -2.498  0.00  0.00    +0.391 C 
ATOM     22  O   UNL     1      20.321  14.114  -1.676  0.00  0.00    -0.243 OA
ATOM     23  O   UNL     1      21.805  14.748  -3.677  0.00  0.00    -0.243 OA
ENDBRANCH  12  21
ENDBRANCH   8  10
ENDBRANCH   6   8
ENDBRANCH   5   6
ENDBRANCH   2   5
BRANCH   1  24
ATOM     24  O   UNL     1      28.975  17.000  -1.107  0.00  0.00    -0.450 OA
BRANCH  24  25
ATOM     25  C   UNL     1      29.535  15.945  -0.359  0.00  0.00    +0.240 C 
BRANCH  25  26
ATOM     26  C   UNL     1      30.840  16.232   0.407  0.00  0.00    +0.100 C 
BRANCH  26  28
ATOM     27  N   UNL     1      32.250  14.195   0.485  0.00  0.00    -0.134 NA
ATOM     28  C   UNL     1      31.321  15.009   1.076  0.00  0.00    +0.086 A 
ATOM     29  C   UNL     1      30.981  14.484   2.303  0.00  0.00    +0.135 A 
ATOM     30  N   UNL     1      31.779  13.387   2.423  0.00  0.00    -0.230 N 
ATOM     31  N   UNL     1      32.506  13.190   1.310  0.00  0.00    -0.064 NA
BRANCH  30  32
ATOM     32  C   UNL     1      31.854  12.441   3.509  0.00  0.00    +0.316 C 
BRANCH  32  33
ATOM     33  S   UNL     1      33.346  12.564   4.459  0.00  0.00    +0.017 S 
ATOM     34  O   UNL     1      34.268  11.514   4.068  0.00  0.00    -0.168 OA
ATOM     35  O   UNL     1      33.762  13.956   4.461  0.00  0.00    -0.168 OA
BRANCH  33  36
ATOM     36  C   UNL     1      32.839  12.170   6.119  0.00  0.00    +0.090 A 
ATOM     37  C   UNL     1      33.804  11.781   7.054  0.00  0.00    +0.027 A 
ATOM     38  C   UNL     1      33.415  11.497   8.363  0.00  0.00    +0.002 A 
ATOM     39  C   UNL     1      32.075  11.619   8.735  0.00  0.00    +0.000 A 
ATOM     40  C   UNL     1      31.120  12.027   7.803  0.00  0.00    +0.002 A 
ATOM     41  C   UNL     1      31.499  12.304   6.490  0.00  0.00    +0.027 A 
ENDBRANCH  33  36
ENDBRANCH  32  33
ENDBRANCH  30  32
ENDBRANCH  26  28
ENDBRANCH  25  26
ENDBRANCH  24  25
ENDBRANCH   1  24
TORSDOF 13
