REMARK VINA RESULT:    -6.808     22.999     25.527
REMARK INTER + INTRA:         -12.810
REMARK INTER:                 -11.243
REMARK INTRA:                  -1.566
REMARK UNBOUND:                -1.624
REMARK  Name = lig_assembled_3.pdb
REMARK  11 active torsions:
REMARK  status: ('A' for Active; 'I' for Inactive)
REMARK    1  A    between atoms: _2  and  _8
REMARK    2  A    between atoms: _5  and  _6
REMARK    3  A    between atoms: _5  and  _13
REMARK    4  A    between atoms: _13  and  _15
REMARK    5  A    between atoms: _14  and  _19
REMARK    6  A    between atoms: _15  and  _18
REMARK    7  A    between atoms: _23  and  _33
REMARK    8  A    between atoms: _25  and  _26
REMARK    9  A    between atoms: _27  and  _29
REMARK   10  A    between atoms: _29  and  _31
REMARK   11  A    between atoms: _31  and  _33
REMARK                            x       y       z     vdW  Elec       q    Type
REMARK                         _______ _______ _______ _____ _____    ______ ____
ROOT
ATOM      1  C   UNL     1      34.364  40.236   6.681  0.00  0.00    +0.152 C 
ENDROOT
BRANCH   1   3
ATOM      2  C   UNL     1      32.332  40.613   4.900  0.00  0.00    +0.400 C 
ATOM      3  N   UNL     1      33.483  40.184   5.518  0.00  0.00    -0.278 N 
ATOM      4  H   UNL     1      33.918  39.523   4.799  0.00  0.00    +0.152 HD
ATOM      5  O   UNL     1      32.170  40.329   3.715  0.00  0.00    -0.226 OA
BRANCH   2   6
ATOM      6  O   UNL     1      31.502  41.259   5.650  0.00  0.00    -0.450 OA
BRANCH   6   7
ATOM      7  C   UNL     1      30.262  41.061   6.289  0.00  0.00    +0.240 C 
BRANCH   7   8
ATOM      8  C   UNL     1      29.131  40.419   5.463  0.00  0.00    +0.100 C 
BRANCH   8  10
ATOM      9  N   UNL     1      29.574  38.023   5.030  0.00  0.00    -0.134 NA
ATOM     10  C   UNL     1      28.998  38.989   5.802  0.00  0.00    +0.086 A 
ATOM     11  C   UNL     1      28.345  38.393   6.856  0.00  0.00    +0.139 A 
ATOM     12  N   UNL     1      28.574  37.044   6.701  0.00  0.00    -0.220 N 
ATOM     13  N   UNL     1      29.308  36.845   5.578  0.00  0.00    -0.061 NA
BRANCH  12  14
ATOM     14  C   UNL     1      28.169  35.972   7.537  0.00  0.00    +0.067 A 
ATOM     15  C   UNL     1      26.812  35.747   7.812  0.00  0.00    +0.028 A 
ATOM     16  C   UNL     1      26.436  34.703   8.662  0.00  0.00    +0.002 A 
ATOM     17  C   UNL     1      27.403  33.881   9.236  0.00  0.00    +0.000 A 
ATOM     18  C   UNL     1      28.752  34.094   8.959  0.00  0.00    +0.002 A 
ATOM     19  C   UNL     1      29.138  35.135   8.110  0.00  0.00    +0.028 A 
ENDBRANCH  12  14
ENDBRANCH   8  10
ENDBRANCH   7   8
ENDBRANCH   6   7
ENDBRANCH   2   6
ENDBRANCH   1   3
BRANCH   1  20
ATOM     20  C   UNL     1      35.877  40.153   6.392  0.00  0.00    +0.193 C 
ATOM     21  O   UNL     1      36.541  40.069   7.673  0.00  0.00    -0.219 OA
BRANCH  20  22
ATOM     22  C   UNL     1      36.390  38.924   5.611  0.00  0.00    +0.212 C 
ATOM     23  O   UNL     1      35.430  37.857   5.667  0.00  0.00    -0.218 OA
BRANCH  22  24
ATOM     24  C   UNL     1      36.710  39.234   4.099  0.00  0.00    +0.171 C 
ATOM     25  O   UNL     1      35.812  40.182   3.532  0.00  0.00    -0.343 OA
ATOM     26  C   UNL     1      35.711  40.454   2.166  0.00  0.00    +0.220 C 
ATOM     27  C   UNL     1      35.555  39.167   1.338  0.00  0.00    +0.076 C 
ATOM     28  C   UNL     1      36.704  38.223   1.727  0.00  0.00    +0.177 C 
ATOM     29  O   UNL     1      36.630  37.030   0.960  0.00  0.00    -0.221 OA
ATOM     30  C   UNL     1      36.654  37.918   3.257  0.00  0.00    +0.155 C 
BRANCH  30  31
ATOM     31  N   UNL     1      37.741  37.016   3.630  0.00  0.00    -0.202 NA
ATOM     32  C   UNL     1      39.083  37.215   3.598  0.00  0.00    +0.242 C 
ATOM     33  C   UNL     1      39.969  36.230   4.315  0.00  0.00    +0.096 C 
ATOM     34  O   UNL     1      39.540  38.184   2.995  0.00  0.00    -0.273 OA
ENDBRANCH  30  31
BRANCH  26  35
ATOM     35  C   UNL     1      36.918  41.384   1.601  0.00  0.00    +0.391 C 
ATOM     36  O   UNL     1      36.784  41.352   0.261  0.00  0.00    -0.243 OA
ATOM     37  O   UNL     1      37.390  42.059   2.656  0.00  0.00    -0.243 OA
ENDBRANCH  26  35
ENDBRANCH  22  24
ENDBRANCH  20  22
ENDBRANCH   1  20
TORSDOF 11
