REMARK VINA RESULT:    -7.065      1.190      3.651
REMARK INTER + INTRA:         -13.973
REMARK INTER:                 -12.863
REMARK INTRA:                  -1.109
REMARK UNBOUND:                -1.952
REMARK  Name = lig_assembled_44.pdb
REMARK  12 active torsions:
REMARK  status: ('A' for Active; 'I' for Inactive)
REMARK    1  A    between atoms: _2  and  _8
REMARK    2  A    between atoms: _5  and  _6
REMARK    3  A    between atoms: _5  and  _14
REMARK    4  A    between atoms: _8  and  _9
REMARK    5  A    between atoms: _14  and  _16
REMARK    6  A    between atoms: _15  and  _20
REMARK    7  A    between atoms: _16  and  _19
REMARK    8  A    between atoms: _24  and  _34
REMARK    9  A    between atoms: _26  and  _27
REMARK   10  A    between atoms: _28  and  _30
REMARK   11  A    between atoms: _30  and  _32
REMARK   12  A    between atoms: _32  and  _34
REMARK                            x       y       z     vdW  Elec       q    Type
REMARK                         _______ _______ _______ _____ _____    ______ ____
ROOT
ATOM      1  C   UNL     1      27.907  17.375  -0.784  0.00  0.00    +0.400 C 
ATOM      2  N   UNL     1      28.572  16.459  -0.003  0.00  0.00    -0.278 N 
ATOM      3  H   UNL     1      28.710  16.977   0.922  0.00  0.00    +0.152 HD
ATOM      4  O   UNL     1      27.491  18.399  -0.249  0.00  0.00    -0.226 OA
ENDROOT
BRANCH   2   5
ATOM      5  C   UNL     1      29.147  15.124   0.131  0.00  0.00    +0.152 C 
BRANCH   5   6
ATOM      6  C   UNL     1      30.462  14.870  -0.634  0.00  0.00    +0.193 C 
ATOM      7  O   UNL     1      31.318  16.005  -0.377  0.00  0.00    -0.219 OA
BRANCH   6   8
ATOM      8  C   UNL     1      31.308  13.647  -0.217  0.00  0.00    +0.212 C 
ATOM      9  O   UNL     1      30.538  12.440  -0.335  0.00  0.00    -0.218 OA
BRANCH   8  10
ATOM     10  C   UNL     1      32.630  13.485  -1.060  0.00  0.00    +0.171 C 
ATOM     11  O   UNL     1      32.425  12.759  -2.267  0.00  0.00    -0.343 OA
ATOM     12  C   UNL     1      33.452  12.265  -3.074  0.00  0.00    +0.220 C 
ATOM     13  C   UNL     1      34.479  11.459  -2.260  0.00  0.00    +0.076 C 
ATOM     14  C   UNL     1      34.943  12.347  -1.093  0.00  0.00    +0.177 C 
ATOM     15  O   UNL     1      35.926  11.663  -0.329  0.00  0.00    -0.221 OA
ATOM     16  C   UNL     1      33.723  12.756  -0.211  0.00  0.00    +0.155 C 
BRANCH  16  17
ATOM     17  N   UNL     1      34.160  13.594   0.903  0.00  0.00    -0.202 NA
ATOM     18  C   UNL     1      34.136  13.346   2.237  0.00  0.00    +0.242 C 
ATOM     19  C   UNL     1      34.918  14.255   3.148  0.00  0.00    +0.096 C 
ATOM     20  O   UNL     1      33.484  12.395   2.666  0.00  0.00    -0.273 OA
ENDBRANCH  16  17
BRANCH  12  21
ATOM     21  C   UNL     1      34.171  13.406  -3.980  0.00  0.00    +0.391 C 
ATOM     22  O   UNL     1      35.376  12.893  -4.293  0.00  0.00    -0.243 OA
ATOM     23  O   UNL     1      33.206  14.270  -4.319  0.00  0.00    -0.243 OA
ENDBRANCH  12  21
ENDBRANCH   8  10
ENDBRANCH   6   8
ENDBRANCH   5   6
ENDBRANCH   2   5
BRANCH   1  24
ATOM     24  O   UNL     1      27.810  17.076  -2.038  0.00  0.00    -0.450 OA
BRANCH  24  25
ATOM     25  C   UNL     1      26.933  17.281  -3.121  0.00  0.00    +0.240 C 
BRANCH  25  26
ATOM     26  C   UNL     1      26.714  16.105  -4.091  0.00  0.00    +0.100 C 
BRANCH  26  28
ATOM     27  N   UNL     1      24.920  14.511  -4.710  0.00  0.00    -0.134 NA
ATOM     28  C   UNL     1      25.346  15.570  -3.952  0.00  0.00    +0.086 A 
ATOM     29  C   UNL     1      24.329  15.962  -3.114  0.00  0.00    +0.134 A 
ATOM     30  N   UNL     1      23.340  15.054  -3.352  0.00  0.00    -0.247 N 
ATOM     31  N   UNL     1      23.682  14.209  -4.341  0.00  0.00    -0.065 NA
BRANCH  30  32
ATOM     32  C   UNL     1      22.056  14.930  -2.688  0.00  0.00    +0.180 C 
BRANCH  32  33
ATOM     33  C   UNL     1      22.088  13.857  -1.623  0.00  0.00    -0.026 A 
ATOM     34  C   UNL     1      20.911  13.466  -0.967  0.00  0.00    +0.006 A 
ATOM     35  C   UNL     1      20.945  12.485   0.026  0.00  0.00    +0.015 A 
ATOM     36  C   UNL     1      22.158  11.890   0.369  0.00  0.00    +0.018 A 
ATOM     37 BR   UNL     1      22.201  10.550   1.701  0.00  0.00    -0.050 Br
ATOM     38  C   UNL     1      23.337  12.274  -0.263  0.00  0.00    +0.015 A 
ATOM     39  C   UNL     1      23.303  13.260  -1.254  0.00  0.00    +0.006 A 
ENDBRANCH  32  33
ENDBRANCH  30  32
ENDBRANCH  26  28
ENDBRANCH  25  26
ENDBRANCH  24  25
ENDBRANCH   1  24
TORSDOF 12
