REMARK VINA RESULT:    -6.684      1.757      2.351
REMARK INTER + INTRA:         -13.473
REMARK INTER:                 -11.568
REMARK INTRA:                  -1.904
REMARK UNBOUND:                -1.904
REMARK  Name = lig_assembled_73.pdb
REMARK  13 active torsions:
REMARK  status: ('A' for Active; 'I' for Inactive)
REMARK    1  A    between atoms: _2  and  _9
REMARK    2  A    between atoms: _3  and  _13
REMARK    3  A    between atoms: _6  and  _7
REMARK    4  A    between atoms: _6  and  _17
REMARK    5  A    between atoms: _12  and  _15
REMARK    6  A    between atoms: _17  and  _19
REMARK    7  A    between atoms: _18  and  _23
REMARK    8  A    between atoms: _19  and  _22
REMARK    9  A    between atoms: _27  and  _37
REMARK   10  A    between atoms: _29  and  _30
REMARK   11  A    between atoms: _31  and  _33
REMARK   12  A    between atoms: _33  and  _35
REMARK   13  A    between atoms: _35  and  _37
REMARK                            x       y       z     vdW  Elec       q    Type
REMARK                         _______ _______ _______ _____ _____    ______ ____
ROOT
ATOM      1  C   UNL     1      26.470  16.545  -3.523  0.00  0.00    +0.400 C 
ATOM      2  N   UNL     1      26.856  15.954  -2.344  0.00  0.00    -0.278 N 
ATOM      3  H   UNL     1      26.850  16.764  -1.647  0.00  0.00    +0.152 HD
ATOM      4  O   UNL     1      26.060  17.703  -3.484  0.00  0.00    -0.226 OA
ENDROOT
BRANCH   2   5
ATOM      5  C   UNL     1      27.248  14.741  -1.630  0.00  0.00    +0.152 C 
BRANCH   5   6
ATOM      6  C   UNL     1      28.552  14.826  -0.810  0.00  0.00    +0.193 C 
ATOM      7  O   UNL     1      28.880  16.228  -0.696  0.00  0.00    -0.219 OA
BRANCH   6   8
ATOM      8  C   UNL     1      28.513  14.320   0.649  0.00  0.00    +0.212 C 
ATOM      9  O   UNL     1      27.452  13.366   0.822  0.00  0.00    -0.218 OA
BRANCH   8  10
ATOM     10  C   UNL     1      29.866  13.659   1.116  0.00  0.00    +0.171 C 
ATOM     11  O   UNL     1      30.743  14.589   1.743  0.00  0.00    -0.343 OA
ATOM     12  C   UNL     1      32.086  14.336   2.030  0.00  0.00    +0.220 C 
ATOM     13  C   UNL     1      32.840  13.798   0.802  0.00  0.00    +0.076 C 
ATOM     14  C   UNL     1      32.053  12.589   0.269  0.00  0.00    +0.177 C 
ATOM     15  O   UNL     1      32.730  12.027  -0.847  0.00  0.00    -0.221 OA
ATOM     16  C   UNL     1      30.600  13.017  -0.107  0.00  0.00    +0.155 C 
BRANCH  16  17
ATOM     17  N   UNL     1      29.851  11.872  -0.620  0.00  0.00    -0.202 NA
ATOM     18  C   UNL     1      29.600  11.504  -1.902  0.00  0.00    +0.242 C 
ATOM     19  C   UNL     1      29.056  10.122  -2.156  0.00  0.00    +0.096 C 
ATOM     20  O   UNL     1      29.821  12.296  -2.816  0.00  0.00    -0.273 OA
ENDBRANCH  16  17
BRANCH  12  21
ATOM     21  C   UNL     1      32.302  13.383   3.328  0.00  0.00    +0.391 C 
ATOM     22  O   UNL     1      31.060  13.124   3.780  0.00  0.00    -0.243 OA
ATOM     23  O   UNL     1      33.577  12.976   3.280  0.00  0.00    -0.243 OA
ENDBRANCH  12  21
ENDBRANCH   8  10
ENDBRANCH   6   8
ENDBRANCH   5   6
ENDBRANCH   2   5
BRANCH   1  24
ATOM     24  O   UNL     1      26.608  15.820  -4.585  0.00  0.00    -0.450 OA
BRANCH  24  25
ATOM     25  C   UNL     1      26.095  14.632  -5.141  0.00  0.00    +0.240 C 
BRANCH  25  26
ATOM     26  C   UNL     1      24.577  14.564  -5.395  0.00  0.00    +0.100 C 
BRANCH  26  28
ATOM     27  N   UNL     1      22.914  15.212  -3.681  0.00  0.00    -0.134 NA
ATOM     28  C   UNL     1      23.856  14.333  -4.129  0.00  0.00    +0.086 A 
ATOM     29  C   UNL     1      23.964  13.296  -3.231  0.00  0.00    +0.139 A 
ATOM     30  N   UNL     1      23.053  13.585  -2.243  0.00  0.00    -0.220 N 
ATOM     31  N   UNL     1      22.431  14.751  -2.535  0.00  0.00    -0.061 NA
BRANCH  30  32
ATOM     32  C   UNL     1      22.750  12.846  -1.069  0.00  0.00    +0.074 A 
ATOM     33  C   UNL     1      21.422  12.784  -0.609  0.00  0.00    +0.032 A 
ATOM     34  C   UNL     1      21.100  12.069   0.552  0.00  0.00    +0.054 A 
ATOM     35  C   UNL     1      22.101  11.413   1.267  0.00  0.00    +0.195 A 
ATOM     36  C   UNL     1      23.414  11.478   0.806  0.00  0.00    +0.316 A 
ATOM     37  C   UNL     1      23.757  12.181  -0.359  0.00  0.00    +0.116 A 
BRANCH  36  38
ATOM     38  N   UNL     1      24.480  10.815   1.532  0.00  0.00    +0.083 N 
ATOM     39  O   UNL     1      24.742   9.646   1.223  0.00  0.00    +0.042 OA
ATOM     40  O   UNL     1      24.985  11.445   2.473  0.00  0.00    -0.576 OA
ENDBRANCH  36  38
BRANCH  35  41
ATOM     41  O   UNL     1      21.784  10.700   2.384  0.00  0.00    -0.501 OA
ATOM     42  H   UNL     1      21.314  11.268   3.020  0.00  0.00    +0.292 HD
ENDBRANCH  35  41
ENDBRANCH  30  32
ENDBRANCH  26  28
ENDBRANCH  25  26
ENDBRANCH  24  25
ENDBRANCH   1  24
TORSDOF 13
