REMARK VINA RESULT:    -6.292      1.891      2.063
REMARK INTER + INTRA:         -13.393
REMARK INTER:                 -11.609
REMARK INTRA:                  -1.784
REMARK UNBOUND:                -1.953
REMARK  Name = lig_assembled_13.pdb
REMARK  15 active torsions:
REMARK  status: ('A' for Active; 'I' for Inactive)
REMARK    1  A    between atoms: _2  and  _8
REMARK    2  A    between atoms: _4  and  _10
REMARK    3  A    between atoms: _5  and  _6
REMARK    4  A    between atoms: _5  and  _13
REMARK    5  A    between atoms: _8  and  _9
REMARK    6  A    between atoms: _9  and  _11
REMARK    7  A    between atoms: _10  and  _11
REMARK    8  A    between atoms: _13  and  _15
REMARK    9  A    between atoms: _14  and  _19
REMARK   10  A    between atoms: _15  and  _18
REMARK   11  A    between atoms: _23  and  _33
REMARK   12  A    between atoms: _25  and  _26
REMARK   13  A    between atoms: _27  and  _29
REMARK   14  A    between atoms: _29  and  _31
REMARK   15  A    between atoms: _31  and  _33
REMARK                            x       y       z     vdW  Elec       q    Type
REMARK                         _______ _______ _______ _____ _____    ______ ____
ROOT
ATOM      1  C   UNL     1      28.336  14.791  -0.065  0.00  0.00    +0.152 C 
ENDROOT
BRANCH   1   3
ATOM      2  C   UNL     1      27.960  17.332  -0.986  0.00  0.00    +0.400 C 
ATOM      3  N   UNL     1      28.261  16.243  -0.201  0.00  0.00    -0.278 N 
ATOM      4  H   UNL     1      28.564  16.682   0.725  0.00  0.00    +0.152 HD
ATOM      5  O   UNL     1      27.922  18.438  -0.451  0.00  0.00    -0.226 OA
BRANCH   2   6
ATOM      6  O   UNL     1      27.774  17.084  -2.240  0.00  0.00    -0.450 OA
BRANCH   6   7
ATOM      7  C   UNL     1      26.857  17.389  -3.265  0.00  0.00    +0.240 C 
BRANCH   7   8
ATOM      8  C   UNL     1      26.439  16.246  -4.209  0.00  0.00    +0.100 C 
BRANCH   8  10
ATOM      9  N   UNL     1      24.472  15.736  -2.796  0.00  0.00    -0.134 NA
ATOM     10  C   UNL     1      25.555  15.298  -3.509  0.00  0.00    +0.086 A 
ATOM     11  C   UNL     1      25.627  13.929  -3.422  0.00  0.00    +0.134 A 
ATOM     12  N   UNL     1      24.599  13.598  -2.588  0.00  0.00    -0.241 N 
ATOM     13  N   UNL     1      23.880  14.681  -2.252  0.00  0.00    -0.065 NA
BRANCH  12  14
ATOM     14  C   UNL     1      24.183  12.283  -2.154  0.00  0.00    +0.265 C 
BRANCH  14  15
ATOM     15  C   UNL     1      24.339  12.105  -0.670  0.00  0.00    +0.329 C 
ATOM     16  O   UNL     1      25.204  12.603   0.035  0.00  0.00    -0.249 OA
BRANCH  15  17
ATOM     17  O   UNL     1      23.412  11.200  -0.233  0.00  0.00    -0.464 OA
BRANCH  17  18
ATOM     18  C   UNL     1      22.665  11.610   0.923  0.00  0.00    +0.229 C 
ATOM     19  C   UNL     1      21.287  12.045   0.455  0.00  0.00    +0.048 C 
ENDBRANCH  17  18
ENDBRANCH  15  17
ENDBRANCH  14  15
ENDBRANCH  12  14
ENDBRANCH   8  10
ENDBRANCH   7   8
ENDBRANCH   6   7
ENDBRANCH   2   6
ENDBRANCH   1   3
BRANCH   1  20
ATOM     20  C   UNL     1      29.452  14.252   0.854  0.00  0.00    +0.193 C 
ATOM     21  O   UNL     1      29.536  12.830   0.614  0.00  0.00    -0.219 OA
BRANCH  20  22
ATOM     22  C   UNL     1      30.887  14.769   0.615  0.00  0.00    +0.212 C 
ATOM     23  O   UNL     1      30.988  16.156   0.978  0.00  0.00    -0.218 OA
BRANCH  22  24
ATOM     24  C   UNL     1      31.983  13.960   1.409  0.00  0.00    +0.171 C 
ATOM     25  O   UNL     1      32.312  14.563   2.656  0.00  0.00    -0.343 OA
ATOM     26  C   UNL     1      33.409  14.200   3.442  0.00  0.00    +0.220 C 
ATOM     27  C   UNL     1      34.711  14.169   2.623  0.00  0.00    +0.076 C 
ATOM     28  C   UNL     1      34.467  13.271   1.399  0.00  0.00    +0.177 C 
ATOM     29  O   UNL     1      35.655  13.175   0.627  0.00  0.00    -0.221 OA
ATOM     30  C   UNL     1      33.283  13.830   0.550  0.00  0.00    +0.155 C 
BRANCH  30  31
ATOM     31  N   UNL     1      33.052  12.984  -0.618  0.00  0.00    -0.202 NA
ATOM     32  C   UNL     1      33.098  13.296  -1.938  0.00  0.00    +0.242 C 
ATOM     33  C   UNL     1      33.110  12.170  -2.939  0.00  0.00    +0.096 C 
ATOM     34  O   UNL     1      33.130  14.475  -2.283  0.00  0.00    -0.273 OA
ENDBRANCH  30  31
BRANCH  26  35
ATOM     35  C   UNL     1      33.187  12.817   4.264  0.00  0.00    +0.391 C 
ATOM     36  O   UNL     1      34.409  12.485   4.723  0.00  0.00    -0.243 OA
ATOM     37  O   UNL     1      31.864  12.694   4.430  0.00  0.00    -0.243 OA
ENDBRANCH  26  35
ENDBRANCH  22  24
ENDBRANCH  20  22
ENDBRANCH   1  20
TORSDOF 14
