REMARK VINA RESULT:    -6.616      2.227      3.536
REMARK INTER + INTRA:         -13.962
REMARK INTER:                 -12.540
REMARK INTRA:                  -1.422
REMARK UNBOUND:                -1.931
REMARK  Name = lig_assembled_55.pdb
REMARK  15 active torsions:
REMARK  status: ('A' for Active; 'I' for Inactive)
REMARK    1  A    between atoms: _2  and  _9
REMARK    2  A    between atoms: _3  and  _10
REMARK    3  A    between atoms: _3  and  _41
REMARK    4  A    between atoms: _5  and  _41
REMARK    5  A    between atoms: _6  and  _7
REMARK    6  A    between atoms: _6  and  _13
REMARK    7  A    between atoms: _9  and  _10
REMARK    8  A    between atoms: _13  and  _15
REMARK    9  A    between atoms: _14  and  _19
REMARK   10  A    between atoms: _15  and  _18
REMARK   11  A    between atoms: _23  and  _33
REMARK   12  A    between atoms: _25  and  _26
REMARK   13  A    between atoms: _27  and  _29
REMARK   14  A    between atoms: _29  and  _31
REMARK   15  A    between atoms: _31  and  _33
REMARK                            x       y       z     vdW  Elec       q    Type
REMARK                         _______ _______ _______ _____ _____    ______ ____
ROOT
ATOM      1  C   UNL     1      28.927  17.093  -0.485  0.00  0.00    +0.400 C 
ATOM      2  N   UNL     1      29.261  16.025   0.314  0.00  0.00    -0.278 N 
ATOM      3  H   UNL     1      30.003  16.429   0.969  0.00  0.00    +0.152 HD
ATOM      4  O   UNL     1      29.361  18.202  -0.182  0.00  0.00    -0.226 OA
ENDROOT
BRANCH   2   5
ATOM      5  C   UNL     1      29.051  14.624   0.670  0.00  0.00    +0.152 C 
BRANCH   5   6
ATOM      6  C   UNL     1      30.323  13.792   0.934  0.00  0.00    +0.193 C 
ATOM      7  O   UNL     1      30.644  13.121  -0.305  0.00  0.00    -0.219 OA
BRANCH   6   8
ATOM      8  C   UNL     1      31.613  14.556   1.304  0.00  0.00    +0.212 C 
ATOM      9  O   UNL     1      31.306  15.685   2.138  0.00  0.00    -0.218 OA
BRANCH   8  10
ATOM     10  C   UNL     1      32.679  13.660   2.042  0.00  0.00    +0.171 C 
ATOM     11  O   UNL     1      32.914  14.080   3.382  0.00  0.00    -0.343 OA
ATOM     12  C   UNL     1      33.970  13.626   4.177  0.00  0.00    +0.220 C 
ATOM     13  C   UNL     1      35.321  13.739   3.449  0.00  0.00    +0.076 C 
ATOM     14  C   UNL     1      35.178  13.027   2.094  0.00  0.00    +0.177 C 
ATOM     15  O   UNL     1      36.414  13.067   1.395  0.00  0.00    -0.221 OA
ATOM     16  C   UNL     1      34.033  13.682   1.260  0.00  0.00    +0.155 C 
BRANCH  16  17
ATOM     17  N   UNL     1      33.899  13.013  -0.031  0.00  0.00    -0.202 NA
ATOM     18  C   UNL     1      33.937  13.530  -1.285  0.00  0.00    +0.242 C 
ATOM     19  C   UNL     1      34.068  12.579  -2.447  0.00  0.00    +0.096 C 
ATOM     20  O   UNL     1      33.868  14.747  -1.443  0.00  0.00    -0.273 OA
ENDBRANCH  16  17
BRANCH  12  21
ATOM     21  C   UNL     1      33.736  12.133   4.773  0.00  0.00    +0.391 C 
ATOM     22  O   UNL     1      34.943  11.751   5.235  0.00  0.00    -0.243 OA
ATOM     23  O   UNL     1      32.410  11.972   4.856  0.00  0.00    -0.243 OA
ENDBRANCH  12  21
ENDBRANCH   8  10
ENDBRANCH   6   8
ENDBRANCH   5   6
ENDBRANCH   2   5
BRANCH   1  24
ATOM     24  O   UNL     1      28.199  16.815  -1.516  0.00  0.00    -0.450 OA
BRANCH  24  25
ATOM     25  C   UNL     1      27.114  17.354  -2.236  0.00  0.00    +0.240 C 
BRANCH  25  26
ATOM     26  C   UNL     1      27.081  17.115  -3.757  0.00  0.00    +0.100 C 
BRANCH  26  28
ATOM     27  N   UNL     1      25.972  15.531  -5.299  0.00  0.00    -0.134 NA
ATOM     28  C   UNL     1      25.967  16.217  -4.113  0.00  0.00    +0.086 A 
ATOM     29  C   UNL     1      24.818  15.907  -3.418  0.00  0.00    +0.133 A 
ATOM     30  N   UNL     1      24.157  15.046  -4.243  0.00  0.00    -0.250 N 
ATOM     31  N   UNL     1      24.855  14.821  -5.370  0.00  0.00    -0.065 NA
BRANCH  30  32
ATOM     32  C   UNL     1      22.890  14.385  -4.016  0.00  0.00    +0.162 C 
BRANCH  32  33
ATOM     33  C   UNL     1      21.967  15.134  -3.048  0.00  0.00    +0.129 C 
BRANCH  33  34
ATOM     34  N   UNL     1      21.895  14.517  -1.691  0.00  0.00    -0.193 NA
ATOM     35  H   UNL     1      22.061  15.225  -0.966  0.00  0.00    +0.148 HD
BRANCH  34  36
ATOM     36  S   UNL     1      20.540  13.563  -1.380  0.00  0.00    +0.027 S 
ATOM     37  O   UNL     1      20.056  13.941  -0.071  0.00  0.00    -0.158 OA
ATOM     38  O   UNL     1      19.686  13.624  -2.544  0.00  0.00    -0.158 OA
ATOM     39  C   UNL     1      21.265  11.944  -1.262  0.00  0.00    +0.214 C 
ENDBRANCH  34  36
ENDBRANCH  33  34
ENDBRANCH  32  33
ENDBRANCH  30  32
ENDBRANCH  26  28
ENDBRANCH  25  26
ENDBRANCH  24  25
ENDBRANCH   1  24
TORSDOF 14
