REMARK VINA RESULT:    -7.938      1.837      3.809
REMARK INTER + INTRA:         -14.805
REMARK INTER:                 -13.317
REMARK INTRA:                  -1.488
REMARK UNBOUND:                -1.762
REMARK  Name = lig_assembled_25.pdb
REMARK  11 active torsions:
REMARK  status: ('A' for Active; 'I' for Inactive)
REMARK    1  A    between atoms: _2  and  _8
REMARK    2  A    between atoms: _5  and  _6
REMARK    3  A    between atoms: _5  and  _20
REMARK    4  A    between atoms: _20  and  _22
REMARK    5  A    between atoms: _21  and  _26
REMARK    6  A    between atoms: _22  and  _25
REMARK    7  A    between atoms: _30  and  _40
REMARK    8  A    between atoms: _32  and  _33
REMARK    9  A    between atoms: _34  and  _36
REMARK   10  A    between atoms: _36  and  _38
REMARK   11  A    between atoms: _38  and  _40
REMARK                            x       y       z     vdW  Elec       q    Type
REMARK                         _______ _______ _______ _____ _____    ______ ____
ROOT
ATOM      1  C   UNL     1      28.130  16.934  -0.557  0.00  0.00    +0.400 C 
ATOM      2  N   UNL     1      28.606  15.929   0.252  0.00  0.00    -0.278 N 
ATOM      3  H   UNL     1      29.150  16.456   1.006  0.00  0.00    +0.152 HD
ATOM      4  O   UNL     1      28.254  18.095  -0.173  0.00  0.00    -0.226 OA
ENDROOT
BRANCH   1   5
ATOM      5  O   UNL     1      27.614  16.553  -1.679  0.00  0.00    -0.450 OA
BRANCH   5   6
ATOM      6  C   UNL     1      27.277  17.090  -2.937  0.00  0.00    +0.240 C 
BRANCH   6   7
ATOM      7  C   UNL     1      25.781  17.186  -3.291  0.00  0.00    +0.100 C 
BRANCH   7   9
ATOM      8  N   UNL     1      25.772  14.807  -3.955  0.00  0.00    -0.134 NA
ATOM      9  C   UNL     1      25.167  15.845  -3.300  0.00  0.00    +0.086 A 
ATOM     10  C   UNL     1      23.988  15.402  -2.742  0.00  0.00    +0.134 A 
ATOM     11  N   UNL     1      23.920  14.086  -3.108  0.00  0.00    -0.240 N 
ATOM     12  N   UNL     1      25.006  13.733  -3.830  0.00  0.00    -0.065 NA
BRANCH  11  13
ATOM     13  C   UNL     1      22.857  13.115  -2.905  0.00  0.00    +0.170 C 
ATOM     14  C   UNL     1      21.474  13.709  -3.133  0.00  0.00    -0.011 A 
ATOM     15  C   UNL     1      20.672  13.515  -1.987  0.00  0.00    -0.012 A 
ATOM     16  C   UNL     1      21.452  12.831  -0.976  0.00  0.00    -0.012 A 
ATOM     17  C   UNL     1      21.094  12.393   0.289  0.00  0.00    +0.009 A 
ATOM     18  C   UNL     1      22.051  11.721   1.055  0.00  0.00    +0.001 A 
ATOM     19  C   UNL     1      23.346  11.498   0.557  0.00  0.00    +0.000 A 
ATOM     20  C   UNL     1      23.710  11.939  -0.717  0.00  0.00    +0.006 A 
ATOM     21  C   UNL     1      19.358  13.954  -1.968  0.00  0.00    +0.009 A 
ATOM     22  C   UNL     1      18.852  14.587  -3.107  0.00  0.00    +0.001 A 
ATOM     23  C   UNL     1      19.653  14.775  -4.245  0.00  0.00    +0.000 A 
ATOM     24  C   UNL     1      20.976  14.332  -4.268  0.00  0.00    +0.006 A 
ATOM     25  C   UNL     1      22.756  12.605  -1.473  0.00  0.00    -0.011 A 
ENDBRANCH  11  13
ENDBRANCH   7   9
ENDBRANCH   6   7
ENDBRANCH   5   6
ENDBRANCH   1   5
BRANCH   2  26
ATOM     26  C   UNL     1      28.688  14.501   0.544  0.00  0.00    +0.152 C 
BRANCH  26  27
ATOM     27  C   UNL     1      30.050  13.829   0.274  0.00  0.00    +0.193 C 
ATOM     28  O   UNL     1      30.620  14.493  -0.875  0.00  0.00    -0.219 OA
BRANCH  27  29
ATOM     29  C   UNL     1      31.135  13.949   1.367  0.00  0.00    +0.212 C 
ATOM     30  O   UNL     1      30.970  15.170   2.106  0.00  0.00    -0.218 OA
BRANCH  29  31
ATOM     31  C   UNL     1      31.136  12.743   2.381  0.00  0.00    +0.171 C 
ATOM     32  O   UNL     1      29.837  12.451   2.887  0.00  0.00    -0.343 OA
ATOM     33  C   UNL     1      29.585  11.605   3.969  0.00  0.00    +0.220 C 
ATOM     34  C   UNL     1      30.448  11.967   5.190  0.00  0.00    +0.076 C 
ATOM     35  C   UNL     1      31.914  12.004   4.725  0.00  0.00    +0.177 C 
ATOM     36  O   UNL     1      32.761  12.296   5.827  0.00  0.00    -0.221 OA
ATOM     37  C   UNL     1      32.089  13.051   3.582  0.00  0.00    +0.155 C 
BRANCH  37  38
ATOM     38  N   UNL     1      33.481  13.094   3.143  0.00  0.00    -0.202 NA
ATOM     39  C   UNL     1      34.487  13.922   3.525  0.00  0.00    +0.242 C 
ATOM     40  C   UNL     1      35.897  13.561   3.136  0.00  0.00    +0.096 C 
ATOM     41  O   UNL     1      34.228  14.933   4.175  0.00  0.00    -0.273 OA
ENDBRANCH  37  38
BRANCH  33  42
ATOM     42  C   UNL     1      29.705  10.027   3.600  0.00  0.00    +0.391 C 
ATOM     43  O   UNL     1      29.762   9.989   2.255  0.00  0.00    -0.243 OA
ATOM     44  O   UNL     1      30.002   9.401   4.745  0.00  0.00    -0.243 OA
ENDBRANCH  33  42
ENDBRANCH  29  31
ENDBRANCH  27  29
ENDBRANCH  26  27
ENDBRANCH   2  26
TORSDOF 11
