REMARK VINA RESULT:    -6.266      3.224      8.541
REMARK INTER + INTRA:         -12.805
REMARK INTER:                 -10.913
REMARK INTRA:                  -1.892
REMARK UNBOUND:                -2.144
REMARK  Name = lig_assembled_63.pdb
REMARK  12 active torsions:
REMARK  status: ('A' for Active; 'I' for Inactive)
REMARK    1  A    between atoms: _2  and  _10
REMARK    2  A    between atoms: _6  and  _14
REMARK    3  A    between atoms: _7  and  _8
REMARK    4  A    between atoms: _7  and  _15
REMARK    5  A    between atoms: _15  and  _17
REMARK    6  A    between atoms: _16  and  _21
REMARK    7  A    between atoms: _17  and  _20
REMARK    8  A    between atoms: _25  and  _35
REMARK    9  A    between atoms: _27  and  _28
REMARK   10  A    between atoms: _29  and  _31
REMARK   11  A    between atoms: _31  and  _33
REMARK   12  A    between atoms: _33  and  _35
REMARK                            x       y       z     vdW  Elec       q    Type
REMARK                         _______ _______ _______ _____ _____    ______ ____
ROOT
ATOM      1  C   UNL     1      25.699  15.930  -4.230  0.00  0.00    +0.400 C 
ATOM      2  N   UNL     1      24.370  15.578  -4.183  0.00  0.00    -0.278 N 
ATOM      3  H   UNL     1      24.126  15.398  -5.207  0.00  0.00    +0.152 HD
ATOM      4  O   UNL     1      26.298  15.788  -5.293  0.00  0.00    -0.226 OA
ENDROOT
BRANCH   2   5
ATOM      5  C   UNL     1      23.176  15.331  -3.378  0.00  0.00    +0.152 C 
BRANCH   5   6
ATOM      6  C   UNL     1      23.347  14.369  -2.185  0.00  0.00    +0.193 C 
ATOM      7  O   UNL     1      22.077  14.328  -1.499  0.00  0.00    -0.219 OA
BRANCH   6   8
ATOM      8  C   UNL     1      23.664  12.890  -2.499  0.00  0.00    +0.212 C 
ATOM      9  O   UNL     1      23.978  12.729  -3.892  0.00  0.00    -0.218 OA
BRANCH   8  10
ATOM     10  C   UNL     1      24.854  12.311  -1.643  0.00  0.00    +0.171 C 
ATOM     11  O   UNL     1      25.913  11.805  -2.449  0.00  0.00    -0.343 OA
ATOM     12  C   UNL     1      26.967  11.025  -1.968  0.00  0.00    +0.220 C 
ATOM     13  C   UNL     1      26.461   9.837  -1.131  0.00  0.00    +0.076 C 
ATOM     14  C   UNL     1      25.525  10.399  -0.048  0.00  0.00    +0.177 C 
ATOM     15  O   UNL     1      25.059   9.344   0.781  0.00  0.00    -0.221 OA
ATOM     16  C   UNL     1      24.338  11.166  -0.710  0.00  0.00    +0.155 C 
BRANCH  16  17
ATOM     17  N   UNL     1      23.442  11.696   0.315  0.00  0.00    -0.202 NA
ATOM     18  C   UNL     1      22.123  11.455   0.522  0.00  0.00    +0.242 C 
ATOM     19  C   UNL     1      21.511  11.900   1.826  0.00  0.00    +0.096 C 
ATOM     20  O   UNL     1      21.465  10.885  -0.346  0.00  0.00    -0.273 OA
ENDBRANCH  16  17
BRANCH  12  21
ATOM     21  C   UNL     1      28.094  11.881  -1.169  0.00  0.00    +0.391 C 
ATOM     22  O   UNL     1      28.468  11.091  -0.144  0.00  0.00    -0.243 OA
ATOM     23  O   UNL     1      28.436  12.889  -1.981  0.00  0.00    -0.243 OA
ENDBRANCH  12  21
ENDBRANCH   8  10
ENDBRANCH   6   8
ENDBRANCH   5   6
ENDBRANCH   2   5
BRANCH   1  24
ATOM     24  O   UNL     1      26.189  16.414  -3.136  0.00  0.00    -0.450 OA
BRANCH  24  25
ATOM     25  C   UNL     1      27.079  16.045  -2.109  0.00  0.00    +0.240 C 
BRANCH  25  26
ATOM     26  C   UNL     1      27.866  17.170  -1.411  0.00  0.00    +0.100 C 
BRANCH  26  28
ATOM     27  N   UNL     1      30.031  17.354  -0.233  0.00  0.00    -0.134 NA
ATOM     28  C   UNL     1      28.942  16.605  -0.577  0.00  0.00    +0.087 A 
ATOM     29  C   UNL     1      29.079  15.348  -0.039  0.00  0.00    +0.141 A 
ATOM     30  N   UNL     1      30.303  15.364   0.601  0.00  0.00    -0.201 N 
ATOM     31  N   UNL     1      30.845  16.595   0.486  0.00  0.00    -0.059 NA
BRANCH  30  32
ATOM     32  C   UNL     1      30.942  14.257   1.235  0.00  0.00    +0.173 A 
ATOM     33  C   UNL     1      30.323  13.513   2.243  0.00  0.00    +0.096 A 
ATOM     34  C   UNL     1      31.080  12.507   2.865  0.00  0.00    +0.024 A 
ATOM     35  C   UNL     1      32.388  12.254   2.465  0.00  0.00    +0.021 A 
ATOM     36  C   UNL     1      32.909  13.011   1.435  0.00  0.00    +0.113 A 
ATOM     37  N   UNL     1      32.224  13.998   0.820  0.00  0.00    -0.235 NA
BRANCH  33  38
ATOM     38  C   UNL     1      28.970  13.674   2.686  0.00  0.00    +0.103 C 
ATOM     39  N   UNL     1      27.883  13.711   3.093  0.00  0.00    -0.191 NA
ENDBRANCH  33  38
ENDBRANCH  30  32
ENDBRANCH  26  28
ENDBRANCH  25  26
ENDBRANCH  24  25
ENDBRANCH   1  24
TORSDOF 12
