REMARK VINA RESULT:    -6.302      1.824      3.757
REMARK INTER + INTRA:         -13.795
REMARK INTER:                 -12.082
REMARK INTRA:                  -1.713
REMARK UNBOUND:                -1.966
REMARK  Name = lig_assembled_17.pdb
REMARK  17 active torsions:
REMARK  status: ('A' for Active; 'I' for Inactive)
REMARK    1  A    between atoms: _2  and  _9
REMARK    2  A    between atoms: _3  and  _10
REMARK    3  A    between atoms: _3  and  _11
REMARK    4  A    between atoms: _3  and  _13
REMARK    5  A    between atoms: _5  and  _13
REMARK    6  A    between atoms: _6  and  _7
REMARK    7  A    between atoms: _6  and  _14
REMARK    8  A    between atoms: _9  and  _10
REMARK    9  A    between atoms: _11  and  _12
REMARK   10  A    between atoms: _14  and  _16
REMARK   11  A    between atoms: _15  and  _20
REMARK   12  A    between atoms: _16  and  _19
REMARK   13  A    between atoms: _24  and  _34
REMARK   14  A    between atoms: _26  and  _27
REMARK   15  A    between atoms: _28  and  _30
REMARK   16  A    between atoms: _30  and  _32
REMARK   17  A    between atoms: _32  and  _34
REMARK                            x       y       z     vdW  Elec       q    Type
REMARK                         _______ _______ _______ _____ _____    ______ ____
ROOT
ATOM      1  C   UNL     1      28.958  17.089  -0.489  0.00  0.00    +0.400 C 
ATOM      2  N   UNL     1      28.980  15.923   0.240  0.00  0.00    -0.278 N 
ATOM      3  H   UNL     1      29.665  16.140   1.031  0.00  0.00    +0.152 HD
ATOM      4  O   UNL     1      29.515  18.077  -0.019  0.00  0.00    -0.226 OA
ENDROOT
BRANCH   2   5
ATOM      5  C   UNL     1      28.489  14.560   0.423  0.00  0.00    +0.152 C 
BRANCH   5   6
ATOM      6  C   UNL     1      28.691  13.947   1.823  0.00  0.00    +0.193 C 
ATOM      7  O   UNL     1      27.445  13.308   2.180  0.00  0.00    -0.219 OA
BRANCH   6   8
ATOM      8  C   UNL     1      29.751  12.833   1.970  0.00  0.00    +0.212 C 
ATOM      9  O   UNL     1      29.341  11.653   1.260  0.00  0.00    -0.218 OA
BRANCH   8  10
ATOM     10  C   UNL     1      31.179  13.259   1.458  0.00  0.00    +0.171 C 
ATOM     11  O   UNL     1      31.323  13.109   0.049  0.00  0.00    -0.343 OA
ATOM     12  C   UNL     1      32.541  13.179  -0.631  0.00  0.00    +0.220 C 
ATOM     13  C   UNL     1      33.604  12.268   0.008  0.00  0.00    +0.076 C 
ATOM     14  C   UNL     1      33.676  12.620   1.503  0.00  0.00    +0.177 C 
ATOM     15  O   UNL     1      34.675  11.832   2.136  0.00  0.00    -0.221 OA
ATOM     16  C   UNL     1      32.282  12.411   2.172  0.00  0.00    +0.155 C 
BRANCH  16  17
ATOM     17  N   UNL     1      32.348  12.738   3.594  0.00  0.00    -0.202 NA
ATOM     18  C   UNL     1      32.063  11.968   4.676  0.00  0.00    +0.242 C 
ATOM     19  C   UNL     1      32.498  12.454   6.034  0.00  0.00    +0.096 C 
ATOM     20  O   UNL     1      31.466  10.904   4.524  0.00  0.00    -0.273 OA
ENDBRANCH  16  17
BRANCH  12  21
ATOM     21  C   UNL     1      33.091  14.696  -0.820  0.00  0.00    +0.391 C 
ATOM     22  O   UNL     1      34.381  14.555  -1.180  0.00  0.00    -0.243 OA
ATOM     23  O   UNL     1      32.007  15.481  -0.846  0.00  0.00    -0.243 OA
ENDBRANCH  12  21
ENDBRANCH   8  10
ENDBRANCH   6   8
ENDBRANCH   5   6
ENDBRANCH   2   5
BRANCH   1  24
ATOM     24  O   UNL     1      28.367  17.019  -1.637  0.00  0.00    -0.450 OA
BRANCH  24  25
ATOM     25  C   UNL     1      27.116  17.313  -2.214  0.00  0.00    +0.240 C 
BRANCH  25  26
ATOM     26  C   UNL     1      26.946  17.040  -3.720  0.00  0.00    +0.100 C 
BRANCH  26  28
ATOM     27  N   UNL     1      25.661  15.468  -5.130  0.00  0.00    -0.134 NA
ATOM     28  C   UNL     1      25.795  16.148  -3.949  0.00  0.00    +0.086 A 
ATOM     29  C   UNL     1      24.740  15.830  -3.123  0.00  0.00    +0.133 A 
ATOM     30  N   UNL     1      24.013  14.940  -3.853  0.00  0.00    -0.250 N 
ATOM     31  N   UNL     1      24.560  14.732  -5.062  0.00  0.00    -0.065 NA
BRANCH  30  32
ATOM     32  C   UNL     1      22.822  14.213  -3.463  0.00  0.00    +0.160 C 
BRANCH  32  33
ATOM     33  C   UNL     1      23.195  12.934  -2.700  0.00  0.00    +0.107 C 
BRANCH  33  34
ATOM     34  N   UNL     1      22.818  12.899  -1.265  0.00  0.00    -0.301 NA
BRANCH  34  35
ATOM     35  C   UNL     1      23.765  12.021  -0.546  0.00  0.00    +0.081 C 
ATOM     36  C   UNL     1      25.176  12.583  -0.400  0.00  0.00    +0.020 C 
ENDBRANCH  34  35
BRANCH  34  37
ATOM     37  C   UNL     1      21.406  12.542  -1.041  0.00  0.00    +0.081 C 
ATOM     38  C   UNL     1      20.433  13.701  -0.846  0.00  0.00    +0.020 C 
ENDBRANCH  34  37
ENDBRANCH  33  34
ENDBRANCH  32  33
ENDBRANCH  30  32
ENDBRANCH  26  28
ENDBRANCH  25  26
ENDBRANCH  24  25
ENDBRANCH   1  24
TORSDOF 15
