REMARK VINA RESULT:    -7.593      1.606      1.980
REMARK INTER + INTRA:         -14.085
REMARK INTER:                 -12.035
REMARK INTRA:                  -2.050
REMARK UNBOUND:                -1.609
REMARK  Name = lig_assembled_87.pdb
REMARK  12 active torsions:
REMARK  status: ('A' for Active; 'I' for Inactive)
REMARK    1  A    between atoms: _2  and  _9
REMARK    2  A    between atoms: _3  and  _12
REMARK    3  A    between atoms: _6  and  _7
REMARK    4  A    between atoms: _6  and  _16
REMARK    5  A    between atoms: _16  and  _18
REMARK    6  A    between atoms: _17  and  _22
REMARK    7  A    between atoms: _18  and  _21
REMARK    8  A    between atoms: _26  and  _36
REMARK    9  A    between atoms: _28  and  _29
REMARK   10  A    between atoms: _30  and  _32
REMARK   11  A    between atoms: _32  and  _34
REMARK   12  A    between atoms: _34  and  _36
REMARK                            x       y       z     vdW  Elec       q    Type
REMARK                         _______ _______ _______ _____ _____    ______ ____
ROOT
ATOM      1  C   UNL     1      27.824  17.420  -1.255  0.00  0.00    +0.400 C 
ATOM      2  N   UNL     1      28.120  16.280  -0.544  0.00  0.00    -0.278 N 
ATOM      3  H   UNL     1      28.286  16.643   0.448  0.00  0.00    +0.152 HD
ATOM      4  O   UNL     1      27.643  18.461  -0.629  0.00  0.00    -0.226 OA
ENDROOT
BRANCH   1   5
ATOM      5  O   UNL     1      27.795  17.286  -2.540  0.00  0.00    -0.450 OA
BRANCH   5   6
ATOM      6  C   UNL     1      26.876  17.383  -3.603  0.00  0.00    +0.240 C 
BRANCH   6   7
ATOM      7  C   UNL     1      26.647  16.123  -4.461  0.00  0.00    +0.100 C 
BRANCH   7   9
ATOM      8  N   UNL     1      26.617  13.814  -3.584  0.00  0.00    -0.134 NA
ATOM      9  C   UNL     1      26.048  15.055  -3.641  0.00  0.00    +0.086 A 
ATOM     10  C   UNL     1      24.932  15.075  -2.835  0.00  0.00    +0.134 A 
ATOM     11  N   UNL     1      24.938  13.855  -2.216  0.00  0.00    -0.248 N 
ATOM     12  N   UNL     1      25.889  13.073  -2.766  0.00  0.00    -0.065 NA
BRANCH  11  13
ATOM     13  C   UNL     1      24.105  13.318  -1.124  0.00  0.00    +0.112 C 
ATOM     14  C   UNL     1      24.154  11.773  -0.965  0.00  0.00    +0.045 C 
ATOM     15  C   UNL     1      22.809  11.044  -1.115  0.00  0.00    +0.059 C 
ATOM     16  C   UNL     1      21.948  11.156   0.152  0.00  0.00    +0.020 C 
ATOM     17  C   UNL     1      21.013  12.334  -0.120  0.00  0.00    +0.020 C 
ATOM     18  C   UNL     1      21.527  12.916  -1.437  0.00  0.00    +0.059 C 
ATOM     19  N   UNL     1      21.933  11.677  -2.093  0.00  0.00    -0.299 NA
ATOM     20  C   UNL     1      22.406  11.765  -3.457  0.00  0.00    +0.105 C 
ATOM     21  C   UNL     1      22.663  13.907  -1.178  0.00  0.00    +0.045 C 
ENDBRANCH  11  13
ENDBRANCH   7   9
ENDBRANCH   6   7
ENDBRANCH   5   6
ENDBRANCH   1   5
BRANCH   2  22
ATOM     22  C   UNL     1      28.292  14.830  -0.534  0.00  0.00    +0.152 C 
BRANCH  22  23
ATOM     23  C   UNL     1      29.422  14.286   0.364  0.00  0.00    +0.193 C 
ATOM     24  O   UNL     1      29.256  12.852   0.418  0.00  0.00    -0.219 OA
BRANCH  23  25
ATOM     25  C   UNL     1      30.876  14.487  -0.116  0.00  0.00    +0.212 C 
ATOM     26  O   UNL     1      31.192  15.887  -0.187  0.00  0.00    -0.218 OA
BRANCH  25  27
ATOM     27  C   UNL     1      31.942  13.776   0.803  0.00  0.00    +0.171 C 
ATOM     28  O   UNL     1      32.098  14.423   2.062  0.00  0.00    -0.343 OA
ATOM     29  C   UNL     1      33.132  14.157   2.962  0.00  0.00    +0.220 C 
ATOM     30  C   UNL     1      34.510  14.209   2.279  0.00  0.00    +0.076 C 
ATOM     31  C   UNL     1      34.458  13.276   1.058  0.00  0.00    +0.177 C 
ATOM     32  O   UNL     1      35.722  13.257   0.412  0.00  0.00    -0.221 OA
ATOM     33  C   UNL     1      33.328  13.730   0.082  0.00  0.00    +0.155 C 
BRANCH  33  34
ATOM     34  N   UNL     1      33.280  12.850  -1.082  0.00  0.00    -0.202 NA
ATOM     35  C   UNL     1      33.344  13.154  -2.404  0.00  0.00    +0.242 C 
ATOM     36  C   UNL     1      33.568  12.034  -3.386  0.00  0.00    +0.096 C 
ATOM     37  O   UNL     1      33.220  14.323  -2.765  0.00  0.00    -0.273 OA
ENDBRANCH  33  34
BRANCH  29  38
ATOM     38  C   UNL     1      32.929  12.774   3.791  0.00  0.00    +0.391 C 
ATOM     39  O   UNL     1      34.129  12.525   4.351  0.00  0.00    -0.243 OA
ATOM     40  O   UNL     1      31.608  12.572   3.854  0.00  0.00    -0.243 OA
ENDBRANCH  29  38
ENDBRANCH  25  27
ENDBRANCH  23  25
ENDBRANCH  22  23
ENDBRANCH   2  22
TORSDOF 11
