REMARK VINA RESULT:    -8.217      2.541      5.247
REMARK INTER + INTRA:         -15.263
REMARK INTER:                 -13.066
REMARK INTRA:                  -2.196
REMARK UNBOUND:                -1.762
REMARK  Name = lig_assembled_25.pdb
REMARK  11 active torsions:
REMARK  status: ('A' for Active; 'I' for Inactive)
REMARK    1  A    between atoms: _2  and  _8
REMARK    2  A    between atoms: _5  and  _6
REMARK    3  A    between atoms: _5  and  _20
REMARK    4  A    between atoms: _20  and  _22
REMARK    5  A    between atoms: _21  and  _26
REMARK    6  A    between atoms: _22  and  _25
REMARK    7  A    between atoms: _30  and  _40
REMARK    8  A    between atoms: _32  and  _33
REMARK    9  A    between atoms: _34  and  _36
REMARK   10  A    between atoms: _36  and  _38
REMARK   11  A    between atoms: _38  and  _40
REMARK                            x       y       z     vdW  Elec       q    Type
REMARK                         _______ _______ _______ _____ _____    ______ ____
ROOT
ATOM      1  C   UNL     1      28.195  17.588  -0.450  0.00  0.00    +0.400 C 
ATOM      2  N   UNL     1      29.441  17.517   0.125  0.00  0.00    -0.278 N 
ATOM      3  H   UNL     1      29.487  18.399   0.727  0.00  0.00    +0.152 HD
ATOM      4  O   UNL     1      27.418  18.449  -0.044  0.00  0.00    -0.226 OA
ENDROOT
BRANCH   1   5
ATOM      5  O   UNL     1      27.969  16.744  -1.403  0.00  0.00    -0.450 OA
BRANCH   5   6
ATOM      6  C   UNL     1      27.579  16.740  -2.756  0.00  0.00    +0.240 C 
BRANCH   6   7
ATOM      7  C   UNL     1      26.160  17.239  -3.089  0.00  0.00    +0.100 C 
BRANCH   7   9
ATOM      8  N   UNL     1      25.571  15.344  -4.559  0.00  0.00    -0.134 NA
ATOM      9  C   UNL     1      25.290  16.107  -3.458  0.00  0.00    +0.086 A 
ATOM     10  C   UNL     1      24.137  15.640  -2.867  0.00  0.00    +0.134 A 
ATOM     11  N   UNL     1      23.750  14.599  -3.666  0.00  0.00    -0.240 N 
ATOM     12  N   UNL     1      24.627  14.421  -4.678  0.00  0.00    -0.065 NA
BRANCH  11  13
ATOM     13  C   UNL     1      22.551  13.779  -3.614  0.00  0.00    +0.170 C 
ATOM     14  C   UNL     1      21.303  14.545  -4.029  0.00  0.00    -0.011 A 
ATOM     15  C   UNL     1      20.332  14.476  -3.006  0.00  0.00    -0.012 A 
ATOM     16  C   UNL     1      20.869  13.711  -1.898  0.00  0.00    -0.012 A 
ATOM     17  C   UNL     1      20.287  13.345  -0.696  0.00  0.00    +0.009 A 
ATOM     18  C   UNL     1      21.033  12.566   0.193  0.00  0.00    +0.001 A 
ATOM     19  C   UNL     1      22.343  12.167  -0.121  0.00  0.00    +0.000 A 
ATOM     20  C   UNL     1      22.933  12.536  -1.332  0.00  0.00    +0.006 A 
ATOM     21  C   UNL     1      19.098  15.083  -3.167  0.00  0.00    +0.009 A 
ATOM     22  C   UNL     1      18.840  15.759  -4.363  0.00  0.00    +0.001 A 
ATOM     23  C   UNL     1      19.808  15.822  -5.380  0.00  0.00    +0.000 A 
ATOM     24  C   UNL     1      21.051  15.209  -5.221  0.00  0.00    +0.006 A 
ATOM     25  C   UNL     1      22.189  13.309  -2.211  0.00  0.00    -0.011 A 
ENDBRANCH  11  13
ENDBRANCH   7   9
ENDBRANCH   6   7
ENDBRANCH   5   6
ENDBRANCH   1   5
BRANCH   2  26
ATOM     26  C   UNL     1      30.695  16.787   0.291  0.00  0.00    +0.152 C 
BRANCH  26  27
ATOM     27  C   UNL     1      30.739  15.366  -0.309  0.00  0.00    +0.193 C 
ATOM     28  O   UNL     1      32.119  15.098  -0.642  0.00  0.00    -0.219 OA
BRANCH  27  29
ATOM     29  C   UNL     1      30.329  14.191   0.606  0.00  0.00    +0.212 C 
ATOM     30  O   UNL     1      29.816  14.683   1.855  0.00  0.00    -0.218 OA
BRANCH  29  31
ATOM     31  C   UNL     1      29.250  13.242  -0.043  0.00  0.00    +0.171 C 
ATOM     32  O   UNL     1      28.809  13.704  -1.315  0.00  0.00    -0.343 OA
ATOM     33  C   UNL     1      27.698  13.199  -1.995  0.00  0.00    +0.220 C 
ATOM     34  C   UNL     1      26.449  13.160  -1.097  0.00  0.00    +0.076 C 
ATOM     35  C   UNL     1      26.825  12.398   0.184  0.00  0.00    +0.177 C 
ATOM     36  O   UNL     1      25.691  12.297   1.035  0.00  0.00    -0.221 OA
ATOM     37  C   UNL     1      28.012  13.109   0.904  0.00  0.00    +0.155 C 
BRANCH  37  38
ATOM     38  N   UNL     1      28.368  12.392   2.126  0.00  0.00    -0.202 NA
ATOM     39  C   UNL     1      27.918  12.564   3.395  0.00  0.00    +0.242 C 
ATOM     40  C   UNL     1      28.227  11.498   4.414  0.00  0.00    +0.096 C 
ATOM     41  O   UNL     1      27.276  13.572   3.681  0.00  0.00    -0.273 OA
ENDBRANCH  37  38
BRANCH  33  42
ATOM     42  C   UNL     1      27.970  11.763  -2.703  0.00  0.00    +0.391 C 
ATOM     43  O   UNL     1      26.747  11.295  -3.022  0.00  0.00    -0.243 OA
ATOM     44  O   UNL     1      29.281  11.725  -2.971  0.00  0.00    -0.243 OA
ENDBRANCH  33  42
ENDBRANCH  29  31
ENDBRANCH  27  29
ENDBRANCH  26  27
ENDBRANCH   2  26
TORSDOF 11
