REMARK VINA RESULT:    -6.749      2.368     10.006
REMARK INTER + INTRA:         -15.838
REMARK INTER:                 -13.829
REMARK INTRA:                  -2.009
REMARK UNBOUND:                -2.580
REMARK  Name = lig_assembled_90.pdb
REMARK  17 active torsions:
REMARK  status: ('A' for Active; 'I' for Inactive)
REMARK    1  A    between atoms: _2  and  _12
REMARK    2  A    between atoms: _3  and  _14
REMARK    3  A    between atoms: _4  and  _16
REMARK    4  A    between atoms: _9  and  _10
REMARK    5  A    between atoms: _9  and  _23
REMARK    6  A    between atoms: _12  and  _13
REMARK    7  A    between atoms: _14  and  _15
REMARK    8  A    between atoms: _15  and  _16
REMARK    9  A    between atoms: _15  and  _21
REMARK   10  A    between atoms: _23  and  _25
REMARK   11  A    between atoms: _24  and  _29
REMARK   12  A    between atoms: _25  and  _28
REMARK   13  A    between atoms: _33  and  _43
REMARK   14  A    between atoms: _35  and  _36
REMARK   15  A    between atoms: _37  and  _39
REMARK   16  A    between atoms: _39  and  _41
REMARK   17  A    between atoms: _41  and  _43
REMARK                            x       y       z     vdW  Elec       q    Type
REMARK                         _______ _______ _______ _____ _____    ______ ____
ROOT
ATOM      1  C   UNL     1      29.306  12.461  -0.075  0.00  0.00    +0.240 C 
ENDROOT
BRANCH   1   2
ATOM      2  O   UNL     1      28.521  11.985   0.993  0.00  0.00    -0.450 OA
BRANCH   2   3
ATOM      3  C   UNL     1      27.390  12.236   1.567  0.00  0.00    +0.400 C 
ATOM      4  N   UNL     1      27.350  12.019   2.924  0.00  0.00    -0.278 N 
ATOM      5  H   UNL     1      26.424  12.464   3.218  0.00  0.00    +0.152 HD
ATOM      6  O   UNL     1      26.380  12.671   1.019  0.00  0.00    -0.226 OA
BRANCH   4   7
ATOM      7  C   UNL     1      27.983  11.453   4.113  0.00  0.00    +0.152 C 
BRANCH   7   8
ATOM      8  C   UNL     1      29.518  11.578   4.190  0.00  0.00    +0.193 C 
ATOM      9  O   UNL     1      29.837  12.960   3.911  0.00  0.00    -0.219 OA
BRANCH   8  10
ATOM     10  C   UNL     1      30.191  11.295   5.551  0.00  0.00    +0.212 C 
ATOM     11  O   UNL     1      30.244   9.881   5.800  0.00  0.00    -0.218 OA
BRANCH  10  12
ATOM     12  C   UNL     1      31.650  11.881   5.660  0.00  0.00    +0.171 C 
ATOM     13  O   UNL     1      32.516  11.386   4.644  0.00  0.00    -0.343 OA
ATOM     14  C   UNL     1      33.904  11.545   4.645  0.00  0.00    +0.220 C 
ATOM     15  C   UNL     1      34.526  11.115   5.985  0.00  0.00    +0.076 C 
ATOM     16  C   UNL     1      33.787  11.871   7.102  0.00  0.00    +0.177 C 
ATOM     17  O   UNL     1      34.351  11.539   8.363  0.00  0.00    -0.221 OA
ATOM     18  C   UNL     1      32.263  11.539   7.058  0.00  0.00    +0.155 C 
BRANCH  18  19
ATOM     19  N   UNL     1      31.559  12.250   8.122  0.00  0.00    -0.202 NA
ATOM     20  C   UNL     1      30.895  11.761   9.200  0.00  0.00    +0.242 C 
ATOM     21  C   UNL     1      30.512  12.718  10.299  0.00  0.00    +0.096 C 
ATOM     22  O   UNL     1      30.627  10.562   9.257  0.00  0.00    -0.273 OA
ENDBRANCH  18  19
BRANCH  14  23
ATOM     23  C   UNL     1      34.385  13.036   4.215  0.00  0.00    +0.391 C 
ATOM     24  O   UNL     1      35.715  12.931   4.027  0.00  0.00    -0.243 OA
ATOM     25  O   UNL     1      33.269  13.714   3.919  0.00  0.00    -0.243 OA
ENDBRANCH  14  23
ENDBRANCH  10  12
ENDBRANCH   8  10
ENDBRANCH   7   8
ENDBRANCH   4   7
ENDBRANCH   2   3
ENDBRANCH   1   2
BRANCH   1  26
ATOM     26  C   UNL     1      30.359  13.540   0.243  0.00  0.00    +0.100 C 
BRANCH  26  28
ATOM     27  N   UNL     1      30.703  15.963  -0.156  0.00  0.00    -0.134 NA
ATOM     28  C   UNL     1      29.874  14.871  -0.170  0.00  0.00    +0.086 A 
ATOM     29  C   UNL     1      28.628  15.259  -0.605  0.00  0.00    +0.134 A 
ATOM     30  N   UNL     1      28.767  16.590  -0.860  0.00  0.00    -0.243 N 
ATOM     31  N   UNL     1      30.010  17.015  -0.572  0.00  0.00    -0.065 NA
BRANCH  30  32
ATOM     32  C   UNL     1      27.754  17.532  -1.271  0.00  0.00    +0.240 C 
BRANCH  32  33
ATOM     33  C   UNL     1      26.976  17.021  -2.462  0.00  0.00    +0.235 C 
ATOM     34  O   UNL     1      27.307  17.260  -3.622  0.00  0.00    -0.274 OA
ATOM     35  N   UNL     1      25.895  16.215  -2.158  0.00  0.00    -0.311 N 
ATOM     36  H   UNL     1      25.498  16.267  -1.223  0.00  0.00    +0.149 HD
BRANCH  35  37
ATOM     37  C   UNL     1      25.017  15.729  -3.213  0.00  0.00    +0.137 C 
BRANCH  37  38
ATOM     38  C   UNL     1      23.558  15.670  -2.737  0.00  0.00    +0.151 C 
BRANCH  38  39
ATOM     39  O   UNL     1      22.867  16.823  -3.232  0.00  0.00    -0.388 OA
ATOM     40  H   UNL     1      22.915  17.535  -2.563  0.00  0.00    +0.210 HD
ENDBRANCH  38  39
BRANCH  38  41
ATOM     41  C   UNL     1      22.868  14.374  -3.182  0.00  0.00    +0.162 C 
BRANCH  41  42
ATOM     42  N   UNL     1      21.848  13.934  -2.241  0.00  0.00    -0.269 N 
ATOM     43  C   UNL     1      20.535  14.347  -2.310  0.00  0.00    +0.113 A 
ATOM     44  C   UNL     1      19.902  13.759  -1.241  0.00  0.00    +0.137 A 
ATOM     45  N   UNL     1      20.784  13.001  -0.515  0.00  0.00    -0.172 NA
ATOM     46  C   UNL     1      21.943  13.113  -1.145  0.00  0.00    +0.450 A 
ATOM     47  N   UNL     1      23.137  12.443  -0.689  0.00  0.00    +0.120 N 
ATOM     48  O   UNL     1      24.148  12.520  -1.400  0.00  0.00    +0.045 OA
ATOM     49  O   UNL     1      23.074  11.844   0.393  0.00  0.00    -0.573 OA
ENDBRANCH  41  42
ENDBRANCH  38  41
ENDBRANCH  37  38
ENDBRANCH  35  37
ENDBRANCH  32  33
ENDBRANCH  30  32
ENDBRANCH  26  28
ENDBRANCH   1  26
TORSDOF 17
