REMARK VINA RESULT:    -6.840      3.154      8.684
REMARK INTER + INTRA:         -13.183
REMARK INTER:                 -11.111
REMARK INTRA:                  -2.072
REMARK UNBOUND:                -1.544
REMARK  Name = lig_assembled_69.pdb
REMARK  13 active torsions:
REMARK  status: ('A' for Active; 'I' for Inactive)
REMARK    1  A    between atoms: _2  and  _8
REMARK    2  A    between atoms: _5  and  _6
REMARK    3  A    between atoms: _5  and  _16
REMARK    4  A    between atoms: _10  and  _15
REMARK    5  A    between atoms: _13  and  _14
REMARK    6  A    between atoms: _16  and  _18
REMARK    7  A    between atoms: _17  and  _22
REMARK    8  A    between atoms: _18  and  _21
REMARK    9  A    between atoms: _26  and  _36
REMARK   10  A    between atoms: _28  and  _29
REMARK   11  A    between atoms: _30  and  _32
REMARK   12  A    between atoms: _32  and  _34
REMARK   13  A    between atoms: _34  and  _36
REMARK                            x       y       z     vdW  Elec       q    Type
REMARK                         _______ _______ _______ _____ _____    ______ ____
ROOT
ATOM      1  C   UNL     1      28.063  17.215  -0.932  0.00  0.00    +0.400 C 
ATOM      2  N   UNL     1      28.487  16.009  -0.424  0.00  0.00    -0.278 N 
ATOM      3  H   UNL     1      28.749  16.245   0.585  0.00  0.00    +0.152 HD
ATOM      4  O   UNL     1      27.910  18.151  -0.151  0.00  0.00    -0.226 OA
ENDROOT
BRANCH   1   5
ATOM      5  O   UNL     1      27.892  17.254  -2.212  0.00  0.00    -0.450 OA
BRANCH   5   6
ATOM      6  C   UNL     1      26.860  17.469  -3.147  0.00  0.00    +0.240 C 
BRANCH   6   7
ATOM      7  C   UNL     1      26.502  16.307  -4.092  0.00  0.00    +0.100 C 
BRANCH   7   9
ATOM      8  N   UNL     1      24.373  15.635  -3.033  0.00  0.00    -0.134 NA
ATOM      9  C   UNL     1      25.655  15.321  -3.395  0.00  0.00    +0.086 A 
ATOM     10  C   UNL     1      25.935  14.034  -2.994  0.00  0.00    +0.134 A 
ATOM     11  N   UNL     1      24.788  13.623  -2.384  0.00  0.00    -0.248 N 
ATOM     12  N   UNL     1      23.853  14.589  -2.409  0.00  0.00    -0.065 NA
BRANCH  11  13
ATOM     13  C   UNL     1      24.531  12.350  -1.712  0.00  0.00    +0.114 C 
ATOM     14  C   UNL     1      24.869  12.425  -0.218  0.00  0.00    +0.062 C 
ATOM     15  C   UNL     1      26.333  12.182   0.157  0.00  0.00    +0.139 C 
ATOM     16  C   UNL     1      26.840  10.777   0.003  0.00  0.00    +0.002 C 
ATOM     17  C   UNL     1      26.350   9.787  -0.761  0.00  0.00    +0.002 C 
ATOM     18  C   UNL     1      25.250   9.869  -1.776  0.00  0.00    +0.139 C 
ATOM     19  C   UNL     1      25.165  11.202  -2.510  0.00  0.00    +0.062 C 
BRANCH  18  20
ATOM     20  O   UNL     1      24.012   9.566  -1.152  0.00  0.00    -0.388 OA
ATOM     21  H   UNL     1      24.208   9.260  -0.249  0.00  0.00    +0.210 HD
ENDBRANCH  18  20
BRANCH  15  22
ATOM     22  O   UNL     1      26.463  12.484   1.552  0.00  0.00    -0.388 OA
ATOM     23  H   UNL     1      27.266  12.040   1.871  0.00  0.00    +0.210 HD
ENDBRANCH  15  22
ENDBRANCH  11  13
ENDBRANCH   7   9
ENDBRANCH   6   7
ENDBRANCH   5   6
ENDBRANCH   1   5
BRANCH   2  24
ATOM     24  C   UNL     1      28.720  14.583  -0.635  0.00  0.00    +0.152 C 
BRANCH  24  25
ATOM     25  C   UNL     1      30.088  14.042  -0.171  0.00  0.00    +0.193 C 
ATOM     26  O   UNL     1      30.058  12.612  -0.370  0.00  0.00    -0.219 OA
BRANCH  25  27
ATOM     27  C   UNL     1      31.341  14.512  -0.942  0.00  0.00    +0.212 C 
ATOM     28  O   UNL     1      31.664  15.869  -0.597  0.00  0.00    -0.218 OA
BRANCH  27  29
ATOM     29  C   UNL     1      32.608  13.611  -0.683  0.00  0.00    +0.171 C 
ATOM     30  O   UNL     1      33.408  14.087   0.394  0.00  0.00    -0.343 OA
ATOM     31  C   UNL     1      34.696  13.630   0.681  0.00  0.00    +0.220 C 
ATOM     32  C   UNL     1      35.599  13.651  -0.564  0.00  0.00    +0.076 C 
ATOM     33  C   UNL     1      34.871  12.878  -1.677  0.00  0.00    +0.177 C 
ATOM     34  O   UNL     1      35.682  12.833  -2.842  0.00  0.00    -0.221 OA
ATOM     35  C   UNL     1      33.489  13.538  -1.973  0.00  0.00    +0.155 C 
BRANCH  35  36
ATOM     36  N   UNL     1      32.797  12.810  -3.034  0.00  0.00    -0.202 NA
ATOM     37  C   UNL     1      32.716  13.081  -4.362  0.00  0.00    +0.242 C 
ATOM     38  C   UNL     1      32.187  12.010  -5.279  0.00  0.00    +0.096 C 
ATOM     39  O   UNL     1      33.073  14.180  -4.781  0.00  0.00    -0.273 OA
ENDBRANCH  35  36
BRANCH  31  40
ATOM     40  C   UNL     1      34.721  12.180   1.412  0.00  0.00    +0.391 C 
ATOM     41  O   UNL     1      35.985  11.737   1.262  0.00  0.00    -0.243 OA
ATOM     42  O   UNL     1      33.595  12.109   2.132  0.00  0.00    -0.243 OA
ENDBRANCH  31  40
ENDBRANCH  27  29
ENDBRANCH  25  27
ENDBRANCH  24  25
ENDBRANCH   2  24
TORSDOF 13
