REMARK VINA RESULT:    -6.049      3.870      7.988
REMARK INTER + INTRA:         -13.319
REMARK INTER:                 -10.791
REMARK INTRA:                  -2.527
REMARK UNBOUND:                -1.966
REMARK  Name = lig_assembled_17.pdb
REMARK  17 active torsions:
REMARK  status: ('A' for Active; 'I' for Inactive)
REMARK    1  A    between atoms: _2  and  _9
REMARK    2  A    between atoms: _3  and  _10
REMARK    3  A    between atoms: _3  and  _11
REMARK    4  A    between atoms: _3  and  _13
REMARK    5  A    between atoms: _5  and  _13
REMARK    6  A    between atoms: _6  and  _7
REMARK    7  A    between atoms: _6  and  _14
REMARK    8  A    between atoms: _9  and  _10
REMARK    9  A    between atoms: _11  and  _12
REMARK   10  A    between atoms: _14  and  _16
REMARK   11  A    between atoms: _15  and  _20
REMARK   12  A    between atoms: _16  and  _19
REMARK   13  A    between atoms: _24  and  _34
REMARK   14  A    between atoms: _26  and  _27
REMARK   15  A    between atoms: _28  and  _30
REMARK   16  A    between atoms: _30  and  _32
REMARK   17  A    between atoms: _32  and  _34
REMARK                            x       y       z     vdW  Elec       q    Type
REMARK                         _______ _______ _______ _____ _____    ______ ____
ROOT
ATOM      1  C   UNL     1      27.869  17.462  -1.202  0.00  0.00    +0.400 C 
ATOM      2  N   UNL     1      27.180  17.444  -2.392  0.00  0.00    -0.278 N 
ATOM      3  H   UNL     1      26.391  18.146  -2.231  0.00  0.00    +0.152 HD
ATOM      4  O   UNL     1      27.579  18.325  -0.377  0.00  0.00    -0.226 OA
ENDROOT
BRANCH   2   5
ATOM      5  C   UNL     1      27.055  16.918  -3.749  0.00  0.00    +0.152 C 
BRANCH   5   6
ATOM      6  C   UNL     1      25.794  16.079  -4.038  0.00  0.00    +0.193 C 
ATOM      7  O   UNL     1      25.823  15.758  -5.447  0.00  0.00    -0.219 OA
BRANCH   6   8
ATOM      8  C   UNL     1      25.669  14.710  -3.334  0.00  0.00    +0.212 C 
ATOM      9  O   UNL     1      26.191  14.784  -1.997  0.00  0.00    -0.218 OA
BRANCH   8  10
ATOM     10  C   UNL     1      24.188  14.175  -3.267  0.00  0.00    +0.171 C 
ATOM     11  O   UNL     1      23.335  15.017  -2.499  0.00  0.00    -0.343 OA
ATOM     12  C   UNL     1      22.051  14.664  -2.076  0.00  0.00    +0.220 C 
ATOM     13  C   UNL     1      22.037  13.291  -1.381  0.00  0.00    +0.076 C 
ATOM     14  C   UNL     1      22.705  12.284  -2.332  0.00  0.00    +0.177 C 
ATOM     15  O   UNL     1      22.682  10.987  -1.754  0.00  0.00    -0.221 OA
ATOM     16  C   UNL     1      24.163  12.736  -2.655  0.00  0.00    +0.155 C 
BRANCH  16  17
ATOM     17  N   UNL     1      24.804  11.778  -3.553  0.00  0.00    -0.202 NA
ATOM     18  C   UNL     1      25.941  11.056  -3.384  0.00  0.00    +0.242 C 
ATOM     19  C   UNL     1      26.218   9.925  -4.339  0.00  0.00    +0.096 C 
ATOM     20  O   UNL     1      26.708  11.338  -2.466  0.00  0.00    -0.273 OA
ENDBRANCH  16  17
BRANCH  12  21
ATOM     21  C   UNL     1      20.936  14.749  -3.254  0.00  0.00    +0.391 C 
ATOM     22  O   UNL     1      19.856  14.114  -2.757  0.00  0.00    -0.243 OA
ATOM     23  O   UNL     1      21.389  15.655  -4.128  0.00  0.00    -0.243 OA
ENDBRANCH  12  21
ENDBRANCH   8  10
ENDBRANCH   6   8
ENDBRANCH   5   6
ENDBRANCH   2   5
BRANCH   1  24
ATOM     24  O   UNL     1      28.753  16.531  -1.052  0.00  0.00    -0.450 OA
BRANCH  24  25
ATOM     25  C   UNL     1      29.210  15.641  -0.060  0.00  0.00    +0.240 C 
BRANCH  25  26
ATOM     26  C   UNL     1      28.976  14.136  -0.293  0.00  0.00    +0.100 C 
BRANCH  26  28
ATOM     27  N   UNL     1      28.379  14.056   2.104  0.00  0.00    -0.134 NA
ATOM     28  C   UNL     1      28.229  13.557   0.837  0.00  0.00    +0.086 A 
ATOM     29  C   UNL     1      27.319  12.523   0.865  0.00  0.00    +0.133 A 
ATOM     30  N   UNL     1      26.940  12.458   2.170  0.00  0.00    -0.250 N 
ATOM     31  N   UNL     1      27.585  13.371   2.916  0.00  0.00    -0.065 NA
BRANCH  30  32
ATOM     32  C   UNL     1      25.947  11.597   2.780  0.00  0.00    +0.160 C 
BRANCH  32  33
ATOM     33  C   UNL     1      25.554  10.463   1.823  0.00  0.00    +0.107 C 
BRANCH  33  34
ATOM     34  N   UNL     1      24.103  10.164   1.730  0.00  0.00    -0.301 NA
BRANCH  34  35
ATOM     35  C   UNL     1      23.360  11.438   1.640  0.00  0.00    +0.081 C 
ATOM     36  C   UNL     1      21.850  11.314   1.823  0.00  0.00    +0.020 C 
ENDBRANCH  34  35
BRANCH  34  37
ATOM     37  C   UNL     1      23.620   9.281   2.807  0.00  0.00    +0.081 C 
ATOM     38  C   UNL     1      24.515   8.100   3.173  0.00  0.00    +0.020 C 
ENDBRANCH  34  37
ENDBRANCH  33  34
ENDBRANCH  32  33
ENDBRANCH  30  32
ENDBRANCH  26  28
ENDBRANCH  25  26
ENDBRANCH  24  25
ENDBRANCH   1  24
TORSDOF 15
