REMARK VINA RESULT:    -7.129      3.315      8.778
REMARK INTER + INTRA:         -14.259
REMARK INTER:                 -11.470
REMARK INTRA:                  -2.789
REMARK UNBOUND:                -2.128
REMARK  Name = lig_assembled_0.pdb
REMARK  12 active torsions:
REMARK  status: ('A' for Active; 'I' for Inactive)
REMARK    1  A    between atoms: _2  and  _9
REMARK    2  A    between atoms: _6  and  _7
REMARK    3  A    between atoms: _6  and  _16
REMARK    4  A    between atoms: _10  and  _11
REMARK    5  A    between atoms: _16  and  _18
REMARK    6  A    between atoms: _17  and  _22
REMARK    7  A    between atoms: _18  and  _21
REMARK    8  A    between atoms: _26  and  _36
REMARK    9  A    between atoms: _28  and  _29
REMARK   10  A    between atoms: _30  and  _32
REMARK   11  A    between atoms: _32  and  _34
REMARK   12  A    between atoms: _34  and  _36
REMARK                            x       y       z     vdW  Elec       q    Type
REMARK                         _______ _______ _______ _____ _____    ______ ____
ROOT
ATOM      1  C   UNL     1      27.881  17.724  -1.075  0.00  0.00    +0.400 C 
ATOM      2  N   UNL     1      27.179  17.528  -2.241  0.00  0.00    -0.278 N 
ATOM      3  H   UNL     1      26.226  17.965  -2.033  0.00  0.00    +0.152 HD
ATOM      4  O   UNL     1      27.385  18.448  -0.215  0.00  0.00    -0.226 OA
ENDROOT
BRANCH   2   5
ATOM      5  C   UNL     1      27.157  17.015  -3.609  0.00  0.00    +0.152 C 
BRANCH   5   6
ATOM      6  C   UNL     1      25.942  16.145  -3.988  0.00  0.00    +0.193 C 
ATOM      7  O   UNL     1      26.051  15.873  -5.403  0.00  0.00    -0.219 OA
BRANCH   6   8
ATOM      8  C   UNL     1      25.830  14.749  -3.335  0.00  0.00    +0.212 C 
ATOM      9  O   UNL     1      26.417  14.760  -2.024  0.00  0.00    -0.218 OA
BRANCH   8  10
ATOM     10  C   UNL     1      24.345  14.232  -3.218  0.00  0.00    +0.171 C 
ATOM     11  O   UNL     1      23.594  14.941  -2.238  0.00  0.00    -0.343 OA
ATOM     12  C   UNL     1      22.345  14.539  -1.760  0.00  0.00    +0.220 C 
ATOM     13  C   UNL     1      22.352  13.067  -1.311  0.00  0.00    +0.076 C 
ATOM     14  C   UNL     1      22.898  12.230  -2.481  0.00  0.00    +0.177 C 
ATOM     15  O   UNL     1      22.889  10.853  -2.132  0.00  0.00    -0.221 OA
ATOM     16  C   UNL     1      24.333  12.710  -2.861  0.00  0.00    +0.155 C 
BRANCH  16  17
ATOM     17  N   UNL     1      24.858  11.912  -3.967  0.00  0.00    -0.202 NA
ATOM     18  C   UNL     1      25.986  11.160  -4.036  0.00  0.00    +0.242 C 
ATOM     19  C   UNL     1      26.139  10.205  -5.191  0.00  0.00    +0.096 C 
ATOM     20  O   UNL     1      26.845  11.273  -3.164  0.00  0.00    -0.273 OA
ENDBRANCH  16  17
BRANCH  12  21
ATOM     21  C   UNL     1      21.128  14.842  -2.793  0.00  0.00    +0.391 C 
ATOM     22  O   UNL     1      20.151  13.983  -2.441  0.00  0.00    -0.243 OA
ATOM     23  O   UNL     1      21.428  16.003  -3.387  0.00  0.00    -0.243 OA
ENDBRANCH  12  21
ENDBRANCH   8  10
ENDBRANCH   6   8
ENDBRANCH   5   6
ENDBRANCH   2   5
BRANCH   1  24
ATOM     24  O   UNL     1      29.004  17.090  -0.984  0.00  0.00    -0.450 OA
BRANCH  24  25
ATOM     25  C   UNL     1      30.075  16.939  -0.082  0.00  0.00    +0.240 C 
BRANCH  25  26
ATOM     26  C   UNL     1      30.794  15.577  -0.055  0.00  0.00    +0.100 C 
BRANCH  26  28
ATOM     27  N   UNL     1      29.770  13.488  -0.877  0.00  0.00    -0.134 NA
ATOM     28  C   UNL     1      29.814  14.481   0.057  0.00  0.00    +0.086 A 
ATOM     29  C   UNL     1      28.863  14.235   1.022  0.00  0.00    +0.139 A 
ATOM     30  N   UNL     1      28.188  13.119   0.585  0.00  0.00    -0.219 N 
ATOM     31  N   UNL     1      28.817  12.639  -0.524  0.00  0.00    -0.061 NA
BRANCH  30  32
ATOM     32  C   UNL     1      27.099  12.404   1.160  0.00  0.00    +0.079 A 
ATOM     33  C   UNL     1      27.149  11.719   2.391  0.00  0.00    +0.062 A 
ATOM     34  C   UNL     1      26.004  11.015   2.824  0.00  0.00    +0.015 A 
ATOM     35  C   UNL     1      24.841  10.975   2.054  0.00  0.00    +0.001 A 
ATOM     36  C   UNL     1      24.788  11.662   0.851  0.00  0.00    +0.002 A 
ATOM     37  C   UNL     1      25.900  12.379   0.412  0.00  0.00    +0.028 A 
BRANCH  33  38
ATOM     38  C   UNL     1      28.268  11.836   3.368  0.00  0.00    +0.244 C 
ATOM     39  O   UNL     1      29.359  11.323   3.174  0.00  0.00    -0.270 OA
ATOM     40  N   UNL     1      28.051  12.582   4.495  0.00  0.00    -0.325 N 
ATOM     41  H   UNL     1      28.834  12.699   5.128  0.00  0.00    +0.145 HD
ATOM     42  H   UNL     1      27.185  13.049   4.721  0.00  0.00    +0.145 HD
ENDBRANCH  33  38
ENDBRANCH  30  32
ENDBRANCH  26  28
ENDBRANCH  25  26
ENDBRANCH  24  25
ENDBRANCH   1  24
TORSDOF 12
