REMARK VINA RESULT:    -6.704      4.533      8.667
REMARK INTER + INTRA:         -14.711
REMARK INTER:                 -13.318
REMARK INTRA:                  -1.393
REMARK UNBOUND:                -2.913
REMARK  Name = lig_assembled_92.pdb
REMARK  13 active torsions:
REMARK  status: ('A' for Active; 'I' for Inactive)
REMARK    1  A    between atoms: _2  and  _10
REMARK    2  A    between atoms: _3  and  _49
REMARK    3  A    between atoms: _7  and  _8
REMARK    4  A    between atoms: _7  and  _20
REMARK    5  A    between atoms: _13  and  _49
REMARK    6  A    between atoms: _20  and  _22
REMARK    7  A    between atoms: _21  and  _26
REMARK    8  A    between atoms: _22  and  _25
REMARK    9  A    between atoms: _30  and  _40
REMARK   10  A    between atoms: _32  and  _33
REMARK   11  A    between atoms: _34  and  _36
REMARK   12  A    between atoms: _36  and  _38
REMARK   13  A    between atoms: _38  and  _40
REMARK                            x       y       z     vdW  Elec       q    Type
REMARK                         _______ _______ _______ _____ _____    ______ ____
ROOT
ATOM      1  O   UNL     1      34.265  12.568   2.504  0.00  0.00    -0.450 OA
ENDROOT
BRANCH   1   2
ATOM      2  C   UNL     1      35.038  13.145   3.365  0.00  0.00    +0.400 C 
ATOM      3  N   UNL     1      35.194  12.484   4.561  0.00  0.00    -0.278 N 
ATOM      4  H   UNL     1      35.999  13.008   5.030  0.00  0.00    +0.152 HD
ATOM      5  O   UNL     1      35.655  14.194   3.198  0.00  0.00    -0.226 OA
BRANCH   3   6
ATOM      6  C   UNL     1      34.755  11.423   5.463  0.00  0.00    +0.152 C 
BRANCH   6   7
ATOM      7  C   UNL     1      33.727  11.828   6.540  0.00  0.00    +0.193 C 
ATOM      8  O   UNL     1      33.369  13.202   6.275  0.00  0.00    -0.219 OA
BRANCH   7   9
ATOM      9  C   UNL     1      32.379  11.075   6.560  0.00  0.00    +0.212 C 
ATOM     10  O   UNL     1      32.565   9.701   6.183  0.00  0.00    -0.218 OA
BRANCH   9  11
ATOM     11  C   UNL     1      31.660  11.120   7.963  0.00  0.00    +0.171 C 
ATOM     12  O   UNL     1      30.762  12.218   8.083  0.00  0.00    -0.343 OA
ATOM     13  C   UNL     1      30.184  12.636   9.284  0.00  0.00    +0.220 C 
ATOM     14  C   UNL     1      31.237  12.821  10.390  0.00  0.00    +0.076 C 
ATOM     15  C   UNL     1      32.047  11.516  10.480  0.00  0.00    +0.177 C 
ATOM     16  O   UNL     1      33.012  11.619  11.518  0.00  0.00    -0.221 OA
ATOM     17  C   UNL     1      32.721  11.207   9.108  0.00  0.00    +0.155 C 
BRANCH  17  18
ATOM     18  N   UNL     1      33.497   9.972   9.191  0.00  0.00    -0.202 NA
ATOM     19  C   UNL     1      34.821   9.794   9.432  0.00  0.00    +0.242 C 
ATOM     20  C   UNL     1      35.309   8.406   9.757  0.00  0.00    +0.096 C 
ATOM     21  O   UNL     1      35.583  10.757   9.381  0.00  0.00    -0.273 OA
ENDBRANCH  17  18
BRANCH  13  22
ATOM     22  C   UNL     1      28.960  11.688   9.777  0.00  0.00    +0.391 C 
ATOM     23  O   UNL     1      28.887  10.707   8.857  0.00  0.00    -0.243 OA
ATOM     24  O   UNL     1      28.693  12.054  11.037  0.00  0.00    -0.243 OA
ENDBRANCH  13  22
ENDBRANCH   9  11
ENDBRANCH   7   9
ENDBRANCH   6   7
ENDBRANCH   3   6
ENDBRANCH   1   2
BRANCH   1  25
ATOM     25  C   UNL     1      32.955  12.060   2.418  0.00  0.00    +0.240 C 
BRANCH  25  26
ATOM     26  C   UNL     1      31.839  12.843   3.136  0.00  0.00    +0.100 C 
BRANCH  26  28
ATOM     27  N   UNL     1      31.628  15.041   2.010  0.00  0.00    -0.134 NA
ATOM     28  C   UNL     1      31.176  13.767   2.199  0.00  0.00    +0.086 A 
ATOM     29  C   UNL     1      30.082  13.555   1.393  0.00  0.00    +0.139 A 
ATOM     30  N   UNL     1      29.916  14.732   0.700  0.00  0.00    -0.220 N 
ATOM     31  N   UNL     1      30.855  15.624   1.103  0.00  0.00    -0.061 NA
BRANCH  30  32
ATOM     32  C   UNL     1      28.971  15.032  -0.314  0.00  0.00    +0.067 A 
ATOM     33  C   UNL     1      28.657  16.365  -0.619  0.00  0.00    +0.030 A 
ATOM     34  C   UNL     1      27.684  16.656  -1.574  0.00  0.00    +0.031 A 
ATOM     35  C   UNL     1      27.030  15.616  -2.239  0.00  0.00    +0.109 A 
ATOM     36  C   UNL     1      27.340  14.284  -1.954  0.00  0.00    +0.031 A 
ATOM     37  C   UNL     1      28.319  13.992  -0.998  0.00  0.00    +0.030 A 
BRANCH  35  38
ATOM     38  S   UNL     1      25.696  16.020  -3.334  0.00  0.00    +0.074 S 
ATOM     39  O   UNL     1      25.930  17.362  -3.831  0.00  0.00    -0.150 OA
ATOM     40  O   UNL     1      25.511  14.927  -4.261  0.00  0.00    -0.150 OA
BRANCH  38  41
ATOM     41  N   UNL     1      24.367  16.161  -2.303  0.00  0.00    -0.194 N 
ATOM     42  H   UNL     1      23.917  17.042  -2.538  0.00  0.00    +0.176 HD
ATOM     43  C   UNL     1      23.505  15.049  -2.392  0.00  0.00    +0.177 A 
ATOM     44  S   UNL     1      22.092  15.051  -3.352  0.00  0.00    -0.059 S 
ATOM     45  C   UNL     1      21.706  13.492  -2.747  0.00  0.00    +0.068 A 
ATOM     46  C   UNL     1      22.640  13.122  -1.802  0.00  0.00    +0.120 A 
ATOM     47  N   UNL     1      23.690  14.004  -1.623  0.00  0.00    -0.232 NA
ENDBRANCH  38  41
ENDBRANCH  35  38
ENDBRANCH  30  32
ENDBRANCH  26  28
ENDBRANCH  25  26
ENDBRANCH   1  25
TORSDOF 13
