REMARK VINA RESULT:    -6.536      2.788      9.509
REMARK INTER + INTRA:         -13.039
REMARK INTER:                 -11.051
REMARK INTRA:                  -1.989
REMARK UNBOUND:                -1.919
REMARK  Name = lig_assembled_41.pdb
REMARK  13 active torsions:
REMARK  status: ('A' for Active; 'I' for Inactive)
REMARK    1  A    between atoms: _2  and  _8
REMARK    2  A    between atoms: _5  and  _6
REMARK    3  A    between atoms: _5  and  _16
REMARK    4  A    between atoms: _9  and  _10
REMARK    5  A    between atoms: _10  and  _11
REMARK    6  A    between atoms: _16  and  _18
REMARK    7  A    between atoms: _17  and  _22
REMARK    8  A    between atoms: _18  and  _21
REMARK    9  A    between atoms: _26  and  _36
REMARK   10  A    between atoms: _28  and  _29
REMARK   11  A    between atoms: _30  and  _32
REMARK   12  A    between atoms: _32  and  _34
REMARK   13  A    between atoms: _34  and  _36
REMARK                            x       y       z     vdW  Elec       q    Type
REMARK                         _______ _______ _______ _____ _____    ______ ____
ROOT
ATOM      1  C   UNL     1      28.117  15.185  -1.290  0.00  0.00    +0.400 C 
ATOM      2  N   UNL     1      26.977  15.315  -2.048  0.00  0.00    -0.278 N 
ATOM      3  H   UNL     1      26.703  14.304  -2.259  0.00  0.00    +0.152 HD
ATOM      4  O   UNL     1      28.428  14.062  -0.900  0.00  0.00    -0.226 OA
ENDROOT
BRANCH   2   5
ATOM      5  C   UNL     1      25.989  16.194  -2.668  0.00  0.00    +0.152 C 
BRANCH   5   6
ATOM      6  C   UNL     1      25.288  15.647  -3.929  0.00  0.00    +0.193 C 
ATOM      7  O   UNL     1      26.187  15.877  -5.036  0.00  0.00    -0.219 OA
BRANCH   6   8
ATOM      8  C   UNL     1      24.992  14.131  -3.982  0.00  0.00    +0.212 C 
ATOM      9  O   UNL     1      26.204  13.391  -4.198  0.00  0.00    -0.218 OA
BRANCH   8  10
ATOM     10  C   UNL     1      24.295  13.586  -2.678  0.00  0.00    +0.171 C 
ATOM     11  O   UNL     1      24.800  12.317  -2.276  0.00  0.00    -0.343 OA
ATOM     12  C   UNL     1      24.205  11.500  -1.312  0.00  0.00    +0.220 C 
ATOM     13  C   UNL     1      22.704  11.297  -1.585  0.00  0.00    +0.076 C 
ATOM     14  C   UNL     1      22.069  12.689  -1.736  0.00  0.00    +0.177 C 
ATOM     15  O   UNL     1      20.670  12.560  -1.951  0.00  0.00    -0.221 OA
ATOM     16  C   UNL     1      22.752  13.467  -2.903  0.00  0.00    +0.155 C 
BRANCH  16  17
ATOM     17  N   UNL     1      22.146  14.788  -3.055  0.00  0.00    -0.202 NA
ATOM     18  C   UNL     1      21.485  15.323  -4.113  0.00  0.00    +0.242 C 
ATOM     19  C   UNL     1      20.706  16.595  -3.900  0.00  0.00    +0.096 C 
ATOM     20  O   UNL     1      21.536  14.764  -5.207  0.00  0.00    -0.273 OA
ENDBRANCH  16  17
BRANCH  12  21
ATOM     21  C   UNL     1      24.473  11.997   0.212  0.00  0.00    +0.391 C 
ATOM     22  O   UNL     1      23.480  11.445   0.937  0.00  0.00    -0.243 OA
ATOM     23  O   UNL     1      25.713  12.499   0.224  0.00  0.00    -0.243 OA
ENDBRANCH  12  21
ENDBRANCH   8  10
ENDBRANCH   6   8
ENDBRANCH   5   6
ENDBRANCH   2   5
BRANCH   1  24
ATOM     24  O   UNL     1      28.780  16.275  -1.085  0.00  0.00    -0.450 OA
BRANCH  24  25
ATOM     25  C   UNL     1      29.648  16.832  -0.126  0.00  0.00    +0.240 C 
BRANCH  25  26
ATOM     26  C   UNL     1      31.116  16.363  -0.138  0.00  0.00    +0.100 C 
BRANCH  26  28
ATOM     27  N   UNL     1      31.552  13.955   0.171  0.00  0.00    -0.134 NA
ATOM     28  C   UNL     1      31.282  15.174   0.717  0.00  0.00    +0.086 A 
ATOM     29  C   UNL     1      31.232  15.052   2.088  0.00  0.00    +0.139 A 
ATOM     30  N   UNL     1      31.370  13.705   2.334  0.00  0.00    -0.219 N 
ATOM     31  N   UNL     1      31.657  13.078   1.158  0.00  0.00    -0.061 NA
BRANCH  30  32
ATOM     32  C   UNL     1      31.368  12.976   3.558  0.00  0.00    +0.077 A 
ATOM     33  C   UNL     1      30.239  12.336   4.111  0.00  0.00    +0.043 A 
ATOM     34  C   UNL     1      30.367  11.691   5.358  0.00  0.00    +0.013 A 
ATOM     35  C   UNL     1      31.580  11.684   6.051  0.00  0.00    +0.001 A 
ATOM     36  C   UNL     1      32.697  12.292   5.496  0.00  0.00    +0.002 A 
ATOM     37  C   UNL     1      32.595  12.922   4.257  0.00  0.00    +0.028 A 
BRANCH  33  38
ATOM     38  C   UNL     1      28.961  12.112   3.367  0.00  0.00    +0.162 C 
ATOM     39  O   UNL     1      28.893  11.195   2.551  0.00  0.00    -0.292 OA
ATOM     40  C   UNL     1      27.767  13.000   3.620  0.00  0.00    +0.091 C 
ENDBRANCH  33  38
ENDBRANCH  30  32
ENDBRANCH  26  28
ENDBRANCH  25  26
ENDBRANCH  24  25
ENDBRANCH   1  24
TORSDOF 12
