REMARK VINA RESULT:    -6.569     18.950     24.221
REMARK INTER + INTRA:         -13.469
REMARK INTER:                 -11.901
REMARK INTRA:                  -1.569
REMARK UNBOUND:                -1.716
REMARK  Name = lig_assembled_32.pdb
REMARK  14 active torsions:
REMARK  status: ('A' for Active; 'I' for Inactive)
REMARK    1  A    between atoms: _2  and  _8
REMARK    2  A    between atoms: _4  and  _9
REMARK    3  A    between atoms: _4  and  _10
REMARK    4  A    between atoms: _5  and  _6
REMARK    5  A    between atoms: _5  and  _12
REMARK    6  A    between atoms: _8  and  _9
REMARK    7  A    between atoms: _12  and  _14
REMARK    8  A    between atoms: _13  and  _18
REMARK    9  A    between atoms: _14  and  _17
REMARK   10  A    between atoms: _22  and  _32
REMARK   11  A    between atoms: _24  and  _25
REMARK   12  A    between atoms: _26  and  _28
REMARK   13  A    between atoms: _28  and  _30
REMARK   14  A    between atoms: _30  and  _32
REMARK                            x       y       z     vdW  Elec       q    Type
REMARK                         _______ _______ _______ _____ _____    ______ ____
ROOT
ATOM      1  C   UNL     1      44.730  24.557  10.698  0.00  0.00    +0.152 C 
ENDROOT
BRANCH   1   3
ATOM      2  C   UNL     1      45.338  22.627  12.528  0.00  0.00    +0.400 C 
ATOM      3  N   UNL     1      44.801  23.724  11.895  0.00  0.00    -0.278 N 
ATOM      4  H   UNL     1      44.157  24.146  12.636  0.00  0.00    +0.152 HD
ATOM      5  O   UNL     1      45.134  22.497  13.733  0.00  0.00    -0.226 OA
BRANCH   2   6
ATOM      6  O   UNL     1      45.991  21.808  11.772  0.00  0.00    -0.450 OA
BRANCH   6   7
ATOM      7  C   UNL     1      47.045  21.826  10.837  0.00  0.00    +0.240 C 
BRANCH   7   8
ATOM      8  C   UNL     1      46.973  20.827   9.666  0.00  0.00    +0.100 C 
BRANCH   8  10
ATOM      9  N   UNL     1      47.451  22.824   8.285  0.00  0.00    -0.134 NA
ATOM     10  C   UNL     1      46.968  21.546   8.378  0.00  0.00    +0.086 A 
ATOM     11  C   UNL     1      46.525  21.140   7.138  0.00  0.00    +0.133 A 
ATOM     12  N   UNL     1      46.755  22.219   6.341  0.00  0.00    -0.251 N 
ATOM     13  N   UNL     1      47.313  23.229   7.030  0.00  0.00    -0.065 NA
BRANCH  12  14
ATOM     14  C   UNL     1      46.480  22.365   4.929  0.00  0.00    +0.156 C 
BRANCH  14  15
ATOM     15  C   UNL     1      45.163  21.711   4.535  0.00  0.00    +0.143 C 
BRANCH  15  16
ATOM     16  C   UNL     1      45.086  21.559   3.043  0.00  0.00    +0.306 C 
ATOM     17  O   UNL     1      46.003  21.177   2.333  0.00  0.00    -0.251 OA
BRANCH  16  18
ATOM     18  O   UNL     1      43.880  21.908   2.545  0.00  0.00    -0.481 OA
ATOM     19  H   UNL     1      43.503  21.265   1.913  0.00  0.00    +0.295 HD
ENDBRANCH  16  18
ENDBRANCH  15  16
ENDBRANCH  14  15
ENDBRANCH  12  14
ENDBRANCH   8  10
ENDBRANCH   7   8
ENDBRANCH   6   7
ENDBRANCH   2   6
ENDBRANCH   1   3
BRANCH   1  20
ATOM     20  C   UNL     1      45.170  26.026  10.866  0.00  0.00    +0.193 C 
ATOM     21  O   UNL     1      43.973  26.831  10.780  0.00  0.00    -0.219 OA
BRANCH  20  22
ATOM     22  C   UNL     1      45.811  26.431  12.211  0.00  0.00    +0.212 C 
ATOM     23  O   UNL     1      47.104  25.822  12.355  0.00  0.00    -0.218 OA
BRANCH  22  24
ATOM     24  C   UNL     1      45.967  27.990  12.385  0.00  0.00    +0.171 C 
ATOM     25  O   UNL     1      46.718  28.586  11.332  0.00  0.00    -0.343 OA
ATOM     26  C   UNL     1      47.211  29.893  11.357  0.00  0.00    +0.220 C 
ATOM     27  C   UNL     1      47.984  30.186  12.655  0.00  0.00    +0.076 C 
ATOM     28  C   UNL     1      47.067  29.817  13.833  0.00  0.00    +0.177 C 
ATOM     29  O   UNL     1      47.720  30.107  15.061  0.00  0.00    -0.221 OA
ATOM     30  C   UNL     1      46.662  28.313  13.748  0.00  0.00    +0.155 C 
BRANCH  30  31
ATOM     31  N   UNL     1      45.796  27.957  14.869  0.00  0.00    -0.202 NA
ATOM     32  C   UNL     1      46.018  27.100  15.899  0.00  0.00    +0.242 C 
ATOM     33  C   UNL     1      45.080  27.140  17.077  0.00  0.00    +0.096 C 
ATOM     34  O   UNL     1      46.968  26.322  15.848  0.00  0.00    -0.273 OA
ENDBRANCH  30  31
BRANCH  26  35
ATOM     35  C   UNL     1      46.075  31.019  11.072  0.00  0.00    +0.391 C 
ATOM     36  O   UNL     1      46.645  32.186  11.430  0.00  0.00    -0.243 OA
ATOM     37  O   UNL     1      45.140  30.419  10.324  0.00  0.00    -0.243 OA
ENDBRANCH  26  35
ENDBRANCH  22  24
ENDBRANCH  20  22
ENDBRANCH   1  20
TORSDOF 14
