REMARK VINA RESULT:    -6.530      3.137      7.877
REMARK INTER + INTRA:         -14.796
REMARK INTER:                 -12.359
REMARK INTRA:                  -2.437
REMARK UNBOUND:                -2.540
REMARK  Name = lig_assembled_31.pdb
REMARK  15 active torsions:
REMARK  status: ('A' for Active; 'I' for Inactive)
REMARK    1  A    between atoms: _2  and  _10
REMARK    2  A    between atoms: _3  and  _11
REMARK    3  A    between atoms: _4  and  _13
REMARK    4  A    between atoms: _7  and  _8
REMARK    5  A    between atoms: _7  and  _19
REMARK    6  A    between atoms: _10  and  _11
REMARK    7  A    between atoms: _13  and  _14
REMARK    8  A    between atoms: _19  and  _21
REMARK    9  A    between atoms: _20  and  _25
REMARK   10  A    between atoms: _21  and  _24
REMARK   11  A    between atoms: _29  and  _39
REMARK   12  A    between atoms: _31  and  _32
REMARK   13  A    between atoms: _33  and  _35
REMARK   14  A    between atoms: _35  and  _37
REMARK   15  A    between atoms: _37  and  _39
REMARK                            x       y       z     vdW  Elec       q    Type
REMARK                         _______ _______ _______ _____ _____    ______ ____
ROOT
ATOM      1  C   UNL     1      26.025  10.260  -1.015  0.00  0.00    +0.400 C 
ATOM      2  N   UNL     1      27.135  10.512  -0.243  0.00  0.00    -0.278 N 
ATOM      3  H   UNL     1      27.947  10.227  -0.877  0.00  0.00    +0.152 HD
ATOM      4  O   UNL     1      26.195   9.979  -2.199  0.00  0.00    -0.226 OA
ENDROOT
BRANCH   2   5
ATOM      5  C   UNL     1      27.688  10.995   1.019  0.00  0.00    +0.152 C 
BRANCH   5   6
ATOM      6  C   UNL     1      27.151  12.351   1.522  0.00  0.00    +0.193 C 
ATOM      7  O   UNL     1      25.921  12.073   2.228  0.00  0.00    -0.219 OA
BRANCH   6   8
ATOM      8  C   UNL     1      28.013  13.129   2.540  0.00  0.00    +0.212 C 
ATOM      9  O   UNL     1      27.211  13.557   3.653  0.00  0.00    -0.218 OA
BRANCH   8  10
ATOM     10  C   UNL     1      29.234  12.296   3.090  0.00  0.00    +0.171 C 
ATOM     11  O   UNL     1      29.012  11.803   4.407  0.00  0.00    -0.343 OA
ATOM     12  C   UNL     1      30.006  11.251   5.219  0.00  0.00    +0.220 C 
ATOM     13  C   UNL     1      31.244  12.159   5.304  0.00  0.00    +0.076 C 
ATOM     14  C   UNL     1      31.686  12.476   3.866  0.00  0.00    +0.177 C 
ATOM     15  O   UNL     1      32.854  13.283   3.887  0.00  0.00    -0.221 OA
ATOM     16  C   UNL     1      30.527  13.176   3.089  0.00  0.00    +0.155 C 
BRANCH  16  17
ATOM     17  N   UNL     1      30.945  13.484   1.724  0.00  0.00    -0.202 NA
ATOM     18  C   UNL     1      31.396  14.651   1.197  0.00  0.00    +0.242 C 
ATOM     19  C   UNL     1      32.038  14.620  -0.166  0.00  0.00    +0.096 C 
ATOM     20  O   UNL     1      31.273  15.694   1.836  0.00  0.00    -0.273 OA
ENDBRANCH  16  17
BRANCH  12  21
ATOM     21  C   UNL     1      30.407   9.731   4.807  0.00  0.00    +0.391 C 
ATOM     22  O   UNL     1      31.527   9.466   5.507  0.00  0.00    -0.243 OA
ATOM     23  O   UNL     1      29.338   9.222   4.182  0.00  0.00    -0.243 OA
ENDBRANCH  12  21
ENDBRANCH   8  10
ENDBRANCH   6   8
ENDBRANCH   5   6
ENDBRANCH   2   5
BRANCH   1  24
ATOM     24  O   UNL     1      24.890  10.314  -0.399  0.00  0.00    -0.450 OA
BRANCH  24  25
ATOM     25  C   UNL     1      23.530  10.543  -0.684  0.00  0.00    +0.240 C 
BRANCH  25  26
ATOM     26  C   UNL     1      22.716  11.357   0.340  0.00  0.00    +0.100 C 
BRANCH  26  28
ATOM     27  N   UNL     1      20.770  12.874   0.140  0.00  0.00    -0.134 NA
ATOM     28  C   UNL     1      21.980  12.445  -0.335  0.00  0.00    +0.086 A 
ATOM     29  C   UNL     1      22.310  13.177  -1.454  0.00  0.00    +0.133 A 
ATOM     30  N   UNL     1      21.255  14.027  -1.611  0.00  0.00    -0.250 N 
ATOM     31  N   UNL     1      20.335  13.848  -0.650  0.00  0.00    -0.065 NA
BRANCH  30  32
ATOM     32  C   UNL     1      21.054  15.022  -2.644  0.00  0.00    +0.164 C 
BRANCH  32  33
ATOM     33  C   UNL     1      22.259  15.114  -3.568  0.00  0.00    +0.129 C 
BRANCH  33  34
ATOM     34  N   UNL     1      23.156  16.227  -3.287  0.00  0.00    -0.298 N 
ATOM     35  H   UNL     1      22.807  17.174  -3.244  0.00  0.00    +0.150 HD
ATOM     36  C   UNL     1      24.497  16.051  -3.506  0.00  0.00    +0.300 C 
ATOM     37  O   UNL     1      24.981  14.969  -3.831  0.00  0.00    -0.253 OA
ATOM     38  N   UNL     1      25.251  17.166  -3.306  0.00  0.00    -0.292 N 
ATOM     39  H   UNL     1      24.848  18.064  -3.080  0.00  0.00    +0.151 HD
BRANCH  38  40
ATOM     40  C   UNL     1      26.678  17.081  -3.505  0.00  0.00    +0.180 C 
BRANCH  40  41
ATOM     41  C   UNL     1      27.444  16.963  -2.239  0.00  0.00    +0.122 A 
ATOM     42  O   UNL     1      27.801  18.101  -1.571  0.00  0.00    -0.466 OA
ATOM     43  C   UNL     1      28.483  17.707  -0.460  0.00  0.00    +0.195 A 
ATOM     44  C   UNL     1      28.571  16.335  -0.405  0.00  0.00    +0.041 A 
ATOM     45  C   UNL     1      27.902  15.854  -1.553  0.00  0.00    +0.046 A 
ENDBRANCH  40  41
ENDBRANCH  38  40
ENDBRANCH  33  34
ENDBRANCH  32  33
ENDBRANCH  30  32
ENDBRANCH  26  28
ENDBRANCH  25  26
ENDBRANCH  24  25
ENDBRANCH   1  24
TORSDOF 15
