REMARK VINA RESULT:    -5.985      1.964      3.517
REMARK INTER + INTRA:         -15.864
REMARK INTER:                 -12.231
REMARK INTRA:                  -3.634
REMARK UNBOUND:                -2.358
REMARK  Name = lig_assembled_30.pdb
REMARK  22 active torsions:
REMARK  status: ('A' for Active; 'I' for Inactive)
REMARK    1  A    between atoms: _2  and  _8
REMARK    2  A    between atoms: _4  and  _17
REMARK    3  A    between atoms: _4  and  _18
REMARK    4  A    between atoms: _5  and  _6
REMARK    5  A    between atoms: _5  and  _20
REMARK    6  A    between atoms: _8  and  _9
REMARK    7  A    between atoms: _9  and  _10
REMARK    8  A    between atoms: _10  and  _11
REMARK    9  A    between atoms: _11  and  _12
REMARK   10  A    between atoms: _12  and  _13
REMARK   11  A    between atoms: _13  and  _14
REMARK   12  A    between atoms: _14  and  _15
REMARK   13  A    between atoms: _15  and  _16
REMARK   14  A    between atoms: _16  and  _17
REMARK   15  A    between atoms: _20  and  _22
REMARK   16  A    between atoms: _21  and  _26
REMARK   17  A    between atoms: _22  and  _25
REMARK   18  A    between atoms: _30  and  _40
REMARK   19  A    between atoms: _32  and  _33
REMARK   20  A    between atoms: _34  and  _36
REMARK   21  A    between atoms: _36  and  _38
REMARK   22  A    between atoms: _38  and  _40
REMARK                            x       y       z     vdW  Elec       q    Type
REMARK                         _______ _______ _______ _____ _____    ______ ____
ROOT
ATOM      1  C   UNL     1      32.141  15.176  -0.774  0.00  0.00    +0.400 C 
ATOM      2  N   UNL     1      31.851  13.929  -0.271  0.00  0.00    -0.278 N 
ATOM      3  H   UNL     1      32.688  13.339  -0.575  0.00  0.00    +0.152 HD
ATOM      4  O   UNL     1      33.260  15.365  -1.243  0.00  0.00    -0.226 OA
ENDROOT
BRANCH   1   5
ATOM      5  O   UNL     1      31.176  16.034  -0.733  0.00  0.00    -0.450 OA
BRANCH   5   6
ATOM      6  C   UNL     1      30.523  16.863   0.201  0.00  0.00    +0.240 C 
BRANCH   6   7
ATOM      7  C   UNL     1      29.229  17.565  -0.255  0.00  0.00    +0.100 C 
BRANCH   7   9
ATOM      8  N   UNL     1      28.361  15.286  -0.679  0.00  0.00    -0.134 NA
ATOM      9  C   UNL     1      28.365  16.622  -0.985  0.00  0.00    +0.086 A 
ATOM     10  C   UNL     1      27.479  16.850  -2.016  0.00  0.00    +0.133 A 
ATOM     11  N   UNL     1      26.973  15.616  -2.288  0.00  0.00    -0.251 N 
ATOM     12  N   UNL     1      27.504  14.678  -1.488  0.00  0.00    -0.065 NA
BRANCH  11  13
ATOM     13  C   UNL     1      26.022  15.252  -3.316  0.00  0.00    +0.145 C 
BRANCH  13  14
ATOM     14  C   UNL     1      24.908  14.376  -2.753  0.00  0.00    +0.023 C 
BRANCH  14  15
ATOM     15  C   UNL     1      23.686  15.198  -2.347  0.00  0.00    +0.002 C 
BRANCH  15  16
ATOM     16  C   UNL     1      22.699  14.325  -1.570  0.00  0.00    +0.000 C 
BRANCH  16  17
ATOM     17  C   UNL     1      23.114  12.857  -1.578  0.00  0.00    +0.000 C 
BRANCH  17  18
ATOM     18  C   UNL     1      22.205  12.032  -0.665  0.00  0.00    +0.000 C 
BRANCH  18  19
ATOM     19  C   UNL     1      22.878  11.768   0.679  0.00  0.00    +0.000 C 
BRANCH  19  20
ATOM     20  C   UNL     1      24.384  11.555   0.522  0.00  0.00    +0.001 C 
BRANCH  20  21
ATOM     21  C   UNL     1      24.972  10.947   1.795  0.00  0.00    +0.011 C 
BRANCH  21  22
ATOM     22  C   UNL     1      26.003  11.868   2.442  0.00  0.00    +0.120 C 
BRANCH  22  23
ATOM     23  C   UNL     1      27.120  12.208   1.481  0.00  0.00    +0.305 C 
ATOM     24  O   UNL     1      27.819  11.399   0.892  0.00  0.00    -0.251 OA
BRANCH  23  25
ATOM     25  O   UNL     1      27.280  13.543   1.329  0.00  0.00    -0.481 OA
ATOM     26  H   UNL     1      26.583  13.962   0.790  0.00  0.00    +0.295 HD
ENDBRANCH  23  25
ENDBRANCH  22  23
ENDBRANCH  21  22
ENDBRANCH  20  21
ENDBRANCH  19  20
ENDBRANCH  18  19
ENDBRANCH  17  18
ENDBRANCH  16  17
ENDBRANCH  15  16
ENDBRANCH  14  15
ENDBRANCH  13  14
ENDBRANCH  11  13
ENDBRANCH   7   9
ENDBRANCH   6   7
ENDBRANCH   5   6
ENDBRANCH   1   5
BRANCH   2  27
ATOM     27  C   UNL     1      30.941  13.075   0.488  0.00  0.00    +0.152 C 
BRANCH  27  28
ATOM     28  C   UNL     1      30.997  13.218   2.023  0.00  0.00    +0.193 C 
ATOM     29  O   UNL     1      29.913  14.098   2.398  0.00  0.00    -0.219 OA
BRANCH  28  30
ATOM     30  C   UNL     1      30.769  11.945   2.869  0.00  0.00    +0.212 C 
ATOM     31  O   UNL     1      30.733  10.782   2.025  0.00  0.00    -0.218 OA
BRANCH  30  32
ATOM     32  C   UNL     1      31.867  11.729   3.979  0.00  0.00    +0.171 C 
ATOM     33  O   UNL     1      31.515  12.330   5.221  0.00  0.00    -0.343 OA
ATOM     34  C   UNL     1      32.396  12.502   6.291  0.00  0.00    +0.220 C 
ATOM     35  C   UNL     1      33.709  13.172   5.847  0.00  0.00    +0.076 C 
ATOM     36  C   UNL     1      34.270  12.355   4.671  0.00  0.00    +0.177 C 
ATOM     37  O   UNL     1      35.507  12.910   4.246  0.00  0.00    -0.221 OA
ATOM     38  C   UNL     1      33.236  12.315   3.503  0.00  0.00    +0.155 C 
BRANCH  38  39
ATOM     39  N   UNL     1      33.768  11.546   2.381  0.00  0.00    -0.202 NA
ATOM     40  C   UNL     1      34.444  11.969   1.282  0.00  0.00    +0.242 C 
ATOM     41  C   UNL     1      35.136  10.939   0.428  0.00  0.00    +0.096 C 
ATOM     42  O   UNL     1      34.478  13.168   1.014  0.00  0.00    -0.273 OA
ENDBRANCH  38  39
BRANCH  34  43
ATOM     43  C   UNL     1      32.676  11.136   7.125  0.00  0.00    +0.391 C 
ATOM     44  O   UNL     1      33.776  11.396   7.859  0.00  0.00    -0.243 OA
ATOM     45  O   UNL     1      31.566  10.397   7.006  0.00  0.00    -0.243 OA
ENDBRANCH  34  43
ENDBRANCH  30  32
ENDBRANCH  28  30
ENDBRANCH  27  28
ENDBRANCH   2  27
TORSDOF 22
