REMARK VINA RESULT:    -6.761      2.153      4.052
REMARK INTER + INTRA:         -15.173
REMARK INTER:                 -12.990
REMARK INTRA:                  -2.184
REMARK UNBOUND:                -2.880
REMARK  Name = lig_assembled_21.pdb
REMARK  15 active torsions:
REMARK  status: ('A' for Active; 'I' for Inactive)
REMARK    1  A    between atoms: _2  and  _8
REMARK    2  A    between atoms: _5  and  _6
REMARK    3  A    between atoms: _5  and  _18
REMARK    4  A    between atoms: _8  and  _9
REMARK    5  A    between atoms: _10  and  _17
REMARK    6  A    between atoms: _11  and  _12
REMARK    7  A    between atoms: _11  and  _17
REMARK    8  A    between atoms: _18  and  _20
REMARK    9  A    between atoms: _19  and  _24
REMARK   10  A    between atoms: _20  and  _23
REMARK   11  A    between atoms: _28  and  _38
REMARK   12  A    between atoms: _30  and  _31
REMARK   13  A    between atoms: _32  and  _34
REMARK   14  A    between atoms: _34  and  _36
REMARK   15  A    between atoms: _36  and  _38
REMARK                            x       y       z     vdW  Elec       q    Type
REMARK                         _______ _______ _______ _____ _____    ______ ____
ROOT
ATOM      1  C   UNL     1      28.310  17.649  -0.580  0.00  0.00    +0.400 C 
ATOM      2  N   UNL     1      29.511  17.531   0.080  0.00  0.00    -0.278 N 
ATOM      3  H   UNL     1      29.472  18.314   0.806  0.00  0.00    +0.152 HD
ATOM      4  O   UNL     1      27.468  18.414  -0.118  0.00  0.00    -0.226 OA
ENDROOT
BRANCH   2   5
ATOM      5  C   UNL     1      30.778  16.824   0.239  0.00  0.00    +0.152 C 
BRANCH   5   6
ATOM      6  C   UNL     1      30.714  15.285   0.154  0.00  0.00    +0.193 C 
ATOM      7  O   UNL     1      31.574  14.892  -0.938  0.00  0.00    -0.219 OA
BRANCH   6   8
ATOM      8  C   UNL     1      31.235  14.479   1.365  0.00  0.00    +0.212 C 
ATOM      9  O   UNL     1      31.508  15.355   2.471  0.00  0.00    -0.218 OA
BRANCH   8  10
ATOM     10  C   UNL     1      30.238  13.357   1.844  0.00  0.00    +0.171 C 
ATOM     11  O   UNL     1      28.882  13.790   1.839  0.00  0.00    -0.343 OA
ATOM     12  C   UNL     1      27.830  13.094   2.439  0.00  0.00    +0.220 C 
ATOM     13  C   UNL     1      28.153  12.715   3.894  0.00  0.00    +0.076 C 
ATOM     14  C   UNL     1      29.500  11.974   3.891  0.00  0.00    +0.177 C 
ATOM     15  O   UNL     1      29.828  11.564   5.211  0.00  0.00    -0.221 OA
ATOM     16  C   UNL     1      30.613  12.886   3.288  0.00  0.00    +0.155 C 
BRANCH  16  17
ATOM     17  N   UNL     1      31.897  12.188   3.289  0.00  0.00    -0.202 NA
ATOM     18  C   UNL     1      32.959  12.327   4.122  0.00  0.00    +0.242 C 
ATOM     19  C   UNL     1      34.040  11.279   4.084  0.00  0.00    +0.096 C 
ATOM     20  O   UNL     1      33.014  13.293   4.881  0.00  0.00    -0.273 OA
ENDBRANCH  16  17
BRANCH  12  21
ATOM     21  C   UNL     1      27.334  11.806   1.582  0.00  0.00    +0.391 C 
ATOM     22  O   UNL     1      26.324  11.278   2.300  0.00  0.00    -0.243 OA
ATOM     23  O   UNL     1      27.895  11.929   0.372  0.00  0.00    -0.243 OA
ENDBRANCH  12  21
ENDBRANCH   8  10
ENDBRANCH   6   8
ENDBRANCH   5   6
ENDBRANCH   2   5
BRANCH   1  24
ATOM     24  O   UNL     1      28.195  16.950  -1.662  0.00  0.00    -0.450 OA
BRANCH  24  25
ATOM     25  C   UNL     1      27.223  16.198  -2.350  0.00  0.00    +0.240 C 
BRANCH  25  26
ATOM     26  C   UNL     1      26.399  16.921  -3.432  0.00  0.00    +0.100 C 
BRANCH  26  28
ATOM     27  N   UNL     1      25.778  15.464  -5.330  0.00  0.00    -0.134 NA
ATOM     28  C   UNL     1      25.484  15.973  -4.095  0.00  0.00    +0.086 A 
ATOM     29  C   UNL     1      24.299  15.428  -3.655  0.00  0.00    +0.134 A 
ATOM     30  N   UNL     1      23.966  14.526  -4.629  0.00  0.00    -0.247 N 
ATOM     31  N   UNL     1      24.842  14.583  -5.648  0.00  0.00    -0.065 NA
BRANCH  30  32
ATOM     32  C   UNL     1      22.877  13.557  -4.564  0.00  0.00    +0.184 C 
BRANCH  32  33
ATOM     33  C   UNL     1      22.070  13.562  -3.288  0.00  0.00    +0.016 A 
ATOM     34  C   UNL     1      22.416  12.760  -2.186  0.00  0.00    +0.137 A 
ATOM     35  C   UNL     1      21.661  12.781  -1.014  0.00  0.00    +0.047 A 
ATOM     36  C   UNL     1      20.552  13.623  -0.923  0.00  0.00    +0.004 A 
ATOM     37  C   UNL     1      20.184  14.415  -2.008  0.00  0.00    +0.001 A 
ATOM     38  C   UNL     1      20.939  14.388  -3.182  0.00  0.00    +0.009 A 
BRANCH  34  39
ATOM     39  O   UNL     1      23.509  11.876  -2.358  0.00  0.00    -0.426 OA
BRANCH  39  40
ATOM     40  C   UNL     1      24.534  11.756  -1.418  0.00  0.00    +0.309 C 
ATOM     41  O   UNL     1      24.881  10.743  -0.825  0.00  0.00    -0.251 OA
ATOM     42  C   UNL     1      25.230  13.079  -1.285  0.00  0.00    +0.136 C 
ENDBRANCH  39  40
ENDBRANCH  34  39
ENDBRANCH  32  33
ENDBRANCH  30  32
ENDBRANCH  26  28
ENDBRANCH  25  26
ENDBRANCH  24  25
ENDBRANCH   1  24
TORSDOF 14
