REMARK VINA RESULT:    -6.195      1.770      3.372
REMARK INTER + INTRA:         -12.380
REMARK INTER:                 -11.462
REMARK INTRA:                  -0.918
REMARK UNBOUND:                -1.839
REMARK  Name = lig_assembled_61.pdb
REMARK  12 active torsions:
REMARK  status: ('A' for Active; 'I' for Inactive)
REMARK    1  A    between atoms: _2  and  _8
REMARK    2  A    between atoms: _5  and  _6
REMARK    3  A    between atoms: _5  and  _12
REMARK    4  A    between atoms: _8  and  _9
REMARK    5  A    between atoms: _12  and  _14
REMARK    6  A    between atoms: _13  and  _18
REMARK    7  A    between atoms: _14  and  _17
REMARK    8  A    between atoms: _22  and  _32
REMARK    9  A    between atoms: _24  and  _25
REMARK   10  A    between atoms: _26  and  _28
REMARK   11  A    between atoms: _28  and  _30
REMARK   12  A    between atoms: _30  and  _32
REMARK                            x       y       z     vdW  Elec       q    Type
REMARK                         _______ _______ _______ _____ _____    ______ ____
ROOT
ATOM      1  C   UNL     1      28.327  14.416   0.923  0.00  0.00    +0.152 C 
ENDROOT
BRANCH   1   3
ATOM      2  C   UNL     1      28.580  16.770  -0.435  0.00  0.00    +0.400 C 
ATOM      3  N   UNL     1      28.641  15.786   0.524  0.00  0.00    -0.278 N 
ATOM      4  H   UNL     1      29.136  16.266   1.340  0.00  0.00    +0.152 HD
ATOM      5  O   UNL     1      28.896  17.912  -0.113  0.00  0.00    -0.226 OA
BRANCH   2   6
ATOM      6  O   UNL     1      28.218  16.381  -1.613  0.00  0.00    -0.450 OA
BRANCH   6   7
ATOM      7  C   UNL     1      27.120  15.763  -2.244  0.00  0.00    +0.240 C 
BRANCH   7   8
ATOM      8  C   UNL     1      26.365  16.575  -3.314  0.00  0.00    +0.100 C 
BRANCH   8  10
ATOM      9  N   UNL     1      25.340  15.178  -5.081  0.00  0.00    -0.134 NA
ATOM     10  C   UNL     1      25.242  15.789  -3.858  0.00  0.00    +0.086 A 
ATOM     11  C   UNL     1      23.999  15.529  -3.321  0.00  0.00    +0.134 A 
ATOM     12  N   UNL     1      23.371  14.806  -4.292  0.00  0.00    -0.247 N 
ATOM     13  N   UNL     1      24.192  14.561  -5.329  0.00  0.00    -0.065 NA
BRANCH  12  14
ATOM     14  C   UNL     1      22.016  14.284  -4.287  0.00  0.00    +0.180 C 
BRANCH  14  15
ATOM     15  C   UNL     1      21.654  13.682  -2.957  0.00  0.00    -0.019 A 
ATOM     16  C   UNL     1      20.832  14.324  -1.968  0.00  0.00    +0.013 A 
ATOM     17  C   UNL     1      20.690  13.572  -0.823  0.00  0.00    +0.045 A 
ATOM     18  S   UNL     1      21.525  12.087  -0.924  0.00  0.00    -0.105 S 
ATOM     19  C   UNL     1      22.091  12.451  -2.495  0.00  0.00    +0.050 A 
ENDBRANCH  14  15
ENDBRANCH  12  14
ENDBRANCH   8  10
ENDBRANCH   7   8
ENDBRANCH   6   7
ENDBRANCH   2   6
ENDBRANCH   1   3
BRANCH   1  20
ATOM     20  C   UNL     1      28.867  13.968   2.296  0.00  0.00    +0.193 C 
ATOM     21  O   UNL     1      27.765  13.346   2.993  0.00  0.00    -0.219 OA
BRANCH  20  22
ATOM     22  C   UNL     1      29.984  12.901   2.312  0.00  0.00    +0.212 C 
ATOM     23  O   UNL     1      29.495  11.655   1.789  0.00  0.00    -0.218 OA
BRANCH  22  24
ATOM     24  C   UNL     1      31.263  13.324   1.493  0.00  0.00    +0.171 C 
ATOM     25  O   UNL     1      31.008  13.434   0.097  0.00  0.00    -0.343 OA
ATOM     26  C   UNL     1      32.001  13.553  -0.879  0.00  0.00    +0.220 C 
ATOM     27  C   UNL     1      33.084  12.471  -0.725  0.00  0.00    +0.076 C 
ATOM     28  C   UNL     1      33.591  12.527   0.725  0.00  0.00    +0.177 C 
ATOM     29  O   UNL     1      34.625  11.571   0.911  0.00  0.00    -0.221 OA
ATOM     30  C   UNL     1      32.411  12.286   1.717  0.00  0.00    +0.155 C 
BRANCH  30  31
ATOM     31  N   UNL     1      32.891  12.332   3.096  0.00  0.00    -0.202 NA
ATOM     32  C   UNL     1      33.429  13.364   3.794  0.00  0.00    +0.242 C 
ATOM     33  C   UNL     1      33.566  13.223   5.288  0.00  0.00    +0.096 C 
ATOM     34  O   UNL     1      33.786  14.379   3.200  0.00  0.00    -0.273 OA
ENDBRANCH  30  31
BRANCH  26  35
ATOM     35  C   UNL     1      32.650  15.040  -0.963  0.00  0.00    +0.391 C 
ATOM     36  O   UNL     1      33.784  14.884  -1.673  0.00  0.00    -0.243 OA
ATOM     37  O   UNL     1      31.689  15.886  -0.572  0.00  0.00    -0.243 OA
ENDBRANCH  26  35
ENDBRANCH  22  24
ENDBRANCH  20  22
ENDBRANCH   1  20
TORSDOF 12
