REMARK VINA RESULT:    -6.061      2.854      4.739
REMARK INTER + INTRA:         -12.358
REMARK INTER:                 -10.247
REMARK INTRA:                  -2.111
REMARK UNBOUND:                -1.336
REMARK  Name = lig_assembled_19.pdb
REMARK  15 active torsions:
REMARK  status: ('A' for Active; 'I' for Inactive)
REMARK    1  A    between atoms: _2  and  _8
REMARK    2  A    between atoms: _4  and  _10
REMARK    3  A    between atoms: _5  and  _6
REMARK    4  A    between atoms: _5  and  _13
REMARK    5  A    between atoms: _8  and  _9
REMARK    6  A    between atoms: _9  and  _12
REMARK    7  A    between atoms: _10  and  _12
REMARK    8  A    between atoms: _13  and  _15
REMARK    9  A    between atoms: _14  and  _19
REMARK   10  A    between atoms: _15  and  _18
REMARK   11  A    between atoms: _23  and  _33
REMARK   12  A    between atoms: _25  and  _26
REMARK   13  A    between atoms: _27  and  _29
REMARK   14  A    between atoms: _29  and  _31
REMARK   15  A    between atoms: _31  and  _33
REMARK                            x       y       z     vdW  Elec       q    Type
REMARK                         _______ _______ _______ _____ _____    ______ ____
ROOT
ATOM      1  C   UNL     1      26.909  13.730  -3.699  0.00  0.00    +0.152 C 
ENDROOT
BRANCH   1   3
ATOM      2  C   UNL     1      25.913  16.270  -3.732  0.00  0.00    +0.400 C 
ATOM      3  N   UNL     1      26.729  15.171  -3.858  0.00  0.00    -0.278 N 
ATOM      4  H   UNL     1      27.641  15.582  -4.233  0.00  0.00    +0.152 HD
ATOM      5  O   UNL     1      26.413  17.383  -3.875  0.00  0.00    -0.226 OA
BRANCH   2   6
ATOM      6  O   UNL     1      24.666  16.018  -3.500  0.00  0.00    -0.450 OA
BRANCH   6   7
ATOM      7  C   UNL     1      23.694  15.052  -3.824  0.00  0.00    +0.240 C 
BRANCH   7   8
ATOM      8  C   UNL     1      22.393  15.048  -2.998  0.00  0.00    +0.100 C 
BRANCH   8  10
ATOM      9  N   UNL     1      23.681  13.583  -1.470  0.00  0.00    -0.134 NA
ATOM     10  C   UNL     1      22.472  14.045  -1.921  0.00  0.00    +0.086 A 
ATOM     11  C   UNL     1      21.465  13.425  -1.216  0.00  0.00    +0.133 A 
ATOM     12  N   UNL     1      22.125  12.594  -0.364  0.00  0.00    -0.248 N 
ATOM     13  N   UNL     1      23.456  12.692  -0.513  0.00  0.00    -0.065 NA
BRANCH  12  14
ATOM     14  C   UNL     1      21.559  11.697   0.619  0.00  0.00    +0.186 C 
BRANCH  14  15
ATOM     15  C   UNL     1      21.923  10.243   0.335  0.00  0.00    +0.255 C 
BRANCH  15  16
ATOM     16  O   UNL     1      23.094   9.821   1.062  0.00  0.00    -0.463 OA
BRANCH  16  17
ATOM     17  C   UNL     1      22.919   9.592   2.391  0.00  0.00    +0.304 C 
ATOM     18  O   UNL     1      21.941   9.048   2.883  0.00  0.00    -0.251 OA
ATOM     19  C   UNL     1      24.105  10.063   3.175  0.00  0.00    +0.136 C 
ENDBRANCH  16  17
ENDBRANCH  15  16
ENDBRANCH  14  15
ENDBRANCH  12  14
ENDBRANCH   8  10
ENDBRANCH   7   8
ENDBRANCH   6   7
ENDBRANCH   2   6
ENDBRANCH   1   3
BRANCH   1  20
ATOM     20  C   UNL     1      27.174  13.232  -2.264  0.00  0.00    +0.193 C 
ATOM     21  O   UNL     1      27.589  11.852  -2.372  0.00  0.00    -0.219 OA
BRANCH  20  22
ATOM     22  C   UNL     1      28.310  13.914  -1.469  0.00  0.00    +0.212 C 
ATOM     23  O   UNL     1      27.988  15.291  -1.215  0.00  0.00    -0.218 OA
BRANCH  22  24
ATOM     24  C   UNL     1      28.621  13.207  -0.094  0.00  0.00    +0.171 C 
ATOM     25  O   UNL     1      27.481  13.133   0.754  0.00  0.00    -0.343 OA
ATOM     26  C   UNL     1      27.525  12.784   2.106  0.00  0.00    +0.220 C 
ATOM     27  C   UNL     1      28.578  13.604   2.873  0.00  0.00    +0.076 C 
ATOM     28  C   UNL     1      29.912  13.461   2.123  0.00  0.00    +0.177 C 
ATOM     29  O   UNL     1      30.931  14.169   2.813  0.00  0.00    -0.221 OA
ATOM     30  C   UNL     1      29.762  13.971   0.656  0.00  0.00    +0.155 C 
BRANCH  30  31
ATOM     31  N   UNL     1      31.030  13.843  -0.058  0.00  0.00    -0.202 NA
ATOM     32  C   UNL     1      31.888  14.805  -0.481  0.00  0.00    +0.242 C 
ATOM     33  C   UNL     1      33.265  14.388  -0.930  0.00  0.00    +0.096 C 
ATOM     34  O   UNL     1      31.529  15.981  -0.486  0.00  0.00    -0.273 OA
ENDBRANCH  30  31
BRANCH  26  35
ATOM     35  C   UNL     1      27.712  11.190   2.356  0.00  0.00    +0.391 C 
ATOM     36  O   UNL     1      28.050  11.079   3.656  0.00  0.00    -0.243 OA
ATOM     37  O   UNL     1      27.178  10.583   1.289  0.00  0.00    -0.243 OA
ENDBRANCH  26  35
ENDBRANCH  22  24
ENDBRANCH  20  22
ENDBRANCH   1  20
TORSDOF 14
