REMARK VINA RESULT:    -6.594      3.241      8.611
REMARK INTER + INTRA:         -13.813
REMARK INTER:                 -11.764
REMARK INTRA:                  -2.049
REMARK UNBOUND:                -1.823
REMARK  Name = lig_assembled_12.pdb
REMARK  14 active torsions:
REMARK  status: ('A' for Active; 'I' for Inactive)
REMARK    1  A    between atoms: _2  and  _8
REMARK    2  A    between atoms: _5  and  _6
REMARK    3  A    between atoms: _5  and  _16
REMARK    4  A    between atoms: _8  and  _15
REMARK    5  A    between atoms: _9  and  _10
REMARK    6  A    between atoms: _9  and  _15
REMARK    7  A    between atoms: _16  and  _18
REMARK    8  A    between atoms: _17  and  _22
REMARK    9  A    between atoms: _18  and  _21
REMARK   10  A    between atoms: _26  and  _36
REMARK   11  A    between atoms: _28  and  _29
REMARK   12  A    between atoms: _30  and  _32
REMARK   13  A    between atoms: _32  and  _34
REMARK   14  A    between atoms: _34  and  _36
REMARK                            x       y       z     vdW  Elec       q    Type
REMARK                         _______ _______ _______ _____ _____    ______ ____
ROOT
ATOM      1  C   UNL     1      27.773  17.532  -1.423  0.00  0.00    +0.400 C 
ATOM      2  N   UNL     1      26.832  16.709  -1.997  0.00  0.00    -0.278 N 
ATOM      3  H   UNL     1      25.929  17.276  -1.922  0.00  0.00    +0.152 HD
ATOM      4  O   UNL     1      27.448  18.686  -1.156  0.00  0.00    -0.226 OA
ENDROOT
BRANCH   2   5
ATOM      5  C   UNL     1      26.523  15.445  -2.659  0.00  0.00    +0.152 C 
BRANCH   5   6
ATOM      6  C   UNL     1      25.214  15.407  -3.475  0.00  0.00    +0.193 C 
ATOM      7  O   UNL     1      25.541  15.862  -4.806  0.00  0.00    -0.219 OA
BRANCH   6   8
ATOM      8  C   UNL     1      24.545  14.032  -3.691  0.00  0.00    +0.212 C 
ATOM      9  O   UNL     1      24.871  13.140  -2.613  0.00  0.00    -0.218 OA
BRANCH   8  10
ATOM     10  C   UNL     1      22.977  14.113  -3.821  0.00  0.00    +0.171 C 
ATOM     11  O   UNL     1      22.410  15.121  -2.990  0.00  0.00    -0.343 OA
ATOM     12  C   UNL     1      21.044  15.249  -2.725  0.00  0.00    +0.220 C 
ATOM     13  C   UNL     1      20.426  13.917  -2.266  0.00  0.00    +0.076 C 
ATOM     14  C   UNL     1      20.785  12.853  -3.317  0.00  0.00    +0.177 C 
ATOM     15  O   UNL     1      20.202  11.608  -2.960  0.00  0.00    -0.221 OA
ATOM     16  C   UNL     1      22.335  12.735  -3.454  0.00  0.00    +0.155 C 
BRANCH  16  17
ATOM     17  N   UNL     1      22.680  11.721  -4.447  0.00  0.00    -0.202 NA
ATOM     18  C   UNL     1      23.166  10.466  -4.272  0.00  0.00    +0.242 C 
ATOM     19  C   UNL     1      23.156   9.524  -5.448  0.00  0.00    +0.096 C 
ATOM     20  O   UNL     1      23.596  10.129  -3.171  0.00  0.00    -0.273 OA
ENDBRANCH  16  17
BRANCH  12  21
ATOM     21  C   UNL     1      20.206  15.905  -3.952  0.00  0.00    +0.391 C 
ATOM     22  O   UNL     1      21.025  15.820  -5.018  0.00  0.00    -0.243 OA
ATOM     23  O   UNL     1      18.940  16.001  -3.525  0.00  0.00    -0.243 OA
ENDBRANCH  12  21
ENDBRANCH   8  10
ENDBRANCH   6   8
ENDBRANCH   5   6
ENDBRANCH   2   5
BRANCH   1  24
ATOM     24  O   UNL     1      28.922  16.989  -1.188  0.00  0.00    -0.450 OA
BRANCH  24  25
ATOM     25  C   UNL     1      29.844  16.856  -0.132  0.00  0.00    +0.240 C 
BRANCH  25  26
ATOM     26  C   UNL     1      30.421  15.452   0.135  0.00  0.00    +0.100 C 
BRANCH  26  28
ATOM     27  N   UNL     1      28.865  13.733  -0.741  0.00  0.00    -0.134 NA
ATOM     28  C   UNL     1      29.334  14.473   0.314  0.00  0.00    +0.086 A 
ATOM     29  C   UNL     1      28.636  14.132   1.448  0.00  0.00    +0.136 A 
ATOM     30  N   UNL     1      27.736  13.203   1.016  0.00  0.00    -0.226 N 
ATOM     31  N   UNL     1      27.892  12.948  -0.297  0.00  0.00    -0.063 NA
BRANCH  30  32
ATOM     32  C   UNL     1      26.738  12.480   1.786  0.00  0.00    +0.305 C 
BRANCH  32  33
ATOM     33  O   UNL     1      26.405  11.274   1.104  0.00  0.00    -0.353 OA
BRANCH  33  34
ATOM     34  C   UNL     1      25.483  10.488   1.846  0.00  0.00    +0.197 C 
BRANCH  34  35
ATOM     35  C   UNL     1      24.100  10.972   1.508  0.00  0.00    -0.022 A 
ATOM     36  C   UNL     1      23.113  11.063   2.501  0.00  0.00    +0.006 A 
ATOM     37  C   UNL     1      21.819  11.474   2.178  0.00  0.00    +0.000 A 
ATOM     38  C   UNL     1      21.495  11.792   0.861  0.00  0.00    +0.000 A 
ATOM     39  C   UNL     1      22.464  11.695  -0.137  0.00  0.00    +0.000 A 
ATOM     40  C   UNL     1      23.760  11.283   0.184  0.00  0.00    +0.006 A 
ENDBRANCH  34  35
ENDBRANCH  33  34
ENDBRANCH  32  33
ENDBRANCH  30  32
ENDBRANCH  26  28
ENDBRANCH  25  26
ENDBRANCH  24  25
ENDBRANCH   1  24
TORSDOF 14
