REMARK VINA RESULT:    -5.963      1.897      4.094
REMARK INTER + INTRA:         -12.690
REMARK INTER:                 -11.087
REMARK INTRA:                  -1.602
REMARK UNBOUND:                -2.194
REMARK  Name = lig_assembled_14.pdb
REMARK  13 active torsions:
REMARK  status: ('A' for Active; 'I' for Inactive)
REMARK    1  A    between atoms: _2  and  _9
REMARK    2  A    between atoms: _3  and  _10
REMARK    3  A    between atoms: _6  and  _7
REMARK    4  A    between atoms: _6  and  _14
REMARK    5  A    between atoms: _9  and  _10
REMARK    6  A    between atoms: _14  and  _16
REMARK    7  A    between atoms: _15  and  _20
REMARK    8  A    between atoms: _16  and  _19
REMARK    9  A    between atoms: _24  and  _34
REMARK   10  A    between atoms: _26  and  _27
REMARK   11  A    between atoms: _28  and  _30
REMARK   12  A    between atoms: _30  and  _32
REMARK   13  A    between atoms: _32  and  _34
REMARK                            x       y       z     vdW  Elec       q    Type
REMARK                         _______ _______ _______ _____ _____    ______ ____
ROOT
ATOM      1  C   UNL     1      27.585  14.319  -1.930  0.00  0.00    +0.400 C 
ATOM      2  N   UNL     1      28.134  15.088  -0.932  0.00  0.00    -0.278 N 
ATOM      3  H   UNL     1      28.367  14.375  -0.171  0.00  0.00    +0.152 HD
ATOM      4  O   UNL     1      27.652  13.097  -1.824  0.00  0.00    -0.226 OA
ENDROOT
BRANCH   2   5
ATOM      5  C   UNL     1      28.546  16.408  -0.462  0.00  0.00    +0.152 C 
BRANCH   5   6
ATOM      6  C   UNL     1      30.050  16.588  -0.172  0.00  0.00    +0.193 C 
ATOM      7  O   UNL     1      30.189  17.833   0.547  0.00  0.00    -0.219 OA
BRANCH   6   8
ATOM      8  C   UNL     1      30.734  15.541   0.734  0.00  0.00    +0.212 C 
ATOM      9  O   UNL     1      29.750  14.723   1.387  0.00  0.00    -0.218 OA
BRANCH   8  10
ATOM     10  C   UNL     1      31.735  14.602  -0.042  0.00  0.00    +0.171 C 
ATOM     11  O   UNL     1      31.151  14.020  -1.203  0.00  0.00    -0.343 OA
ATOM     12  C   UNL     1      31.721  12.973  -1.932  0.00  0.00    +0.220 C 
ATOM     13  C   UNL     1      32.128  11.800  -1.022  0.00  0.00    +0.076 C 
ATOM     14  C   UNL     1      33.016  12.369   0.097  0.00  0.00    +0.177 C 
ATOM     15  O   UNL     1      33.454  11.318   0.946  0.00  0.00    -0.221 OA
ATOM     16  C   UNL     1      32.239  13.459   0.899  0.00  0.00    +0.155 C 
BRANCH  16  17
ATOM     17  N   UNL     1      33.077  13.997   1.967  0.00  0.00    -0.202 NA
ATOM     18  C   UNL     1      33.000  13.807   3.309  0.00  0.00    +0.242 C 
ATOM     19  C   UNL     1      34.165  14.240   4.160  0.00  0.00    +0.096 C 
ATOM     20  O   UNL     1      31.995  13.291   3.793  0.00  0.00    -0.273 OA
ENDBRANCH  16  17
BRANCH  12  21
ATOM     21  C   UNL     1      32.950  13.442  -2.886  0.00  0.00    +0.391 C 
ATOM     22  O   UNL     1      33.260  14.685  -2.467  0.00  0.00    -0.243 OA
ATOM     23  O   UNL     1      33.380  12.337  -3.506  0.00  0.00    -0.243 OA
ENDBRANCH  12  21
ENDBRANCH   8  10
ENDBRANCH   6   8
ENDBRANCH   5   6
ENDBRANCH   2   5
BRANCH   1  24
ATOM     24  O   UNL     1      27.012  14.971  -2.888  0.00  0.00    -0.450 OA
BRANCH  24  25
ATOM     25  C   UNL     1      26.235  14.720  -4.036  0.00  0.00    +0.240 C 
BRANCH  25  26
ATOM     26  C   UNL     1      25.018  15.632  -4.284  0.00  0.00    +0.100 C 
BRANCH  26  28
ATOM     27  N   UNL     1      22.864  14.448  -4.555  0.00  0.00    -0.134 NA
ATOM     28  C   UNL     1      23.795  15.020  -3.732  0.00  0.00    +0.086 A 
ATOM     29  C   UNL     1      23.370  14.914  -2.426  0.00  0.00    +0.133 A 
ATOM     30  N   UNL     1      22.168  14.282  -2.526  0.00  0.00    -0.250 N 
ATOM     31  N   UNL     1      21.870  13.994  -3.805  0.00  0.00    -0.065 NA
BRANCH  30  32
ATOM     32  C   UNL     1      21.231  13.970  -1.470  0.00  0.00    +0.160 C 
BRANCH  32  33
ATOM     33  C   UNL     1      21.014  12.459  -1.326  0.00  0.00    +0.107 C 
BRANCH  33  34
ATOM     34  N   UNL     1      21.812  11.862  -0.241  0.00  0.00    -0.301 NA
ATOM     35  C   UNL     1      21.262  12.131   1.092  0.00  0.00    +0.084 C 
ATOM     36  C   UNL     1      21.976  11.108   1.953  0.00  0.00    +0.017 C 
ATOM     37  C   UNL     1      22.051   9.878   1.067  0.00  0.00    +0.017 C 
ATOM     38  C   UNL     1      21.884  10.399  -0.358  0.00  0.00    +0.084 C 
ENDBRANCH  33  34
ENDBRANCH  32  33
ENDBRANCH  30  32
ENDBRANCH  26  28
ENDBRANCH  25  26
ENDBRANCH  24  25
ENDBRANCH   1  24
TORSDOF 13
