REMARK VINA RESULT:    -6.354      2.228      3.005
REMARK INTER + INTRA:         -13.909
REMARK INTER:                 -12.137
REMARK INTRA:                  -1.772
REMARK UNBOUND:                -2.911
REMARK  Name = lig_assembled_23.pdb
REMARK  13 active torsions:
REMARK  status: ('A' for Active; 'I' for Inactive)
REMARK    1  A    between atoms: _2  and  _9
REMARK    2  A    between atoms: _3  and  _44
REMARK    3  A    between atoms: _6  and  _7
REMARK    4  A    between atoms: _6  and  _16
REMARK    5  A    between atoms: _11  and  _44
REMARK    6  A    between atoms: _16  and  _18
REMARK    7  A    between atoms: _17  and  _22
REMARK    8  A    between atoms: _18  and  _21
REMARK    9  A    between atoms: _26  and  _36
REMARK   10  A    between atoms: _28  and  _29
REMARK   11  A    between atoms: _30  and  _32
REMARK   12  A    between atoms: _32  and  _34
REMARK   13  A    between atoms: _34  and  _36
REMARK                            x       y       z     vdW  Elec       q    Type
REMARK                         _______ _______ _______ _____ _____    ______ ____
ROOT
ATOM      1  C   UNL     1      27.511  15.049  -2.217  0.00  0.00    +0.400 C 
ATOM      2  N   UNL     1      27.860  15.541  -0.982  0.00  0.00    -0.278 N 
ATOM      3  H   UNL     1      27.733  14.700  -0.335  0.00  0.00    +0.152 HD
ATOM      4  O   UNL     1      27.337  13.838  -2.330  0.00  0.00    -0.226 OA
ENDROOT
BRANCH   2   5
ATOM      5  C   UNL     1      28.329  16.667  -0.178  0.00  0.00    +0.152 C 
BRANCH   5   6
ATOM      6  C   UNL     1      29.814  17.049  -0.345  0.00  0.00    +0.193 C 
ATOM      7  O   UNL     1      30.022  18.253   0.427  0.00  0.00    -0.219 OA
BRANCH   6   8
ATOM      8  C   UNL     1      30.871  16.059   0.193  0.00  0.00    +0.212 C 
ATOM      9  O   UNL     1      31.224  16.388   1.546  0.00  0.00    -0.218 OA
BRANCH   8  10
ATOM     10  C   UNL     1      30.400  14.556   0.145  0.00  0.00    +0.171 C 
ATOM     11  O   UNL     1      29.821  14.124   1.373  0.00  0.00    -0.343 OA
ATOM     12  C   UNL     1      29.545  12.792   1.688  0.00  0.00    +0.220 C 
ATOM     13  C   UNL     1      30.763  11.884   1.446  0.00  0.00    +0.076 C 
ATOM     14  C   UNL     1      31.238  12.122   0.003  0.00  0.00    +0.177 C 
ATOM     15  O   UNL     1      32.342  11.276  -0.287  0.00  0.00    -0.221 OA
ATOM     16  C   UNL     1      31.608  13.625  -0.200  0.00  0.00    +0.155 C 
BRANCH  16  17
ATOM     17  N   UNL     1      32.066  13.854  -1.568  0.00  0.00    -0.202 NA
ATOM     18  C   UNL     1      33.308  14.149  -2.029  0.00  0.00    +0.242 C 
ATOM     19  C   UNL     1      33.565  14.043  -3.509  0.00  0.00    +0.096 C 
ATOM     20  O   UNL     1      34.185  14.490  -1.237  0.00  0.00    -0.273 OA
ENDBRANCH  16  17
BRANCH  12  21
ATOM     21  C   UNL     1      28.215  12.215   0.955  0.00  0.00    +0.391 C 
ATOM     22  O   UNL     1      28.365  10.876   0.967  0.00  0.00    -0.243 OA
ATOM     23  O   UNL     1      27.355  13.239   0.891  0.00  0.00    -0.243 OA
ENDBRANCH  12  21
ENDBRANCH   8  10
ENDBRANCH   6   8
ENDBRANCH   5   6
ENDBRANCH   2   5
BRANCH   1  24
ATOM     24  O   UNL     1      27.367  15.930  -3.151  0.00  0.00    -0.450 OA
BRANCH  24  25
ATOM     25  C   UNL     1      26.340  16.531  -3.905  0.00  0.00    +0.240 C 
BRANCH  25  26
ATOM     26  C   UNL     1      25.603  15.649  -4.931  0.00  0.00    +0.100 C 
BRANCH  26  28
ATOM     27  N   UNL     1      24.106  13.683  -4.863  0.00  0.00    -0.134 NA
ATOM     28  C   UNL     1      24.615  14.791  -4.252  0.00  0.00    +0.086 A 
ATOM     29  C   UNL     1      24.056  14.911  -3.000  0.00  0.00    +0.139 A 
ATOM     30  N   UNL     1      23.209  13.832  -2.884  0.00  0.00    -0.220 N 
ATOM     31  N   UNL     1      23.251  13.107  -4.028  0.00  0.00    -0.061 NA
BRANCH  30  32
ATOM     32  C   UNL     1      22.379  13.463  -1.795  0.00  0.00    +0.069 A 
ATOM     33  C   UNL     1      22.822  12.486  -0.891  0.00  0.00    +0.056 A 
ATOM     34  C   UNL     1      21.990  12.094   0.164  0.00  0.00    +0.107 A 
ATOM     35  C   UNL     1      20.737  12.680   0.346  0.00  0.00    +0.028 A 
ATOM     36  C   UNL     1      20.304  13.661  -0.545  0.00  0.00    +0.004 A 
ATOM     37  C   UNL     1      21.118  14.050  -1.614  0.00  0.00    +0.028 A 
BRANCH  34  38
ATOM     38  S   UNL     1      22.540  10.820   1.259  0.00  0.00    +0.056 S 
ATOM     39  O   UNL     1      21.984   9.560   0.824  0.00  0.00    -0.153 OA
ATOM     40  O   UNL     1      23.947  10.999   1.530  0.00  0.00    -0.153 OA
BRANCH  38  41
ATOM     41  N   UNL     1      21.757  11.224   2.687  0.00  0.00    -0.204 NA
ATOM     42  H   UNL     1      20.764  11.376   2.510  0.00  0.00    +0.144 HD
ATOM     43  H   UNL     1      22.226  12.014   3.132  0.00  0.00    +0.144 HD
ENDBRANCH  38  41
ENDBRANCH  34  38
ENDBRANCH  30  32
ENDBRANCH  26  28
ENDBRANCH  25  26
ENDBRANCH  24  25
ENDBRANCH   1  24
TORSDOF 13
