REMARK VINA RESULT:    -7.054      1.825      2.240
REMARK INTER + INTRA:         -14.303
REMARK INTER:                 -12.458
REMARK INTRA:                  -1.845
REMARK UNBOUND:                -2.096
REMARK  Name = lig_assembled_88.pdb
REMARK  13 active torsions:
REMARK  status: ('A' for Active; 'I' for Inactive)
REMARK    1  A    between atoms: _2  and  _8
REMARK    2  A    between atoms: _4  and  _14
REMARK    3  A    between atoms: _5  and  _6
REMARK    4  A    between atoms: _5  and  _15
REMARK    5  A    between atoms: _8  and  _9
REMARK    6  A    between atoms: _15  and  _17
REMARK    7  A    between atoms: _16  and  _21
REMARK    8  A    between atoms: _17  and  _20
REMARK    9  A    between atoms: _25  and  _35
REMARK   10  A    between atoms: _27  and  _28
REMARK   11  A    between atoms: _29  and  _31
REMARK   12  A    between atoms: _31  and  _33
REMARK   13  A    between atoms: _33  and  _35
REMARK                            x       y       z     vdW  Elec       q    Type
REMARK                         _______ _______ _______ _____ _____    ______ ____
ROOT
ATOM      1  C   UNL     1      27.703  17.469  -1.261  0.00  0.00    +0.400 C 
ATOM      2  N   UNL     1      28.181  16.328  -0.660  0.00  0.00    -0.278 N 
ATOM      3  H   UNL     1      28.421  16.652   0.330  0.00  0.00    +0.152 HD
ATOM      4  O   UNL     1      27.496  18.453  -0.555  0.00  0.00    -0.226 OA
ENDROOT
BRANCH   1   5
ATOM      5  O   UNL     1      27.544  17.402  -2.542  0.00  0.00    -0.450 OA
BRANCH   5   6
ATOM      6  C   UNL     1      26.501  17.368  -3.489  0.00  0.00    +0.240 C 
BRANCH   6   7
ATOM      7  C   UNL     1      26.362  16.096  -4.347  0.00  0.00    +0.100 C 
BRANCH   7   9
ATOM      8  N   UNL     1      24.407  14.763  -5.077  0.00  0.00    -0.134 NA
ATOM      9  C   UNL     1      25.071  15.433  -4.083  0.00  0.00    +0.086 A 
ATOM     10  C   UNL     1      24.331  15.370  -2.924  0.00  0.00    +0.134 A 
ATOM     11  N   UNL     1      23.194  14.714  -3.298  0.00  0.00    -0.247 N 
ATOM     12  N   UNL     1      23.266  14.306  -4.579  0.00  0.00    -0.065 NA
BRANCH  11  13
ATOM     13  C   UNL     1      21.982  14.503  -2.521  0.00  0.00    +0.184 C 
BRANCH  13  14
ATOM     14  C   UNL     1      21.870  13.098  -1.962  0.00  0.00    +0.017 A 
ATOM     15  C   UNL     1      22.214  12.784  -0.632  0.00  0.00    +0.024 A 
ATOM     16  C   UNL     1      22.097  11.478  -0.151  0.00  0.00    +0.019 A 
ATOM     17 BR   UNL     1      22.617  11.086   1.624  0.00  0.00    -0.050 Br
ATOM     18  C   UNL     1      21.607  10.460  -0.964  0.00  0.00    +0.034 A 
ATOM     19  C   UNL     1      21.217  10.765  -2.265  0.00  0.00    +0.061 A 
ATOM     20 BR   UNL     1      20.515   9.382  -3.356  0.00  0.00    -0.046 Br
ATOM     21  C   UNL     1      21.343  12.071  -2.757  0.00  0.00    +0.136 A 
BRANCH  21  22
ATOM     22  O   UNL     1      20.948  12.384  -4.031  0.00  0.00    -0.505 OA
ATOM     23  H   UNL     1      21.031  11.576  -4.572  0.00  0.00    +0.292 HD
ENDBRANCH  21  22
ENDBRANCH  13  14
ENDBRANCH  11  13
ENDBRANCH   7   9
ENDBRANCH   6   7
ENDBRANCH   5   6
ENDBRANCH   1   5
BRANCH   2  24
ATOM     24  C   UNL     1      28.486  14.903  -0.760  0.00  0.00    +0.152 C 
BRANCH  24  25
ATOM     25  C   UNL     1      29.457  14.341   0.298  0.00  0.00    +0.193 C 
ATOM     26  O   UNL     1      29.644  12.942  -0.012  0.00  0.00    -0.219 OA
BRANCH  25  27
ATOM     27  C   UNL     1      30.888  14.921   0.336  0.00  0.00    +0.212 C 
ATOM     28  O   UNL     1      30.877  16.246   0.892  0.00  0.00    -0.218 OA
BRANCH  27  29
ATOM     29  C   UNL     1      31.899  14.037   1.161  0.00  0.00    +0.171 C 
ATOM     30  O   UNL     1      32.171  14.575   2.451  0.00  0.00    -0.343 OA
ATOM     31  C   UNL     1      33.201  14.137   3.287  0.00  0.00    +0.220 C 
ATOM     32  C   UNL     1      34.551  14.086   2.551  0.00  0.00    +0.076 C 
ATOM     33  C   UNL     1      34.351  13.249   1.276  0.00  0.00    +0.177 C 
ATOM     34  O   UNL     1      35.582  13.136   0.576  0.00  0.00    -0.221 OA
ATOM     35  C   UNL     1      33.246  13.890   0.380  0.00  0.00    +0.155 C 
BRANCH  35  36
ATOM     36  N   UNL     1      33.058  13.102  -0.835  0.00  0.00    -0.202 NA
ATOM     37  C   UNL     1      33.229  13.456  -2.134  0.00  0.00    +0.242 C 
ATOM     38  C   UNL     1      33.252  12.367  -3.175  0.00  0.00    +0.096 C 
ATOM     39  O   UNL     1      33.360  14.642  -2.428  0.00  0.00    -0.273 OA
ENDBRANCH  35  36
BRANCH  31  40
ATOM     40  C   UNL     1      32.874  12.731   4.034  0.00  0.00    +0.391 C 
ATOM     41  O   UNL     1      34.069  12.280   4.463  0.00  0.00    -0.243 OA
ATOM     42  O   UNL     1      31.547  12.702   4.203  0.00  0.00    -0.243 OA
ENDBRANCH  31  40
ENDBRANCH  27  29
ENDBRANCH  25  27
ENDBRANCH  24  25
ENDBRANCH   2  24
TORSDOF 13
