REMARK VINA RESULT:    -6.646      1.220      1.618
REMARK INTER + INTRA:         -13.184
REMARK INTER:                 -11.998
REMARK INTRA:                  -1.186
REMARK UNBOUND:                -2.263
REMARK  Name = lig_assembled_52.pdb
REMARK  11 active torsions:
REMARK  status: ('A' for Active; 'I' for Inactive)
REMARK    1  A    between atoms: _2  and  _9
REMARK    2  A    between atoms: _6  and  _7
REMARK    3  A    between atoms: _6  and  _13
REMARK    4  A    between atoms: _13  and  _15
REMARK    5  A    between atoms: _14  and  _19
REMARK    6  A    between atoms: _15  and  _18
REMARK    7  A    between atoms: _23  and  _33
REMARK    8  A    between atoms: _25  and  _26
REMARK    9  A    between atoms: _27  and  _29
REMARK   10  A    between atoms: _29  and  _31
REMARK   11  A    between atoms: _31  and  _33
REMARK                            x       y       z     vdW  Elec       q    Type
REMARK                         _______ _______ _______ _____ _____    ______ ____
ROOT
ATOM      1  C   UNL     1      29.094  15.167   0.063  0.00  0.00    +0.152 C 
ENDROOT
BRANCH   1   3
ATOM      2  C   UNL     1      27.894  17.446  -0.838  0.00  0.00    +0.400 C 
ATOM      3  N   UNL     1      28.551  16.517  -0.066  0.00  0.00    -0.278 N 
ATOM      4  H   UNL     1      28.723  17.035   0.852  0.00  0.00    +0.152 HD
ATOM      5  O   UNL     1      27.517  18.484  -0.299  0.00  0.00    -0.226 OA
BRANCH   2   6
ATOM      6  O   UNL     1      27.761  17.144  -2.087  0.00  0.00    -0.450 OA
BRANCH   6   7
ATOM      7  C   UNL     1      26.943  17.474  -3.185  0.00  0.00    +0.240 C 
BRANCH   7   8
ATOM      8  C   UNL     1      26.472  16.322  -4.093  0.00  0.00    +0.100 C 
BRANCH   8  10
ATOM      9  N   UNL     1      26.342  14.208  -2.814  0.00  0.00    -0.134 NA
ATOM     10  C   UNL     1      25.726  15.322  -3.307  0.00  0.00    +0.086 A 
ATOM     11  C   UNL     1      24.400  15.302  -2.937  0.00  0.00    +0.140 A 
ATOM     12  N   UNL     1      24.256  14.153  -2.193  0.00  0.00    -0.218 N 
ATOM     13  N   UNL     1      25.443  13.501  -2.144  0.00  0.00    -0.060 NA
BRANCH  12  14
ATOM     14  C   UNL     1      23.105  13.663  -1.541  0.00  0.00    +0.085 A 
ATOM     15  C   UNL     1      21.844  14.235  -1.736  0.00  0.00    +0.031 A 
ATOM     16  C   UNL     1      20.749  13.719  -1.045  0.00  0.00    +0.022 A 
ATOM     17  C   UNL     1      20.952  12.651  -0.187  0.00  0.00    +0.111 A 
ATOM     18  N   UNL     1      22.154  12.073   0.016  0.00  0.00    -0.261 NA
ATOM     19  C   UNL     1      23.208  12.589  -0.664  0.00  0.00    +0.138 A 
ENDBRANCH  12  14
ENDBRANCH   8  10
ENDBRANCH   7   8
ENDBRANCH   6   7
ENDBRANCH   2   6
ENDBRANCH   1   3
BRANCH   1  20
ATOM     20  C   UNL     1      30.470  15.051   0.749  0.00  0.00    +0.193 C 
ATOM     21  O   UNL     1      30.937  16.399   0.975  0.00  0.00    -0.219 OA
BRANCH  20  22
ATOM     22  C   UNL     1      30.520  14.387   2.143  0.00  0.00    +0.212 C 
ATOM     23  O   UNL     1      29.459  13.428   2.280  0.00  0.00    -0.218 OA
BRANCH  22  24
ATOM     24  C   UNL     1      31.891  13.668   2.443  0.00  0.00    +0.171 C 
ATOM     25  O   UNL     1      32.804  14.504   3.146  0.00  0.00    -0.343 OA
ATOM     26  C   UNL     1      34.159  14.214   3.326  0.00  0.00    +0.220 C 
ATOM     27  C   UNL     1      34.845  13.851   1.997  0.00  0.00    +0.076 C 
ATOM     28  C   UNL     1      34.024  12.727   1.345  0.00  0.00    +0.177 C 
ATOM     29  O   UNL     1      34.639  12.325   0.129  0.00  0.00    -0.221 OA
ATOM     30  C   UNL     1      32.557  13.201   1.108  0.00  0.00    +0.155 C 
BRANCH  30  31
ATOM     31  N   UNL     1      31.775  12.138   0.481  0.00  0.00    -0.202 NA
ATOM     32  C   UNL     1      31.462  11.946  -0.825  0.00  0.00    +0.242 C 
ATOM     33  C   UNL     1      30.894  10.612  -1.236  0.00  0.00    +0.096 C 
ATOM     34  O   UNL     1      31.649  12.852  -1.635  0.00  0.00    -0.273 OA
ENDBRANCH  30  31
BRANCH  26  35
ATOM     35  C   UNL     1      34.436  13.092   4.467  0.00  0.00    +0.391 C 
ATOM     36  O   UNL     1      35.629  12.556   4.146  0.00  0.00    -0.243 OA
ATOM     37  O   UNL     1      33.547  13.327   5.440  0.00  0.00    -0.243 OA
ENDBRANCH  26  35
ENDBRANCH  22  24
ENDBRANCH  20  22
ENDBRANCH   1  20
TORSDOF 11
