REMARK VINA RESULT:    -7.046      2.237      3.716
REMARK INTER + INTRA:         -14.607
REMARK INTER:                 -12.569
REMARK INTRA:                  -2.038
REMARK UNBOUND:                -1.794
REMARK  Name = lig_assembled_18.pdb
REMARK  14 active torsions:
REMARK  status: ('A' for Active; 'I' for Inactive)
REMARK    1  A    between atoms: _2  and  _9
REMARK    2  A    between atoms: _3  and  _11
REMARK    3  A    between atoms: _6  and  _7
REMARK    4  A    between atoms: _6  and  _16
REMARK    5  A    between atoms: _9  and  _10
REMARK    6  A    between atoms: _11  and  _12
REMARK    7  A    between atoms: _16  and  _18
REMARK    8  A    between atoms: _17  and  _22
REMARK    9  A    between atoms: _18  and  _21
REMARK   10  A    between atoms: _26  and  _36
REMARK   11  A    between atoms: _28  and  _29
REMARK   12  A    between atoms: _30  and  _32
REMARK   13  A    between atoms: _32  and  _34
REMARK   14  A    between atoms: _34  and  _36
REMARK                            x       y       z     vdW  Elec       q    Type
REMARK                         _______ _______ _______ _____ _____    ______ ____
ROOT
ATOM      1  C   UNL     1      28.245  17.243  -0.670  0.00  0.00    +0.400 C 
ATOM      2  N   UNL     1      28.969  16.241  -0.068  0.00  0.00    -0.278 N 
ATOM      3  H   UNL     1      29.168  16.631   0.907  0.00  0.00    +0.152 HD
ATOM      4  O   UNL     1      27.862  18.180   0.027  0.00  0.00    -0.226 OA
ENDROOT
BRANCH   2   5
ATOM      5  C   UNL     1      29.560  14.908  -0.156  0.00  0.00    +0.152 C 
BRANCH   5   6
ATOM      6  C   UNL     1      31.099  14.841  -0.072  0.00  0.00    +0.193 C 
ATOM      7  O   UNL     1      31.601  16.065  -0.651  0.00  0.00    -0.219 OA
BRANCH   6   8
ATOM      8  C   UNL     1      31.736  14.790   1.334  0.00  0.00    +0.212 C 
ATOM      9  O   UNL     1      31.293  15.904   2.127  0.00  0.00    -0.218 OA
BRANCH   8  10
ATOM     10  C   UNL     1      31.420  13.458   2.116  0.00  0.00    +0.171 C 
ATOM     11  O   UNL     1      30.207  13.533   2.857  0.00  0.00    -0.343 OA
ATOM     12  C   UNL     1      29.813  12.601   3.821  0.00  0.00    +0.220 C 
ATOM     13  C   UNL     1      30.928  12.337   4.848  0.00  0.00    +0.076 C 
ATOM     14  C   UNL     1      32.198  11.962   4.066  0.00  0.00    +0.177 C 
ATOM     15  O   UNL     1      33.252  11.668   4.972  0.00  0.00    -0.221 OA
ATOM     16  C   UNL     1      32.591  13.118   3.094  0.00  0.00    +0.155 C 
BRANCH  16  17
ATOM     17  N   UNL     1      33.801  12.769   2.355  0.00  0.00    -0.202 NA
ATOM     18  C   UNL     1      35.049  13.298   2.433  0.00  0.00    +0.242 C 
ATOM     19  C   UNL     1      36.182  12.557   1.772  0.00  0.00    +0.096 C 
ATOM     20  O   UNL     1      35.224  14.355   3.034  0.00  0.00    -0.273 OA
ENDBRANCH  16  17
BRANCH  12  21
ATOM     21  C   UNL     1      29.244  11.218   3.188  0.00  0.00    +0.391 C 
ATOM     22  O   UNL     1      29.215  10.350   4.218  0.00  0.00    -0.243 OA
ATOM     23  O   UNL     1      28.743  11.538   1.988  0.00  0.00    -0.243 OA
ENDBRANCH  12  21
ENDBRANCH   8  10
ENDBRANCH   6   8
ENDBRANCH   5   6
ENDBRANCH   2   5
BRANCH   1  24
ATOM     24  O   UNL     1      28.062  17.115  -1.943  0.00  0.00    -0.450 OA
BRANCH  24  25
ATOM     25  C   UNL     1      27.231  17.625  -2.959  0.00  0.00    +0.240 C 
BRANCH  25  26
ATOM     26  C   UNL     1      26.569  16.612  -3.912  0.00  0.00    +0.100 C 
BRANCH  26  28
ATOM     27  N   UNL     1      24.626  15.495  -2.853  0.00  0.00    -0.134 NA
ATOM     28  C   UNL     1      25.965  15.507  -3.145  0.00  0.00    +0.086 A 
ATOM     29  C   UNL     1      26.549  14.379  -2.615  0.00  0.00    +0.134 A 
ATOM     30  N   UNL     1      25.513  13.708  -2.040  0.00  0.00    -0.243 N 
ATOM     31  N   UNL     1      24.361  14.391  -2.165  0.00  0.00    -0.065 NA
BRANCH  30  32
ATOM     32  C   UNL     1      25.547  12.492  -1.259  0.00  0.00    +0.240 C 
BRANCH  32  33
ATOM     33  C   UNL     1      24.206  11.800  -1.220  0.00  0.00    +0.235 C 
ATOM     34  O   UNL     1      23.977  10.774  -1.860  0.00  0.00    -0.274 OA
ATOM     35  N   UNL     1      23.276  12.368  -0.371  0.00  0.00    -0.309 N 
ATOM     36  H   UNL     1      23.432  13.291   0.009  0.00  0.00    +0.149 HD
BRANCH  35  37
ATOM     37  C   UNL     1      21.950  11.805  -0.216  0.00  0.00    +0.146 C 
BRANCH  37  38
ATOM     38  C   UNL     1      20.998  12.505  -1.131  0.00  0.00    +0.007 A 
ATOM     39  S   UNL     1      20.627  11.853  -2.672  0.00  0.00    -0.100 S 
ATOM     40  C   UNL     1      19.616  13.178  -3.060  0.00  0.00    +0.045 A 
ATOM     41  C   UNL     1      19.547  14.095  -2.034  0.00  0.00    +0.008 A 
ATOM     42  C   UNL     1      20.339  13.702  -0.917  0.00  0.00    +0.013 A 
ENDBRANCH  37  38
ENDBRANCH  35  37
ENDBRANCH  32  33
ENDBRANCH  30  32
ENDBRANCH  26  28
ENDBRANCH  25  26
ENDBRANCH  24  25
ENDBRANCH   1  24
TORSDOF 14
