REMARK VINA RESULT:    -6.654      1.847      2.896
REMARK INTER + INTRA:         -12.741
REMARK INTER:                 -11.568
REMARK INTRA:                  -1.174
REMARK UNBOUND:                -1.808
REMARK  Name = lig_assembled_8.pdb
REMARK  11 active torsions:
REMARK  status: ('A' for Active; 'I' for Inactive)
REMARK    1  A    between atoms: _2  and  _8
REMARK    2  A    between atoms: _5  and  _6
REMARK    3  A    between atoms: _5  and  _13
REMARK    4  A    between atoms: _13  and  _15
REMARK    5  A    between atoms: _14  and  _19
REMARK    6  A    between atoms: _15  and  _18
REMARK    7  A    between atoms: _23  and  _33
REMARK    8  A    between atoms: _25  and  _26
REMARK    9  A    between atoms: _27  and  _29
REMARK   10  A    between atoms: _29  and  _31
REMARK   11  A    between atoms: _31  and  _33
REMARK                            x       y       z     vdW  Elec       q    Type
REMARK                         _______ _______ _______ _____ _____    ______ ____
ROOT
ATOM      1  C   UNL     1      27.986  17.936  -0.576  0.00  0.00    +0.400 C 
ATOM      2  N   UNL     1      29.147  17.507   0.023  0.00  0.00    -0.278 N 
ATOM      3  H   UNL     1      29.110  17.964   0.989  0.00  0.00    +0.152 HD
ATOM      4  O   UNL     1      27.160  18.526   0.116  0.00  0.00    -0.226 OA
ENDROOT
BRANCH   1   5
ATOM      5  O   UNL     1      27.890  17.699  -1.843  0.00  0.00    -0.450 OA
BRANCH   5   6
ATOM      6  C   UNL     1      27.510  16.655  -2.709  0.00  0.00    +0.240 C 
BRANCH   6   7
ATOM      7  C   UNL     1      26.344  16.925  -3.679  0.00  0.00    +0.100 C 
BRANCH   7   9
ATOM      8  N   UNL     1      24.837  15.142  -4.481  0.00  0.00    -0.134 NA
ATOM      9  C   UNL     1      25.267  15.940  -3.468  0.00  0.00    +0.086 A 
ATOM     10  C   UNL     1      24.551  15.641  -2.332  0.00  0.00    +0.139 A 
ATOM     11  N   UNL     1      23.690  14.619  -2.695  0.00  0.00    -0.219 N 
ATOM     12  N   UNL     1      23.884  14.355  -4.007  0.00  0.00    -0.061 NA
BRANCH  11  13
ATOM     13  C   UNL     1      22.755  13.919  -1.871  0.00  0.00    +0.081 A 
ATOM     14  C   UNL     1      23.258  12.955  -0.968  0.00  0.00    +0.029 A 
ATOM     15  C   UNL     1      22.408  12.212  -0.144  0.00  0.00    +0.002 A 
ATOM     16  C   UNL     1      21.038  12.412  -0.200  0.00  0.00    +0.001 A 
ATOM     17  C   UNL     1      20.520  13.362  -1.077  0.00  0.00    +0.017 A 
ATOM     18  C   UNL     1      21.361  14.121  -1.913  0.00  0.00    +0.043 A 
ATOM     19 BR   UNL     1      20.422  15.356  -3.017  0.00  0.00    -0.048 Br
ENDBRANCH  11  13
ENDBRANCH   7   9
ENDBRANCH   6   7
ENDBRANCH   5   6
ENDBRANCH   1   5
BRANCH   2  20
ATOM     20  C   UNL     1      30.370  16.713  -0.059  0.00  0.00    +0.152 C 
BRANCH  20  21
ATOM     21  C   UNL     1      30.266  15.251   0.421  0.00  0.00    +0.193 C 
ATOM     22  O   UNL     1      29.138  14.668  -0.268  0.00  0.00    -0.219 OA
BRANCH  21  23
ATOM     23  C   UNL     1      31.445  14.307   0.098  0.00  0.00    +0.212 C 
ATOM     24  O   UNL     1      32.441  14.994  -0.676  0.00  0.00    -0.218 OA
BRANCH  23  25
ATOM     25  C   UNL     1      32.131  13.704   1.383  0.00  0.00    +0.171 C 
ATOM     26  O   UNL     1      33.537  13.933   1.411  0.00  0.00    -0.343 OA
ATOM     27  C   UNL     1      34.419  13.308   2.295  0.00  0.00    +0.220 C 
ATOM     28  C   UNL     1      34.233  11.781   2.303  0.00  0.00    +0.076 C 
ATOM     29  C   UNL     1      32.744  11.498   2.566  0.00  0.00    +0.177 C 
ATOM     30  O   UNL     1      32.523  10.096   2.623  0.00  0.00    -0.221 OA
ATOM     31  C   UNL     1      31.867  12.165   1.462  0.00  0.00    +0.155 C 
BRANCH  31  32
ATOM     32  N   UNL     1      30.453  11.893   1.704  0.00  0.00    -0.202 NA
ATOM     33  C   UNL     1      29.636  12.353   2.686  0.00  0.00    +0.242 C 
ATOM     34  C   UNL     1      28.151  12.151   2.534  0.00  0.00    +0.096 C 
ATOM     35  O   UNL     1      30.121  12.918   3.664  0.00  0.00    -0.273 OA
ENDBRANCH  31  32
BRANCH  27  36
ATOM     36  C   UNL     1      34.373  13.923   3.798  0.00  0.00    +0.391 C 
ATOM     37  O   UNL     1      35.035  13.030   4.559  0.00  0.00    -0.243 OA
ATOM     38  O   UNL     1      33.973  15.194   3.666  0.00  0.00    -0.243 OA
ENDBRANCH  27  36
ENDBRANCH  23  25
ENDBRANCH  21  23
ENDBRANCH  20  21
ENDBRANCH   2  20
TORSDOF 11
