REMARK VINA RESULT:    -6.131      3.838      8.860
REMARK INTER + INTRA:         -12.272
REMARK INTER:                 -10.639
REMARK INTRA:                  -1.632
REMARK UNBOUND:                -1.839
REMARK  Name = lig_assembled_61.pdb
REMARK  12 active torsions:
REMARK  status: ('A' for Active; 'I' for Inactive)
REMARK    1  A    between atoms: _2  and  _8
REMARK    2  A    between atoms: _5  and  _6
REMARK    3  A    between atoms: _5  and  _12
REMARK    4  A    between atoms: _8  and  _9
REMARK    5  A    between atoms: _12  and  _14
REMARK    6  A    between atoms: _13  and  _18
REMARK    7  A    between atoms: _14  and  _17
REMARK    8  A    between atoms: _22  and  _32
REMARK    9  A    between atoms: _24  and  _25
REMARK   10  A    between atoms: _26  and  _28
REMARK   11  A    between atoms: _28  and  _30
REMARK   12  A    between atoms: _30  and  _32
REMARK                            x       y       z     vdW  Elec       q    Type
REMARK                         _______ _______ _______ _____ _____    ______ ____
ROOT
ATOM      1  C   UNL     1      27.287  15.422  -2.333  0.00  0.00    +0.152 C 
ENDROOT
BRANCH   1   3
ATOM      2  C   UNL     1      28.332  17.286  -0.636  0.00  0.00    +0.400 C 
ATOM      3  N   UNL     1      27.472  16.468  -1.330  0.00  0.00    -0.278 N 
ATOM      4  H   UNL     1      26.510  16.749  -0.960  0.00  0.00    +0.152 HD
ATOM      5  O   UNL     1      27.850  18.193   0.039  0.00  0.00    -0.226 OA
BRANCH   2   6
ATOM      6  O   UNL     1      29.587  16.995  -0.739  0.00  0.00    -0.450 OA
BRANCH   6   7
ATOM      7  C   UNL     1      30.580  16.287  -0.035  0.00  0.00    +0.240 C 
BRANCH   7   8
ATOM      8  C   UNL     1      30.509  14.748  -0.060  0.00  0.00    +0.100 C 
BRANCH   8  10
ATOM      9  N   UNL     1      30.706  13.895   2.254  0.00  0.00    -0.134 NA
ATOM     10  C   UNL     1      29.915  14.240   1.190  0.00  0.00    +0.086 A 
ATOM     11  C   UNL     1      28.594  14.027   1.522  0.00  0.00    +0.134 A 
ATOM     12  N   UNL     1      28.655  13.498   2.777  0.00  0.00    -0.247 N 
ATOM     13  N   UNL     1      29.921  13.459   3.231  0.00  0.00    -0.065 NA
BRANCH  12  14
ATOM     14  C   UNL     1      27.559  13.047   3.616  0.00  0.00    +0.180 C 
BRANCH  14  15
ATOM     15  C   UNL     1      27.576  11.554   3.801  0.00  0.00    -0.019 A 
ATOM     16  C   UNL     1      28.378  10.863   4.773  0.00  0.00    +0.013 A 
ATOM     17  C   UNL     1      28.236   9.494   4.706  0.00  0.00    +0.045 A 
ATOM     18  S   UNL     1      27.133   9.024   3.491  0.00  0.00    -0.105 S 
ATOM     19  C   UNL     1      26.852  10.649   3.043  0.00  0.00    +0.050 A 
ENDBRANCH  14  15
ENDBRANCH  12  14
ENDBRANCH   8  10
ENDBRANCH   7   8
ENDBRANCH   6   7
ENDBRANCH   2   6
ENDBRANCH   1   3
BRANCH   1  20
ATOM     20  C   UNL     1      26.012  15.526  -3.196  0.00  0.00    +0.193 C 
ATOM     21  O   UNL     1      26.405  16.134  -4.446  0.00  0.00    -0.219 OA
BRANCH  20  22
ATOM     22  C   UNL     1      25.320  14.209  -3.609  0.00  0.00    +0.212 C 
ATOM     23  O   UNL     1      26.281  13.281  -4.138  0.00  0.00    -0.218 OA
BRANCH  22  24
ATOM     24  C   UNL     1      24.545  13.513  -2.426  0.00  0.00    +0.171 C 
ATOM     25  O   UNL     1      25.070  12.228  -2.108  0.00  0.00    -0.343 OA
ATOM     26  C   UNL     1      24.435  11.300  -1.280  0.00  0.00    +0.220 C 
ATOM     27  C   UNL     1      22.970  11.074  -1.693  0.00  0.00    +0.076 C 
ATOM     28  C   UNL     1      22.291  12.452  -1.761  0.00  0.00    +0.177 C 
ATOM     29  O   UNL     1      20.921  12.298  -2.101  0.00  0.00    -0.221 OA
ATOM     30  C   UNL     1      23.031  13.366  -2.788  0.00  0.00    +0.155 C 
BRANCH  30  31
ATOM     31  N   UNL     1      22.385  14.673  -2.860  0.00  0.00    -0.202 NA
ATOM     32  C   UNL     1      21.771  15.281  -3.908  0.00  0.00    +0.242 C 
ATOM     33  C   UNL     1      20.931  16.501  -3.634  0.00  0.00    +0.096 C 
ATOM     34  O   UNL     1      21.913  14.827  -5.041  0.00  0.00    -0.273 OA
ENDBRANCH  30  31
BRANCH  26  35
ATOM     35  C   UNL     1      24.562  11.651   0.301  0.00  0.00    +0.391 C 
ATOM     36  O   UNL     1      25.602  12.503   0.386  0.00  0.00    -0.243 OA
ATOM     37  O   UNL     1      23.430  11.217   0.869  0.00  0.00    -0.243 OA
ENDBRANCH  26  35
ENDBRANCH  22  24
ENDBRANCH  20  22
ENDBRANCH   1  20
TORSDOF 12
