REMARK VINA RESULT:    -6.326      2.420      3.985
REMARK INTER + INTRA:         -15.384
REMARK INTER:                 -13.752
REMARK INTRA:                  -1.633
REMARK UNBOUND:                -2.957
REMARK  Name = lig_assembled_74.pdb
REMARK  19 active torsions:
REMARK  status: ('A' for Active; 'I' for Inactive)
REMARK    1  A    between atoms: _2  and  _8
REMARK    2  A    between atoms: _4  and  _13
REMARK    3  A    between atoms: _5  and  _6
REMARK    4  A    between atoms: _5  and  _17
REMARK    5  A    between atoms: _8  and  _9
REMARK    6  A    between atoms: _9  and  _10
REMARK    7  A    between atoms: _9  and  _12
REMARK    8  A    between atoms: _10  and  _11
REMARK    9  A    between atoms: _11  and  _15
REMARK   10  A    between atoms: _12  and  _13
REMARK   11  A    between atoms: _13  and  _14
REMARK   12  A    between atoms: _17  and  _19
REMARK   13  A    between atoms: _18  and  _23
REMARK   14  A    between atoms: _19  and  _22
REMARK   15  A    between atoms: _27  and  _37
REMARK   16  A    between atoms: _29  and  _30
REMARK   17  A    between atoms: _31  and  _33
REMARK   18  A    between atoms: _33  and  _35
REMARK   19  A    between atoms: _35  and  _37
REMARK                            x       y       z     vdW  Elec       q    Type
REMARK                         _______ _______ _______ _____ _____    ______ ____
ROOT
ATOM      1  C   UNL     1      28.869  17.100  -0.468  0.00  0.00    +0.400 C 
ATOM      2  N   UNL     1      29.039  15.981   0.313  0.00  0.00    -0.278 N 
ATOM      3  H   UNL     1      29.705  16.314   1.080  0.00  0.00    +0.152 HD
ATOM      4  O   UNL     1      29.312  18.168  -0.054  0.00  0.00    -0.226 OA
ENDROOT
BRANCH   1   5
ATOM      5  O   UNL     1      28.274  16.907  -1.599  0.00  0.00    -0.450 OA
BRANCH   5   6
ATOM      6  C   UNL     1      27.131  17.349  -2.294  0.00  0.00    +0.240 C 
BRANCH   6   7
ATOM      7  C   UNL     1      27.080  17.097  -3.813  0.00  0.00    +0.100 C 
BRANCH   7   9
ATOM      8  N   UNL     1      25.882  15.537  -5.329  0.00  0.00    -0.134 NA
ATOM      9  C   UNL     1      25.920  16.254  -4.163  0.00  0.00    +0.086 A 
ATOM     10  C   UNL     1      24.791  15.970  -3.425  0.00  0.00    +0.133 A 
ATOM     11  N   UNL     1      24.209  14.943  -4.113  0.00  0.00    -0.251 N 
ATOM     12  N   UNL     1      24.813  14.754  -5.301  0.00  0.00    -0.065 NA
BRANCH  11  13
ATOM     13  C   UNL     1      23.325  13.926  -3.576  0.00  0.00    +0.149 C 
BRANCH  13  14
ATOM     14  C   UNL     1      21.820  14.269  -3.606  0.00  0.00    +0.021 C 
BRANCH  14  15
ATOM     15  C   UNL     1      21.474  15.432  -4.559  0.00  0.00    +0.125 C 
BRANCH  15  16
ATOM     16  C   UNL     1      20.626  16.525  -3.944  0.00  0.00    +0.305 C 
ATOM     17  O   UNL     1      19.408  16.503  -3.865  0.00  0.00    -0.251 OA
BRANCH  16  18
ATOM     18  O   UNL     1      21.356  17.524  -3.416  0.00  0.00    -0.481 OA
ATOM     19  H   UNL     1      21.926  17.277  -2.666  0.00  0.00    +0.295 HD
ENDBRANCH  16  18
ENDBRANCH  15  16
ENDBRANCH  14  15
BRANCH  14  20
ATOM     20  C   UNL     1      21.322  14.505  -2.151  0.00  0.00    +0.009 C 
BRANCH  20  21
ATOM     21  C   UNL     1      20.354  13.442  -1.587  0.00  0.00    -0.017 C 
ATOM     22  C   UNL     1      19.961  12.402  -2.638  0.00  0.00    +0.007 C 
ATOM     23  C   UNL     1      20.983  12.725  -0.386  0.00  0.00    +0.007 C 
ENDBRANCH  20  21
ENDBRANCH  14  20
ENDBRANCH  13  14
ENDBRANCH  11  13
ENDBRANCH   7   9
ENDBRANCH   6   7
ENDBRANCH   5   6
ENDBRANCH   1   5
BRANCH   2  24
ATOM     24  C   UNL     1      28.714  14.580   0.567  0.00  0.00    +0.152 C 
BRANCH  24  25
ATOM     25  C   UNL     1      29.783  13.760   1.319  0.00  0.00    +0.193 C 
ATOM     26  O   UNL     1      29.224  12.445   1.531  0.00  0.00    -0.219 OA
BRANCH  25  27
ATOM     27  C   UNL     1      31.122  13.497   0.595  0.00  0.00    +0.212 C 
ATOM     28  O   UNL     1      31.541  14.667  -0.126  0.00  0.00    -0.218 OA
BRANCH  27  29
ATOM     29  C   UNL     1      32.283  13.062   1.569  0.00  0.00    +0.171 C 
ATOM     30  O   UNL     1      32.387  13.908   2.709  0.00  0.00    -0.343 OA
ATOM     31  C   UNL     1      33.465  13.904   3.598  0.00  0.00    +0.220 C 
ATOM     32  C   UNL     1      34.812  14.008   2.862  0.00  0.00    +0.076 C 
ATOM     33  C   UNL     1      34.845  12.897   1.798  0.00  0.00    +0.177 C 
ATOM     34  O   UNL     1      36.089  12.923   1.113  0.00  0.00    -0.221 OA
ATOM     35  C   UNL     1      33.650  13.065   0.809  0.00  0.00    +0.155 C 
BRANCH  35  36
ATOM     36  N   UNL     1      33.682  12.016  -0.207  0.00  0.00    -0.202 NA
ATOM     37  C   UNL     1      34.122  12.063  -1.490  0.00  0.00    +0.242 C 
ATOM     38  C   UNL     1      34.315  10.765  -2.229  0.00  0.00    +0.096 C 
ATOM     39  O   UNL     1      34.351  13.152  -2.013  0.00  0.00    -0.273 OA
ENDBRANCH  35  36
BRANCH  31  40
ATOM     40  C   UNL     1      33.445  12.651   4.632  0.00  0.00    +0.391 C 
ATOM     41  O   UNL     1      34.696  12.591   5.129  0.00  0.00    -0.243 OA
ATOM     42  O   UNL     1      32.155  12.352   4.826  0.00  0.00    -0.243 OA
ENDBRANCH  31  40
ENDBRANCH  27  29
ENDBRANCH  25  27
ENDBRANCH  24  25
ENDBRANCH   2  24
TORSDOF 17
