REMARK VINA RESULT:    -6.914      3.228      9.489
REMARK INTER + INTRA:         -12.779
REMARK INTER:                 -11.181
REMARK INTRA:                  -1.598
REMARK UNBOUND:                -1.418
REMARK  Name = lig_assembled_20.pdb
REMARK  11 active torsions:
REMARK  status: ('A' for Active; 'I' for Inactive)
REMARK    1  A    between atoms: _2  and  _10
REMARK    2  A    between atoms: _7  and  _8
REMARK    3  A    between atoms: _7  and  _16
REMARK    4  A    between atoms: _16  and  _18
REMARK    5  A    between atoms: _17  and  _22
REMARK    6  A    between atoms: _18  and  _21
REMARK    7  A    between atoms: _26  and  _36
REMARK    8  A    between atoms: _28  and  _29
REMARK    9  A    between atoms: _30  and  _32
REMARK   10  A    between atoms: _32  and  _34
REMARK   11  A    between atoms: _34  and  _36
REMARK                            x       y       z     vdW  Elec       q    Type
REMARK                         _______ _______ _______ _____ _____    ______ ____
ROOT
ATOM      1  C   UNL     1      28.236  17.365  -0.713  0.00  0.00    +0.400 C 
ATOM      2  N   UNL     1      27.494  16.399  -1.351  0.00  0.00    -0.278 N 
ATOM      3  H   UNL     1      26.499  16.586  -1.008  0.00  0.00    +0.152 HD
ATOM      4  O   UNL     1      27.637  18.251  -0.109  0.00  0.00    -0.226 OA
ENDROOT
BRANCH   1   5
ATOM      5  O   UNL     1      29.519  17.224  -0.787  0.00  0.00    -0.450 OA
BRANCH   5   6
ATOM      6  C   UNL     1      30.567  16.598  -0.084  0.00  0.00    +0.240 C 
BRANCH   6   7
ATOM      7  C   UNL     1      30.652  15.061  -0.154  0.00  0.00    +0.100 C 
BRANCH   7   9
ATOM      8  N   UNL     1      30.898  14.552   2.260  0.00  0.00    -0.134 NA
ATOM      9  C   UNL     1      31.409  14.533   0.995  0.00  0.00    +0.086 A 
ATOM     10  C   UNL     1      32.664  13.971   1.027  0.00  0.00    +0.139 A 
ATOM     11  N   UNL     1      32.882  13.654   2.348  0.00  0.00    -0.220 N 
ATOM     12  N   UNL     1      31.797  14.015   3.077  0.00  0.00    -0.061 NA
BRANCH  11  13
ATOM     13  C   UNL     1      34.023  13.046   2.932  0.00  0.00    +0.068 A 
ATOM     14  C   UNL     1      33.885  12.282   4.103  0.00  0.00    +0.030 A 
ATOM     15  C   UNL     1      34.991  11.664   4.704  0.00  0.00    +0.030 A 
ATOM     16  C   UNL     1      36.234  11.840   4.089  0.00  0.00    +0.066 A 
ATOM     17  C   UNL     1      36.403  12.591   2.932  0.00  0.00    +0.021 A 
ATOM     18  C   UNL     1      37.785  12.512   2.656  0.00  0.00    +0.142 A 
ATOM     19  N   UNL     1      38.448  11.778   3.551  0.00  0.00    -0.181 NA
ATOM     20  N   UNL     1      37.487  11.382   4.404  0.00  0.00    -0.277 N 
ATOM     21  H   UNL     1      37.750  10.799   5.190  0.00  0.00    +0.189 HD
ATOM     22  C   UNL     1      35.288  13.207   2.337  0.00  0.00    +0.039 A 
ENDBRANCH  11  13
ENDBRANCH   7   9
ENDBRANCH   6   7
ENDBRANCH   5   6
ENDBRANCH   1   5
BRANCH   2  23
ATOM     23  C   UNL     1      27.453  15.270  -2.276  0.00  0.00    +0.152 C 
BRANCH  23  24
ATOM     24  C   UNL     1      26.065  14.902  -2.839  0.00  0.00    +0.193 C 
ATOM     25  O   UNL     1      26.155  15.020  -4.276  0.00  0.00    -0.219 OA
BRANCH  24  26
ATOM     26  C   UNL     1      25.556  13.463  -2.601  0.00  0.00    +0.212 C 
ATOM     27  O   UNL     1      26.380  12.517  -3.302  0.00  0.00    -0.218 OA
BRANCH  26  28
ATOM     28  C   UNL     1      25.511  13.060  -1.078  0.00  0.00    +0.171 C 
ATOM     29  O   UNL     1      26.628  12.269  -0.687  0.00  0.00    -0.343 OA
ATOM     30  C   UNL     1      26.720  11.578   0.523  0.00  0.00    +0.220 C 
ATOM     31  C   UNL     1      25.473  10.717   0.785  0.00  0.00    +0.076 C 
ATOM     32  C   UNL     1      24.243  11.631   0.653  0.00  0.00    +0.177 C 
ATOM     33  O   UNL     1      23.061  10.891   0.925  0.00  0.00    -0.221 OA
ATOM     34  C   UNL     1      24.198  12.268  -0.771  0.00  0.00    +0.155 C 
BRANCH  34  35
ATOM     35  N   UNL     1      23.027  13.131  -0.903  0.00  0.00    -0.202 NA
ATOM     36  C   UNL     1      21.891  12.950  -1.623  0.00  0.00    +0.242 C 
ATOM     37  C   UNL     1      20.719  13.855  -1.351  0.00  0.00    +0.096 C 
ATOM     38  O   UNL     1      21.845  12.060  -2.471  0.00  0.00    -0.273 OA
ENDBRANCH  34  35
BRANCH  30  39
ATOM     39  C   UNL     1      27.060  12.536   1.790  0.00  0.00    +0.391 C 
ATOM     40  O   UNL     1      26.715  11.815   2.874  0.00  0.00    -0.243 OA
ATOM     41  O   UNL     1      27.817  13.531   1.310  0.00  0.00    -0.243 OA
ENDBRANCH  30  39
ENDBRANCH  26  28
ENDBRANCH  24  26
ENDBRANCH  23  24
ENDBRANCH   2  23
TORSDOF 11
