REMARK VINA RESULT:    -7.374      2.648     10.298
REMARK INTER + INTRA:         -16.424
REMARK INTER:                 -12.226
REMARK INTRA:                  -4.198
REMARK UNBOUND:                -3.231
REMARK  Name = lig_assembled_34.pdb
REMARK  14 active torsions:
REMARK  status: ('A' for Active; 'I' for Inactive)
REMARK    1  A    between atoms: _2  and  _8
REMARK    2  A    between atoms: _5  and  _6
REMARK    3  A    between atoms: _5  and  _32
REMARK    4  A    between atoms: _10  and  _11
REMARK    5  A    between atoms: _12  and  _13
REMARK    6  A    between atoms: _17  and  _30
REMARK    7  A    between atoms: _32  and  _34
REMARK    8  A    between atoms: _33  and  _38
REMARK    9  A    between atoms: _34  and  _37
REMARK   10  A    between atoms: _42  and  _52
REMARK   11  A    between atoms: _44  and  _45
REMARK   12  A    between atoms: _46  and  _48
REMARK   13  A    between atoms: _48  and  _50
REMARK   14  A    between atoms: _50  and  _52
REMARK                            x       y       z     vdW  Elec       q    Type
REMARK                         _______ _______ _______ _____ _____    ______ ____
ROOT
ATOM      1  N   UNL     1      32.301  14.174  -1.595  0.00  0.00    -0.134 NA
ATOM      2  C   UNL     1      32.441  12.986  -2.254  0.00  0.00    +0.086 A 
ATOM      3  C   UNL     1      31.235  12.330  -2.250  0.00  0.00    +0.139 A 
ATOM      4  N   UNL     1      30.360  13.170  -1.595  0.00  0.00    -0.220 N 
ATOM      5  N   UNL     1      31.039  14.275  -1.184  0.00  0.00    -0.061 NA
ENDROOT
BRANCH   4   6
ATOM      6  C   UNL     1      28.965  12.995  -1.393  0.00  0.00    +0.068 A 
ATOM      7  C   UNL     1      28.289  11.978  -2.077  0.00  0.00    +0.038 A 
ATOM      8  C   UNL     1      26.883  11.827  -2.024  0.00  0.00    +0.007 A 
ATOM      9  C   UNL     1      26.144  12.689  -1.190  0.00  0.00    -0.008 A 
ATOM     10  C   UNL     1      26.840  13.685  -0.463  0.00  0.00    +0.011 A 
ATOM     11  C   UNL     1      28.232  13.852  -0.573  0.00  0.00    +0.028 A 
BRANCH   9  12
ATOM     12  C   UNL     1      24.648  12.687  -1.072  0.00  0.00    +0.004 A 
ATOM     13  C   UNL     1      23.995  11.999  -0.094  0.00  0.00    +0.026 A 
ATOM     14  C   UNL     1      24.693  11.156   0.885  0.00  0.00    +0.016 A 
ATOM     15  C   UNL     1      24.022  10.343   1.715  0.00  0.00    +0.051 A 
ATOM     16  C   UNL     1      22.540  10.296   1.694  0.00  0.00    +0.183 A 
ATOM     17  O   UNL     1      21.916   9.511   2.403  0.00  0.00    -0.288 OA
ATOM     18  C   UNL     1      21.841  11.282   0.846  0.00  0.00    +0.097 A 
ATOM     19  C   UNL     1      22.528  12.099   0.038  0.00  0.00    +0.140 A 
ATOM     20  O   UNL     1      21.837  13.098  -0.631  0.00  0.00    -0.455 OA
ATOM     21  C   UNL     1      22.474  13.769  -1.641  0.00  0.00    +0.140 A 
ATOM     22  C   UNL     1      21.706  14.699  -2.344  0.00  0.00    +0.092 A 
ATOM     23  C   UNL     1      22.268  15.372  -3.416  0.00  0.00    +0.120 A 
ATOM     24  C   UNL     1      23.557  15.069  -3.842  0.00  0.00    +0.046 A 
ATOM     25  C   UNL     1      24.318  14.144  -3.120  0.00  0.00    +0.016 A 
ATOM     26  C   UNL     1      23.806  13.528  -1.969  0.00  0.00    +0.026 A 
BRANCH  23  27
ATOM     27  O   UNL     1      21.531  16.341  -4.030  0.00  0.00    -0.507 OA
ATOM     28  H   UNL     1      22.149  16.941  -4.478  0.00  0.00    +0.292 HD
ENDBRANCH  23  27
ENDBRANCH   9  12
BRANCH   8  29
ATOM     29  C   UNL     1      26.280  10.782  -2.943  0.00  0.00    +0.072 C 
ATOM     30  O   UNL     1      26.001  11.169  -4.124  0.00  0.00    -0.545 OA
ATOM     31  O   UNL     1      26.023   9.638  -2.464  0.00  0.00    -0.545 OA
ENDBRANCH   8  29
ENDBRANCH   4   6
BRANCH   2  32
ATOM     32  C   UNL     1      33.722  12.557  -2.849  0.00  0.00    +0.100 C 
BRANCH  32  33
ATOM     33  C   UNL     1      34.453  11.572  -1.917  0.00  0.00    +0.240 C 
BRANCH  33  34
ATOM     34  O   UNL     1      35.648  12.012  -1.315  0.00  0.00    -0.450 OA
BRANCH  34  35
ATOM     35  C   UNL     1      36.119  13.060  -0.721  0.00  0.00    +0.400 C 
ATOM     36  N   UNL     1      35.698  13.249   0.574  0.00  0.00    -0.278 N 
ATOM     37  H   UNL     1      36.338  14.028   0.931  0.00  0.00    +0.152 HD
ATOM     38  O   UNL     1      36.915  13.866  -1.195  0.00  0.00    -0.226 OA
BRANCH  36  39
ATOM     39  C   UNL     1      34.781  12.884   1.651  0.00  0.00    +0.152 C 
BRANCH  39  40
ATOM     40  C   UNL     1      33.277  13.032   1.342  0.00  0.00    +0.193 C 
ATOM     41  O   UNL     1      32.789  11.713   1.009  0.00  0.00    -0.219 OA
BRANCH  40  42
ATOM     42  C   UNL     1      32.355  13.505   2.487  0.00  0.00    +0.212 C 
ATOM     43  O   UNL     1      31.691  14.727   2.125  0.00  0.00    -0.218 OA
BRANCH  42  44
ATOM     44  C   UNL     1      31.264  12.441   2.892  0.00  0.00    +0.171 C 
ATOM     45  O   UNL     1      29.961  12.792   2.438  0.00  0.00    -0.343 OA
ATOM     46  C   UNL     1      28.785  12.165   2.857  0.00  0.00    +0.220 C 
ATOM     47  C   UNL     1      28.698  12.085   4.391  0.00  0.00    +0.076 C 
ATOM     48  C   UNL     1      29.995  11.430   4.895  0.00  0.00    +0.177 C 
ATOM     49  O   UNL     1      29.949  11.295   6.308  0.00  0.00    -0.221 OA
ATOM     50  C   UNL     1      31.230  12.271   4.446  0.00  0.00    +0.155 C 
BRANCH  50  51
ATOM     51  N   UNL     1      32.464  11.657   4.929  0.00  0.00    -0.202 NA
ATOM     52  C   UNL     1      33.414  12.155   5.761  0.00  0.00    +0.242 C 
ATOM     53  C   UNL     1      34.435  11.205   6.331  0.00  0.00    +0.096 C 
ATOM     54  O   UNL     1      33.418  13.355   6.029  0.00  0.00    -0.273 OA
ENDBRANCH  50  51
BRANCH  46  55
ATOM     55  C   UNL     1      28.545  10.714   2.168  0.00  0.00    +0.391 C 
ATOM     56  O   UNL     1      27.485  10.193   2.817  0.00  0.00    -0.243 OA
ATOM     57  O   UNL     1      29.274  10.712   1.045  0.00  0.00    -0.243 OA
ENDBRANCH  46  55
ENDBRANCH  42  44
ENDBRANCH  40  42
ENDBRANCH  39  40
ENDBRANCH  36  39
ENDBRANCH  34  35
ENDBRANCH  33  34
ENDBRANCH  32  33
ENDBRANCH   2  32
TORSDOF 14
