REMARK VINA RESULT:    -6.541      2.178      4.077
REMARK INTER + INTRA:         -12.971
REMARK INTER:                 -11.243
REMARK INTRA:                  -1.728
REMARK UNBOUND:                -1.841
REMARK  Name = lig_assembled_39.pdb
REMARK  12 active torsions:
REMARK  status: ('A' for Active; 'I' for Inactive)
REMARK    1  A    between atoms: _2  and  _8
REMARK    2  A    between atoms: _5  and  _6
REMARK    3  A    between atoms: _5  and  _14
REMARK    4  A    between atoms: _8  and  _9
REMARK    5  A    between atoms: _14  and  _16
REMARK    6  A    between atoms: _15  and  _20
REMARK    7  A    between atoms: _16  and  _19
REMARK    8  A    between atoms: _24  and  _34
REMARK    9  A    between atoms: _26  and  _27
REMARK   10  A    between atoms: _28  and  _30
REMARK   11  A    between atoms: _30  and  _32
REMARK   12  A    between atoms: _32  and  _34
REMARK                            x       y       z     vdW  Elec       q    Type
REMARK                         _______ _______ _______ _____ _____    ______ ____
ROOT
ATOM      1  C   UNL     1      28.052  14.676  -1.502  0.00  0.00    +0.400 C 
ATOM      2  N   UNL     1      28.207  14.346  -0.177  0.00  0.00    -0.278 N 
ATOM      3  H   UNL     1      27.941  13.311  -0.147  0.00  0.00    +0.152 HD
ATOM      4  O   UNL     1      27.853  13.769  -2.306  0.00  0.00    -0.226 OA
ENDROOT
BRANCH   2   5
ATOM      5  C   UNL     1      28.577  14.760   1.174  0.00  0.00    +0.152 C 
BRANCH   5   6
ATOM      6  C   UNL     1      28.625  13.645   2.238  0.00  0.00    +0.193 C 
ATOM      7  O   UNL     1      27.549  12.731   1.930  0.00  0.00    -0.219 OA
BRANCH   6   8
ATOM      8  C   UNL     1      29.886  12.754   2.284  0.00  0.00    +0.212 C 
ATOM      9  O   UNL     1      29.618  11.474   1.690  0.00  0.00    -0.218 OA
BRANCH   8  10
ATOM     10  C   UNL     1      31.130  13.395   1.559  0.00  0.00    +0.171 C 
ATOM     11  O   UNL     1      31.089  13.225   0.146  0.00  0.00    -0.343 OA
ATOM     12  C   UNL     1      32.164  13.474  -0.709  0.00  0.00    +0.220 C 
ATOM     13  C   UNL     1      33.449  12.775  -0.230  0.00  0.00    +0.076 C 
ATOM     14  C   UNL     1      33.679  13.183   1.234  0.00  0.00    +0.177 C 
ATOM     15  O   UNL     1      34.878  12.594   1.716  0.00  0.00    -0.221 OA
ATOM     16  C   UNL     1      32.453  12.767   2.107  0.00  0.00    +0.155 C 
BRANCH  16  17
ATOM     17  N   UNL     1      32.671  13.147   3.500  0.00  0.00    -0.202 NA
ATOM     18  C   UNL     1      32.738  12.369   4.611  0.00  0.00    +0.242 C 
ATOM     19  C   UNL     1      33.265  12.982   5.882  0.00  0.00    +0.096 C 
ATOM     20  O   UNL     1      32.373  11.197   4.555  0.00  0.00    -0.273 OA
ENDBRANCH  16  17
BRANCH  12  21
ATOM     21  C   UNL     1      32.414  15.055  -0.991  0.00  0.00    +0.391 C 
ATOM     22  O   UNL     1      31.312  15.670  -0.520  0.00  0.00    -0.243 OA
ATOM     23  O   UNL     1      33.712  15.175  -1.296  0.00  0.00    -0.243 OA
ENDBRANCH  12  21
ENDBRANCH   8  10
ENDBRANCH   6   8
ENDBRANCH   5   6
ENDBRANCH   2   5
BRANCH   1  24
ATOM     24  O   UNL     1      28.102  15.939  -1.774  0.00  0.00    -0.450 OA
BRANCH  24  25
ATOM     25  C   UNL     1      27.237  17.047  -1.863  0.00  0.00    +0.240 C 
BRANCH  25  26
ATOM     26  C   UNL     1      26.704  17.422  -3.259  0.00  0.00    +0.100 C 
BRANCH  26  28
ATOM     27  N   UNL     1      26.275  15.807  -5.085  0.00  0.00    -0.134 NA
ATOM     28  C   UNL     1      25.957  16.293  -3.844  0.00  0.00    +0.086 A 
ATOM     29  C   UNL     1      24.918  15.556  -3.322  0.00  0.00    +0.134 A 
ATOM     30  N   UNL     1      24.705  14.587  -4.258  0.00  0.00    -0.247 N 
ATOM     31  N   UNL     1      25.480  14.777  -5.343  0.00  0.00    -0.065 NA
BRANCH  30  32
ATOM     32  C   UNL     1      23.840  13.420  -4.158  0.00  0.00    +0.181 C 
BRANCH  32  33
ATOM     33  C   UNL     1      22.812  13.530  -3.046  0.00  0.00    -0.012 A 
ATOM     34  C   UNL     1      23.001  12.870  -1.814  0.00  0.00    +0.006 A 
ATOM     35  C   UNL     1      22.060  12.959  -0.784  0.00  0.00    +0.000 A 
ATOM     36  C   UNL     1      20.895  13.690  -0.970  0.00  0.00    +0.001 A 
ATOM     37  C   UNL     1      20.661  14.317  -2.192  0.00  0.00    +0.015 A 
ATOM     38  C   UNL     1      21.605  14.230  -3.225  0.00  0.00    +0.023 A 
ATOM     39 BR   UNL     1      21.150  15.077  -4.866  0.00  0.00    -0.050 Br
ENDBRANCH  32  33
ENDBRANCH  30  32
ENDBRANCH  26  28
ENDBRANCH  25  26
ENDBRANCH  24  25
ENDBRANCH   1  24
TORSDOF 12
