REMARK VINA RESULT:    -6.502      2.825      6.089
REMARK INTER + INTRA:         -13.577
REMARK INTER:                 -11.288
REMARK INTRA:                  -2.289
REMARK UNBOUND:                -2.513
REMARK  Name = lig_assembled_28.pdb
REMARK  12 active torsions:
REMARK  status: ('A' for Active; 'I' for Inactive)
REMARK    1  A    between atoms: _2  and  _8
REMARK    2  A    between atoms: _5  and  _6
REMARK    3  A    between atoms: _5  and  _17
REMARK    4  A    between atoms: _8  and  _9
REMARK    5  A    between atoms: _17  and  _19
REMARK    6  A    between atoms: _18  and  _23
REMARK    7  A    between atoms: _19  and  _22
REMARK    8  A    between atoms: _27  and  _37
REMARK    9  A    between atoms: _29  and  _30
REMARK   10  A    between atoms: _31  and  _33
REMARK   11  A    between atoms: _33  and  _35
REMARK   12  A    between atoms: _35  and  _37
REMARK                            x       y       z     vdW  Elec       q    Type
REMARK                         _______ _______ _______ _____ _____    ______ ____
ROOT
ATOM      1  C   UNL     1      31.620  15.400  -0.266  0.00  0.00    +0.400 C 
ATOM      2  N   UNL     1      31.557  14.545   0.810  0.00  0.00    -0.278 N 
ATOM      3  H   UNL     1      32.210  13.747   0.530  0.00  0.00    +0.152 HD
ATOM      4  O   UNL     1      32.465  15.182  -1.130  0.00  0.00    -0.226 OA
ENDROOT
BRANCH   2   5
ATOM      5  C   UNL     1      31.022  14.254   2.137  0.00  0.00    +0.152 C 
BRANCH   5   6
ATOM      6  C   UNL     1      30.248  12.927   2.281  0.00  0.00    +0.193 C 
ATOM      7  O   UNL     1      30.957  12.137   3.260  0.00  0.00    -0.219 OA
BRANCH   6   8
ATOM      8  C   UNL     1      28.801  12.998   2.818  0.00  0.00    +0.212 C 
ATOM      9  O   UNL     1      28.254  14.311   2.613  0.00  0.00    -0.218 OA
BRANCH   8  10
ATOM     10  C   UNL     1      27.837  11.941   2.156  0.00  0.00    +0.171 C 
ATOM     11  O   UNL     1      26.787  12.549   1.410  0.00  0.00    -0.343 OA
ATOM     12  C   UNL     1      25.666  11.869   0.929  0.00  0.00    +0.220 C 
ATOM     13  C   UNL     1      24.985  11.041   2.032  0.00  0.00    +0.076 C 
ATOM     14  C   UNL     1      26.060  10.146   2.670  0.00  0.00    +0.177 C 
ATOM     15  O   UNL     1      25.473   9.328   3.672  0.00  0.00    -0.221 OA
ATOM     16  C   UNL     1      27.211  11.023   3.255  0.00  0.00    +0.155 C 
BRANCH  16  17
ATOM     17  N   UNL     1      28.231  10.177   3.869  0.00  0.00    -0.202 NA
ATOM     18  C   UNL     1      28.702  10.170   5.142  0.00  0.00    +0.242 C 
ATOM     19  C   UNL     1      29.542   9.001   5.587  0.00  0.00    +0.096 C 
ATOM     20  O   UNL     1      28.436  11.106   5.893  0.00  0.00    -0.273 OA
ENDBRANCH  16  17
BRANCH  12  21
ATOM     21  C   UNL     1      25.971  10.971  -0.390  0.00  0.00    +0.391 C 
ATOM     22  O   UNL     1      24.907  10.153  -0.507  0.00  0.00    -0.243 OA
ATOM     23  O   UNL     1      26.987  11.572  -1.020  0.00  0.00    -0.243 OA
ENDBRANCH  12  21
ENDBRANCH   8  10
ENDBRANCH   6   8
ENDBRANCH   5   6
ENDBRANCH   2   5
BRANCH   1  24
ATOM     24  O   UNL     1      30.744  16.350  -0.278  0.00  0.00    -0.450 OA
BRANCH  24  25
ATOM     25  C   UNL     1      29.355  16.525  -0.125  0.00  0.00    +0.240 C 
BRANCH  25  26
ATOM     26  C   UNL     1      28.693  17.677  -0.906  0.00  0.00    +0.100 C 
BRANCH  26  28
ATOM     27  N   UNL     1      27.081  17.936  -2.771  0.00  0.00    -0.134 NA
ATOM     28  C   UNL     1      27.643  17.153  -1.799  0.00  0.00    +0.086 A 
ATOM     29  C   UNL     1      27.089  15.894  -1.859  0.00  0.00    +0.134 A 
ATOM     30  N   UNL     1      26.270  15.943  -2.951  0.00  0.00    -0.247 N 
ATOM     31  N   UNL     1      26.232  17.188  -3.464  0.00  0.00    -0.065 NA
BRANCH  30  32
ATOM     32  C   UNL     1      25.557  14.878  -3.644  0.00  0.00    +0.180 C 
BRANCH  32  33
ATOM     33  C   UNL     1      24.197  14.578  -3.058  0.00  0.00    -0.022 A 
ATOM     34  C   UNL     1      24.051  13.573  -2.087  0.00  0.00    +0.055 A 
ATOM     35  C   UNL     1      22.814  13.414  -1.500  0.00  0.00    +0.167 A 
ATOM     36  O   UNL     1      22.516  12.532  -0.508  0.00  0.00    -0.453 OA
ATOM     37  C   UNL     1      21.151  12.906  -0.220  0.00  0.00    +0.466 C 
ATOM     38  O   UNL     1      20.621  13.889  -1.135  0.00  0.00    -0.453 OA
ATOM     39  C   UNL     1      21.735  14.185  -1.857  0.00  0.00    +0.166 A 
ATOM     40  C   UNL     1      21.830  15.156  -2.831  0.00  0.00    +0.050 A 
ATOM     41  C   UNL     1      23.077  15.358  -3.431  0.00  0.00    +0.009 A 
ENDBRANCH  32  33
ENDBRANCH  30  32
ENDBRANCH  26  28
ENDBRANCH  25  26
ENDBRANCH  24  25
ENDBRANCH   1  24
TORSDOF 12
