REMARK VINA RESULT:    -6.557      2.220      3.904
REMARK INTER + INTRA:         -13.109
REMARK INTER:                 -11.431
REMARK INTRA:                  -1.678
REMARK UNBOUND:                -1.952
REMARK  Name = lig_assembled_44.pdb
REMARK  12 active torsions:
REMARK  status: ('A' for Active; 'I' for Inactive)
REMARK    1  A    between atoms: _2  and  _8
REMARK    2  A    between atoms: _5  and  _6
REMARK    3  A    between atoms: _5  and  _14
REMARK    4  A    between atoms: _8  and  _9
REMARK    5  A    between atoms: _14  and  _16
REMARK    6  A    between atoms: _15  and  _20
REMARK    7  A    between atoms: _16  and  _19
REMARK    8  A    between atoms: _24  and  _34
REMARK    9  A    between atoms: _26  and  _27
REMARK   10  A    between atoms: _28  and  _30
REMARK   11  A    between atoms: _30  and  _32
REMARK   12  A    between atoms: _32  and  _34
REMARK                            x       y       z     vdW  Elec       q    Type
REMARK                         _______ _______ _______ _____ _____    ______ ____
ROOT
ATOM      1  C   UNL     1      27.095  16.184  -2.417  0.00  0.00    +0.400 C 
ATOM      2  N   UNL     1      27.261  15.109  -1.575  0.00  0.00    -0.278 N 
ATOM      3  H   UNL     1      27.965  15.466  -0.855  0.00  0.00    +0.152 HD
ATOM      4  O   UNL     1      27.584  17.261  -2.085  0.00  0.00    -0.226 OA
ENDROOT
BRANCH   2   5
ATOM      5  C   UNL     1      26.906  13.737  -1.225  0.00  0.00    +0.152 C 
BRANCH   5   6
ATOM      6  C   UNL     1      27.699  12.625  -1.942  0.00  0.00    +0.193 C 
ATOM      7  O   UNL     1      28.026  13.129  -3.256  0.00  0.00    -0.219 OA
BRANCH   6   8
ATOM      8  C   UNL     1      29.059  12.213  -1.337  0.00  0.00    +0.212 C 
ATOM      9  O   UNL     1      30.053  12.100  -2.369  0.00  0.00    -0.218 OA
BRANCH   8  10
ATOM     10  C   UNL     1      29.583  13.215  -0.239  0.00  0.00    +0.171 C 
ATOM     11  O   UNL     1      30.735  13.937  -0.662  0.00  0.00    -0.343 OA
ATOM     12  C   UNL     1      31.541  14.701   0.185  0.00  0.00    +0.220 C 
ATOM     13  C   UNL     1      31.966  13.910   1.434  0.00  0.00    +0.076 C 
ATOM     14  C   UNL     1      30.690  13.352   2.085  0.00  0.00    +0.177 C 
ATOM     15  O   UNL     1      31.024  12.643   3.270  0.00  0.00    -0.221 OA
ATOM     16  C   UNL     1      29.927  12.440   1.075  0.00  0.00    +0.155 C 
BRANCH  16  17
ATOM     17  N   UNL     1      28.717  11.902   1.692  0.00  0.00    -0.202 NA
ATOM     18  C   UNL     1      27.667  12.552   2.255  0.00  0.00    +0.242 C 
ATOM     19  C   UNL     1      26.415  11.768   2.551  0.00  0.00    +0.096 C 
ATOM     20  O   UNL     1      27.759  13.752   2.506  0.00  0.00    -0.273 OA
ENDBRANCH  16  17
BRANCH  12  21
ATOM     21  C   UNL     1      30.888  16.135   0.580  0.00  0.00    +0.391 C 
ATOM     22  O   UNL     1      31.333  16.388   1.826  0.00  0.00    -0.243 OA
ATOM     23  O   UNL     1      30.417  16.654  -0.561  0.00  0.00    -0.243 OA
ENDBRANCH  12  21
ENDBRANCH   8  10
ENDBRANCH   6   8
ENDBRANCH   5   6
ENDBRANCH   2   5
BRANCH   1  24
ATOM     24  O   UNL     1      26.452  15.943  -3.512  0.00  0.00    -0.450 OA
BRANCH  24  25
ATOM     25  C   UNL     1      25.164  15.555  -3.931  0.00  0.00    +0.240 C 
BRANCH  25  26
ATOM     26  C   UNL     1      23.990  15.833  -2.973  0.00  0.00    +0.100 C 
BRANCH  26  28
ATOM     27  N   UNL     1      23.237  13.602  -3.746  0.00  0.00    -0.134 NA
ATOM     28  C   UNL     1      23.119  14.647  -2.867  0.00  0.00    +0.086 A 
ATOM     29  C   UNL     1      22.130  14.360  -1.957  0.00  0.00    +0.134 A 
ATOM     30  N   UNL     1      21.739  13.096  -2.285  0.00  0.00    -0.247 N 
ATOM     31  N   UNL     1      22.376  12.659  -3.386  0.00  0.00    -0.065 NA
BRANCH  30  32
ATOM     32  C   UNL     1      20.775  12.249  -1.607  0.00  0.00    +0.180 C 
BRANCH  32  33
ATOM     33  C   UNL     1      21.384  11.579  -0.398  0.00  0.00    -0.026 A 
ATOM     34  C   UNL     1      22.111  10.386  -0.532  0.00  0.00    +0.006 A 
ATOM     35  C   UNL     1      22.660   9.760   0.590  0.00  0.00    +0.015 A 
ATOM     36  C   UNL     1      22.485  10.325   1.852  0.00  0.00    +0.018 A 
ATOM     37 BR   UNL     1      23.243   9.487   3.367  0.00  0.00    -0.050 Br
ATOM     38  C   UNL     1      21.756  11.502   2.005  0.00  0.00    +0.015 A 
ATOM     39  C   UNL     1      21.202  12.124   0.882  0.00  0.00    +0.006 A 
ENDBRANCH  32  33
ENDBRANCH  30  32
ENDBRANCH  26  28
ENDBRANCH  25  26
ENDBRANCH  24  25
ENDBRANCH   1  24
TORSDOF 12
