REMARK VINA RESULT:    -7.773      1.690      2.675
REMARK INTER + INTRA:         -17.138
REMARK INTER:                 -12.786
REMARK INTRA:                  -4.352
REMARK UNBOUND:                -3.231
REMARK  Name = lig_assembled_34.pdb
REMARK  14 active torsions:
REMARK  status: ('A' for Active; 'I' for Inactive)
REMARK    1  A    between atoms: _2  and  _8
REMARK    2  A    between atoms: _5  and  _6
REMARK    3  A    between atoms: _5  and  _32
REMARK    4  A    between atoms: _10  and  _11
REMARK    5  A    between atoms: _12  and  _13
REMARK    6  A    between atoms: _17  and  _30
REMARK    7  A    between atoms: _32  and  _34
REMARK    8  A    between atoms: _33  and  _38
REMARK    9  A    between atoms: _34  and  _37
REMARK   10  A    between atoms: _42  and  _52
REMARK   11  A    between atoms: _44  and  _45
REMARK   12  A    between atoms: _46  and  _48
REMARK   13  A    between atoms: _48  and  _50
REMARK   14  A    between atoms: _50  and  _52
REMARK                            x       y       z     vdW  Elec       q    Type
REMARK                         _______ _______ _______ _____ _____    ______ ____
ROOT
ATOM      1  N   UNL     1      28.838  17.769  -1.195  0.00  0.00    -0.134 NA
ATOM      2  C   UNL     1      28.003  16.710  -1.410  0.00  0.00    +0.086 A 
ATOM      3  C   UNL     1      28.536  15.595  -0.812  0.00  0.00    +0.139 A 
ATOM      4  N   UNL     1      29.699  16.020  -0.208  0.00  0.00    -0.220 N 
ATOM      5  N   UNL     1      29.874  17.342  -0.477  0.00  0.00    -0.061 NA
ENDROOT
BRANCH   4   6
ATOM      6  C   UNL     1      30.584  15.270   0.612  0.00  0.00    +0.068 A 
ATOM      7  C   UNL     1      30.793  13.913   0.343  0.00  0.00    +0.038 A 
ATOM      8  C   UNL     1      31.559  13.076   1.190  0.00  0.00    +0.007 A 
ATOM      9  C   UNL     1      32.195  13.650   2.308  0.00  0.00    -0.008 A 
ATOM     10  C   UNL     1      32.018  15.035   2.547  0.00  0.00    +0.011 A 
ATOM     11  C   UNL     1      31.209  15.836   1.722  0.00  0.00    +0.028 A 
BRANCH   9  12
ATOM     12  C   UNL     1      32.991  12.885   3.324  0.00  0.00    +0.004 A 
ATOM     13  C   UNL     1      34.335  12.697   3.207  0.00  0.00    +0.026 A 
ATOM     14  C   UNL     1      35.105  13.172   2.050  0.00  0.00    +0.016 A 
ATOM     15  C   UNL     1      36.385  12.814   1.864  0.00  0.00    +0.051 A 
ATOM     16  C   UNL     1      37.077  11.948   2.848  0.00  0.00    +0.183 A 
ATOM     17  O   UNL     1      38.228  11.561   2.658  0.00  0.00    -0.288 OA
ATOM     18  C   UNL     1      36.362  11.632   4.099  0.00  0.00    +0.097 A 
ATOM     19  C   UNL     1      35.091  12.015   4.275  0.00  0.00    +0.140 A 
ATOM     20  O   UNL     1      34.509  11.817   5.519  0.00  0.00    -0.455 OA
ATOM     21  C   UNL     1      33.153  11.967   5.638  0.00  0.00    +0.140 A 
ATOM     22  C   UNL     1      32.606  11.667   6.886  0.00  0.00    +0.092 A 
ATOM     23  C   UNL     1      31.234  11.740   7.061  0.00  0.00    +0.120 A 
ATOM     24  C   UNL     1      30.400  12.030   5.987  0.00  0.00    +0.046 A 
ATOM     25  C   UNL     1      30.964  12.342   4.746  0.00  0.00    +0.016 A 
ATOM     26  C   UNL     1      32.355  12.376   4.572  0.00  0.00    +0.026 A 
BRANCH  23  27
ATOM     27  O   UNL     1      30.729  11.531   8.311  0.00  0.00    -0.507 OA
ATOM     28  H   UNL     1      30.704  12.388   8.765  0.00  0.00    +0.292 HD
ENDBRANCH  23  27
ENDBRANCH   9  12
BRANCH   8  29
ATOM     29  C   UNL     1      31.563  11.597   0.855  0.00  0.00    +0.072 C 
ATOM     30  O   UNL     1      30.592  10.915   1.318  0.00  0.00    -0.545 OA
ATOM     31  O   UNL     1      32.552  11.128   0.218  0.00  0.00    -0.545 OA
ENDBRANCH   8  29
ENDBRANCH   4   6
BRANCH   2  32
ATOM     32  C   UNL     1      26.746  16.834  -2.173  0.00  0.00    +0.100 C 
BRANCH  32  33
ATOM     33  C   UNL     1      26.452  15.541  -2.956  0.00  0.00    +0.240 C 
BRANCH  33  34
ATOM     34  O   UNL     1      25.111  15.116  -3.030  0.00  0.00    -0.450 OA
BRANCH  34  35
ATOM     35  C   UNL     1      24.284  14.362  -2.382  0.00  0.00    +0.400 C 
ATOM     36  N   UNL     1      24.476  13.008  -2.524  0.00  0.00    -0.278 N 
ATOM     37  H   UNL     1      23.839  12.588  -1.776  0.00  0.00    +0.152 HD
ATOM     38  O   UNL     1      23.380  14.745  -1.644  0.00  0.00    -0.226 OA
BRANCH  36  39
ATOM     39  C   UNL     1      25.133  11.912  -3.231  0.00  0.00    +0.152 C 
BRANCH  39  40
ATOM     40  C   UNL     1      26.325  11.253  -2.506  0.00  0.00    +0.193 C 
ATOM     41  O   UNL     1      27.097  12.323  -1.919  0.00  0.00    -0.219 OA
BRANCH  40  42
ATOM     42  C   UNL     1      26.009  10.312  -1.323  0.00  0.00    +0.212 C 
ATOM     43  O   UNL     1      26.991   9.266  -1.237  0.00  0.00    -0.218 OA
BRANCH  42  44
ATOM     44  C   UNL     1      25.942  11.055   0.066  0.00  0.00    +0.171 C 
ATOM     45  O   UNL     1      26.978  10.649   0.955  0.00  0.00    -0.343 OA
ATOM     46  C   UNL     1      27.014  10.959   2.317  0.00  0.00    +0.220 C 
ATOM     47  C   UNL     1      25.688  10.613   3.016  0.00  0.00    +0.076 C 
ATOM     48  C   UNL     1      24.557  11.294   2.227  0.00  0.00    +0.177 C 
ATOM     49  O   UNL     1      23.310  11.038   2.856  0.00  0.00    -0.221 OA
ATOM     50  C   UNL     1      24.559  10.796   0.748  0.00  0.00    +0.155 C 
BRANCH  50  51
ATOM     51  N   UNL     1      23.482  11.436  -0.003  0.00  0.00    -0.202 NA
ATOM     52  C   UNL     1      22.219  11.004  -0.247  0.00  0.00    +0.242 C 
ATOM     53  C   UNL     1      21.219  11.988  -0.797  0.00  0.00    +0.096 C 
ATOM     54  O   UNL     1      21.922   9.833  -0.015  0.00  0.00    -0.273 OA
ENDBRANCH  50  51
BRANCH  46  55
ATOM     55  C   UNL     1      27.468  12.489   2.620  0.00  0.00    +0.391 C 
ATOM     56  O   UNL     1      27.510  12.579   3.964  0.00  0.00    -0.243 OA
ATOM     57  O   UNL     1      27.912  12.981   1.457  0.00  0.00    -0.243 OA
ENDBRANCH  46  55
ENDBRANCH  42  44
ENDBRANCH  40  42
ENDBRANCH  39  40
ENDBRANCH  36  39
ENDBRANCH  34  35
ENDBRANCH  33  34
ENDBRANCH  32  33
ENDBRANCH   2  32
TORSDOF 14
