REMARK VINA RESULT:    -5.893      1.721      3.590
REMARK INTER + INTRA:         -14.535
REMARK INTER:                 -12.464
REMARK INTRA:                  -2.071
REMARK UNBOUND:                -2.957
REMARK  Name = lig_assembled_74.pdb
REMARK  19 active torsions:
REMARK  status: ('A' for Active; 'I' for Inactive)
REMARK    1  A    between atoms: _2  and  _8
REMARK    2  A    between atoms: _4  and  _13
REMARK    3  A    between atoms: _5  and  _6
REMARK    4  A    between atoms: _5  and  _17
REMARK    5  A    between atoms: _8  and  _9
REMARK    6  A    between atoms: _9  and  _10
REMARK    7  A    between atoms: _9  and  _12
REMARK    8  A    between atoms: _10  and  _11
REMARK    9  A    between atoms: _11  and  _15
REMARK   10  A    between atoms: _12  and  _13
REMARK   11  A    between atoms: _13  and  _14
REMARK   12  A    between atoms: _17  and  _19
REMARK   13  A    between atoms: _18  and  _23
REMARK   14  A    between atoms: _19  and  _22
REMARK   15  A    between atoms: _27  and  _37
REMARK   16  A    between atoms: _29  and  _30
REMARK   17  A    between atoms: _31  and  _33
REMARK   18  A    between atoms: _33  and  _35
REMARK   19  A    between atoms: _35  and  _37
REMARK                            x       y       z     vdW  Elec       q    Type
REMARK                         _______ _______ _______ _____ _____    ______ ____
ROOT
ATOM      1  C   UNL     1      27.999  17.255  -0.873  0.00  0.00    +0.400 C 
ATOM      2  N   UNL     1      28.649  16.238  -0.214  0.00  0.00    -0.278 N 
ATOM      3  H   UNL     1      28.856  16.659   0.747  0.00  0.00    +0.152 HD
ATOM      4  O   UNL     1      27.662  18.243  -0.225  0.00  0.00    -0.226 OA
ENDROOT
BRANCH   1   5
ATOM      5  O   UNL     1      27.829  17.081  -2.142  0.00  0.00    -0.450 OA
BRANCH   5   6
ATOM      6  C   UNL     1      26.969  17.507  -3.173  0.00  0.00    +0.240 C 
BRANCH   6   7
ATOM      7  C   UNL     1      26.210  16.421  -3.960  0.00  0.00    +0.100 C 
BRANCH   7   9
ATOM      8  N   UNL     1      24.092  15.715  -2.873  0.00  0.00    -0.134 NA
ATOM      9  C   UNL     1      25.442  15.555  -3.046  0.00  0.00    +0.086 A 
ATOM     10  C   UNL     1      25.860  14.461  -2.319  0.00  0.00    +0.133 A 
ATOM     11  N   UNL     1      24.693  13.900  -1.883  0.00  0.00    -0.251 N 
ATOM     12  N   UNL     1      23.646  14.708  -2.136  0.00  0.00    -0.065 NA
BRANCH  11  13
ATOM     13  C   UNL     1      24.472  12.510  -1.534  0.00  0.00    +0.149 C 
BRANCH  13  14
ATOM     14  C   UNL     1      24.660  12.161  -0.041  0.00  0.00    +0.021 C 
BRANCH  14  15
ATOM     15  C   UNL     1      26.117  11.814   0.329  0.00  0.00    +0.125 C 
BRANCH  15  16
ATOM     16  C   UNL     1      26.312  11.320   1.747  0.00  0.00    +0.305 C 
ATOM     17  O   UNL     1      26.634  10.184   2.053  0.00  0.00    -0.251 OA
BRANCH  16  18
ATOM     18  O   UNL     1      26.159  12.290   2.667  0.00  0.00    -0.481 OA
ATOM     19  H   UNL     1      25.482  12.120   3.346  0.00  0.00    +0.295 HD
ENDBRANCH  16  18
ENDBRANCH  15  16
ENDBRANCH  14  15
BRANCH  14  20
ATOM     20  C   UNL     1      23.650  11.044   0.352  0.00  0.00    +0.009 C 
BRANCH  20  21
ATOM     21  C   UNL     1      22.530  11.460   1.330  0.00  0.00    -0.017 C 
ATOM     22  C   UNL     1      21.280  11.956   0.601  0.00  0.00    +0.007 C 
ATOM     23  C   UNL     1      22.146  10.286   2.238  0.00  0.00    +0.007 C 
ENDBRANCH  20  21
ENDBRANCH  14  20
ENDBRANCH  13  14
ENDBRANCH  11  13
ENDBRANCH   7   9
ENDBRANCH   6   7
ENDBRANCH   5   6
ENDBRANCH   1   5
BRANCH   2  24
ATOM     24  C   UNL     1      29.159  14.870  -0.232  0.00  0.00    +0.152 C 
BRANCH  24  25
ATOM     25  C   UNL     1      29.437  14.229   1.143  0.00  0.00    +0.193 C 
ATOM     26  O   UNL     1      28.207  14.315   1.897  0.00  0.00    -0.219 OA
BRANCH  25  27
ATOM     27  C   UNL     1      29.802  12.729   1.173  0.00  0.00    +0.212 C 
ATOM     28  O   UNL     1      29.768  12.178  -0.154  0.00  0.00    -0.218 OA
BRANCH  27  29
ATOM     29  C   UNL     1      31.220  12.444   1.800  0.00  0.00    +0.171 C 
ATOM     30  O   UNL     1      31.226  12.567   3.218  0.00  0.00    -0.343 OA
ATOM     31  C   UNL     1      32.383  12.609   4.001  0.00  0.00    +0.220 C 
ATOM     32  C   UNL     1      33.390  13.648   3.475  0.00  0.00    +0.076 C 
ATOM     33  C   UNL     1      33.626  13.350   1.986  0.00  0.00    +0.177 C 
ATOM     34  O   UNL     1      34.583  14.259   1.459  0.00  0.00    -0.221 OA
ATOM     35  C   UNL     1      32.280  13.426   1.201  0.00  0.00    +0.155 C 
BRANCH  35  36
ATOM     36  N   UNL     1      32.501  13.151  -0.216  0.00  0.00    -0.202 NA
ATOM     37  C   UNL     1      32.702  14.011  -1.246  0.00  0.00    +0.242 C 
ATOM     38  C   UNL     1      33.198  13.456  -2.556  0.00  0.00    +0.096 C 
ATOM     39  O   UNL     1      32.478  15.210  -1.089  0.00  0.00    -0.273 OA
ENDBRANCH  35  36
BRANCH  31  40
ATOM     40  C   UNL     1      33.077  11.155   4.207  0.00  0.00    +0.391 C 
ATOM     41  O   UNL     1      32.219  10.278   3.651  0.00  0.00    -0.243 OA
ATOM     42  O   UNL     1      34.344  11.398   4.567  0.00  0.00    -0.243 OA
ENDBRANCH  31  40
ENDBRANCH  27  29
ENDBRANCH  25  27
ENDBRANCH  24  25
ENDBRANCH   2  24
TORSDOF 17
