REMARK VINA RESULT:    -6.219      2.923      5.243
REMARK INTER + INTRA:         -13.795
REMARK INTER:                 -12.373
REMARK INTRA:                  -1.422
REMARK UNBOUND:                -2.486
REMARK  Name = lig_assembled_29.pdb
REMARK  16 active torsions:
REMARK  status: ('A' for Active; 'I' for Inactive)
REMARK    1  A    between atoms: _2  and  _8
REMARK    2  A    between atoms: _5  and  _6
REMARK    3  A    between atoms: _5  and  _18
REMARK    4  A    between atoms: _8  and  _9
REMARK    5  A    between atoms: _11  and  _17
REMARK    6  A    between atoms: _12  and  _17
REMARK    7  A    between atoms: _13  and  _16
REMARK    8  A    between atoms: _14  and  _16
REMARK    9  A    between atoms: _18  and  _20
REMARK   10  A    between atoms: _19  and  _24
REMARK   11  A    between atoms: _20  and  _23
REMARK   12  A    between atoms: _28  and  _38
REMARK   13  A    between atoms: _30  and  _31
REMARK   14  A    between atoms: _32  and  _34
REMARK   15  A    between atoms: _34  and  _36
REMARK   16  A    between atoms: _36  and  _38
REMARK                            x       y       z     vdW  Elec       q    Type
REMARK                         _______ _______ _______ _____ _____    ______ ____
ROOT
ATOM      1  C   UNL     1      32.142  15.278  -0.504  0.00  0.00    +0.400 C 
ATOM      2  N   UNL     1      32.287  14.527   0.638  0.00  0.00    -0.278 N 
ATOM      3  H   UNL     1      32.905  13.714   0.322  0.00  0.00    +0.152 HD
ATOM      4  O   UNL     1      32.835  14.992  -1.478  0.00  0.00    -0.226 OA
ENDROOT
BRANCH   2   5
ATOM      5  C   UNL     1      31.994  14.352   2.058  0.00  0.00    +0.152 C 
BRANCH   5   6
ATOM      6  C   UNL     1      32.775  13.235   2.781  0.00  0.00    +0.193 C 
ATOM      7  O   UNL     1      33.211  13.785   4.044  0.00  0.00    -0.219 OA
BRANCH   6   8
ATOM      8  C   UNL     1      32.001  11.955   3.165  0.00  0.00    +0.212 C 
ATOM      9  O   UNL     1      32.765  10.786   2.826  0.00  0.00    -0.218 OA
BRANCH   8  10
ATOM     10  C   UNL     1      31.626  11.886   4.694  0.00  0.00    +0.171 C 
ATOM     11  O   UNL     1      32.578  11.155   5.459  0.00  0.00    -0.343 OA
ATOM     12  C   UNL     1      32.376  10.734   6.776  0.00  0.00    +0.220 C 
ATOM     13  C   UNL     1      31.036   9.995   6.939  0.00  0.00    +0.076 C 
ATOM     14  C   UNL     1      29.933  10.906   6.374  0.00  0.00    +0.177 C 
ATOM     15  O   UNL     1      28.666  10.286   6.536  0.00  0.00    -0.221 OA
ATOM     16  C   UNL     1      30.219  11.228   4.874  0.00  0.00    +0.155 C 
BRANCH  16  17
ATOM     17  N   UNL     1      29.170  12.087   4.331  0.00  0.00    -0.202 NA
ATOM     18  C   UNL     1      28.248  11.830   3.368  0.00  0.00    +0.242 C 
ATOM     19  C   UNL     1      27.096  12.787   3.206  0.00  0.00    +0.096 C 
ATOM     20  O   UNL     1      28.372  10.833   2.660  0.00  0.00    -0.273 OA
ENDBRANCH  16  17
BRANCH  12  21
ATOM     21  C   UNL     1      32.537  11.926   7.868  0.00  0.00    +0.391 C 
ATOM     22  O   UNL     1      32.064  11.409   9.019  0.00  0.00    -0.243 OA
ATOM     23  O   UNL     1      33.337  12.839   7.304  0.00  0.00    -0.243 OA
ENDBRANCH  12  21
ENDBRANCH   8  10
ENDBRANCH   6   8
ENDBRANCH   5   6
ENDBRANCH   2   5
BRANCH   1  24
ATOM     24  O   UNL     1      31.252  16.213  -0.450  0.00  0.00    -0.450 OA
BRANCH  24  25
ATOM     25  C   UNL     1      29.963  16.432   0.076  0.00  0.00    +0.240 C 
BRANCH  25  26
ATOM     26  C   UNL     1      29.140  17.590  -0.519  0.00  0.00    +0.100 C 
BRANCH  26  28
ATOM     27  N   UNL     1      27.326  17.902  -2.181  0.00  0.00    -0.134 NA
ATOM     28  C   UNL     1      28.063  17.068  -1.381  0.00  0.00    +0.086 A 
ATOM     29  C   UNL     1      27.638  15.774  -1.566  0.00  0.00    +0.134 A 
ATOM     30  N   UNL     1      26.706  15.873  -2.558  0.00  0.00    -0.247 N 
ATOM     31  N   UNL     1      26.488  17.158  -2.893  0.00  0.00    -0.065 NA
BRANCH  30  32
ATOM     32  C   UNL     1      26.027  14.801  -3.262  0.00  0.00    +0.180 C 
BRANCH  32  33
ATOM     33  C   UNL     1      24.739  14.432  -2.562  0.00  0.00    -0.022 A 
ATOM     34  C   UNL     1      23.532  15.054  -2.928  0.00  0.00    +0.054 A 
ATOM     35  C   UNL     1      22.319  14.665  -2.343  0.00  0.00    +0.162 A 
ATOM     36  C   UNL     1      22.310  13.645  -1.370  0.00  0.00    +0.162 A 
ATOM     37  C   UNL     1      23.511  13.028  -1.008  0.00  0.00    +0.050 A 
ATOM     38  C   UNL     1      24.716  13.420  -1.598  0.00  0.00    +0.009 A 
BRANCH  36  39
ATOM     39  O   UNL     1      21.084  13.325  -0.839  0.00  0.00    -0.491 OA
ATOM     40  C   UNL     1      21.034  12.285   0.127  0.00  0.00    +0.277 C 
ENDBRANCH  36  39
BRANCH  35  41
ATOM     41  O   UNL     1      21.098  15.208  -2.660  0.00  0.00    -0.491 OA
ATOM     42  C   UNL     1      21.075  16.318  -3.546  0.00  0.00    +0.277 C 
ENDBRANCH  35  41
ENDBRANCH  32  33
ENDBRANCH  30  32
ENDBRANCH  26  28
ENDBRANCH  25  26
ENDBRANCH  24  25
ENDBRANCH   1  24
TORSDOF 14
