REMARK VINA RESULT:    -7.122      2.190      4.084
REMARK INTER + INTRA:         -14.850
REMARK INTER:                 -13.543
REMARK INTRA:                  -1.307
REMARK UNBOUND:                -2.732
REMARK  Name = lig_assembled_85.pdb
REMARK  14 active torsions:
REMARK  status: ('A' for Active; 'I' for Inactive)
REMARK    1  A    between atoms: _2  and  _9
REMARK    2  A    between atoms: _3  and  _5
REMARK    3  A    between atoms: _3  and  _16
REMARK    4  A    between atoms: _6  and  _7
REMARK    5  A    between atoms: _6  and  _18
REMARK    6  A    between atoms: _14  and  _15
REMARK    7  A    between atoms: _18  and  _20
REMARK    8  A    between atoms: _19  and  _24
REMARK    9  A    between atoms: _20  and  _23
REMARK   10  A    between atoms: _28  and  _38
REMARK   11  A    between atoms: _30  and  _31
REMARK   12  A    between atoms: _32  and  _34
REMARK   13  A    between atoms: _34  and  _36
REMARK   14  A    between atoms: _36  and  _38
REMARK                            x       y       z     vdW  Elec       q    Type
REMARK                         _______ _______ _______ _____ _____    ______ ____
ROOT
ATOM      1  C   UNL     1      28.134  16.899  -0.697  0.00  0.00    +0.400 C 
ATOM      2  N   UNL     1      28.356  15.824   0.131  0.00  0.00    -0.278 N 
ATOM      3  H   UNL     1      28.745  16.273   1.020  0.00  0.00    +0.152 HD
ATOM      4  O   UNL     1      28.235  18.027  -0.221  0.00  0.00    -0.226 OA
ENDROOT
BRANCH   2   5
ATOM      5  C   UNL     1      28.287  14.380   0.341  0.00  0.00    +0.152 C 
BRANCH   5   6
ATOM      6  C   UNL     1      28.347  13.903   1.806  0.00  0.00    +0.193 C 
ATOM      7  O   UNL     1      27.286  12.937   1.972  0.00  0.00    -0.219 OA
BRANCH   6   8
ATOM      8  C   UNL     1      29.620  13.159   2.265  0.00  0.00    +0.212 C 
ATOM      9  O   UNL     1      29.508  11.754   1.987  0.00  0.00    -0.218 OA
BRANCH   8  10
ATOM     10  C   UNL     1      30.938  13.702   1.590  0.00  0.00    +0.171 C 
ATOM     11  O   UNL     1      30.896  13.628   0.169  0.00  0.00    -0.343 OA
ATOM     12  C   UNL     1      32.003  13.809  -0.663  0.00  0.00    +0.220 C 
ATOM     13  C   UNL     1      33.195  12.942  -0.223  0.00  0.00    +0.076 C 
ATOM     14  C   UNL     1      33.450  13.227   1.266  0.00  0.00    +0.177 C 
ATOM     15  O   UNL     1      34.571  12.478   1.715  0.00  0.00    -0.221 OA
ATOM     16  C   UNL     1      32.176  12.896   2.103  0.00  0.00    +0.155 C 
BRANCH  16  17
ATOM     17  N   UNL     1      32.416  13.159   3.519  0.00  0.00    -0.202 NA
ATOM     18  C   UNL     1      32.454  12.298   4.567  0.00  0.00    +0.242 C 
ATOM     19  C   UNL     1      33.014  12.789   5.877  0.00  0.00    +0.096 C 
ATOM     20  O   UNL     1      32.038  11.150   4.426  0.00  0.00    -0.273 OA
ENDBRANCH  16  17
BRANCH  12  21
ATOM     21  C   UNL     1      32.431  15.366  -0.840  0.00  0.00    +0.391 C 
ATOM     22  O   UNL     1      33.568  15.335  -1.563  0.00  0.00    -0.243 OA
ATOM     23  O   UNL     1      31.363  16.087  -0.476  0.00  0.00    -0.243 OA
ENDBRANCH  12  21
ENDBRANCH   8  10
ENDBRANCH   6   8
ENDBRANCH   5   6
ENDBRANCH   2   5
BRANCH   1  24
ATOM     24  O   UNL     1      27.865  16.612  -1.928  0.00  0.00    -0.450 OA
BRANCH  24  25
ATOM     25  C   UNL     1      26.835  16.804  -2.870  0.00  0.00    +0.240 C 
BRANCH  25  26
ATOM     26  C   UNL     1      26.255  15.551  -3.554  0.00  0.00    +0.100 C 
BRANCH  26  28
ATOM     27  N   UNL     1      23.938  15.560  -2.702  0.00  0.00    -0.134 NA
ATOM     28  C   UNL     1      25.172  14.979  -2.735  0.00  0.00    +0.086 A 
ATOM     29  C   UNL     1      25.159  13.835  -1.967  0.00  0.00    +0.139 A 
ATOM     30  N   UNL     1      23.875  13.757  -1.484  0.00  0.00    -0.219 N 
ATOM     31  N   UNL     1      23.148  14.796  -1.961  0.00  0.00    -0.061 NA
BRANCH  30  32
ATOM     32  C   UNL     1      23.270  12.752  -0.700  0.00  0.00    +0.080 A 
ATOM     33  C   UNL     1      21.882  12.565  -0.590  0.00  0.00    +0.062 A 
ATOM     34  C   UNL     1      21.417  11.689   0.418  0.00  0.00    +0.016 A 
ATOM     35  C   UNL     1      22.293  11.004   1.267  0.00  0.00    +0.021 A 
ATOM     36  C   UNL     1      23.661  11.147   1.093  0.00  0.00    +0.043 A 
ATOM     37 CL   UNL     1      24.752  10.341   2.150  0.00  0.00    -0.083 Cl
ATOM     38  C   UNL     1      24.152  11.991   0.101  0.00  0.00    +0.048 A 
BRANCH  33  39
ATOM     39  C   UNL     1      20.789  13.234  -1.354  0.00  0.00    +0.248 C 
ATOM     40  O   UNL     1      20.166  14.096  -0.726  0.00  0.00    -0.270 OA
ATOM     41  N   UNL     1      20.425  12.890  -2.660  0.00  0.00    -0.304 N 
ATOM     42  C   UNL     1      21.125  12.001  -3.577  0.00  0.00    +0.132 C 
ATOM     43  C   UNL     1      19.324  13.646  -3.248  0.00  0.00    +0.132 C 
ENDBRANCH  33  39
ENDBRANCH  30  32
ENDBRANCH  26  28
ENDBRANCH  25  26
ENDBRANCH  24  25
ENDBRANCH   1  24
TORSDOF 12
