REMARK VINA RESULT:    -7.073      2.000      6.135
REMARK INTER + INTRA:         -14.146
REMARK INTER:                 -11.517
REMARK INTRA:                  -2.629
REMARK UNBOUND:                -1.904
REMARK  Name = lig_assembled_73.pdb
REMARK  13 active torsions:
REMARK  status: ('A' for Active; 'I' for Inactive)
REMARK    1  A    between atoms: _2  and  _9
REMARK    2  A    between atoms: _3  and  _13
REMARK    3  A    between atoms: _6  and  _7
REMARK    4  A    between atoms: _6  and  _17
REMARK    5  A    between atoms: _12  and  _15
REMARK    6  A    between atoms: _17  and  _19
REMARK    7  A    between atoms: _18  and  _23
REMARK    8  A    between atoms: _19  and  _22
REMARK    9  A    between atoms: _27  and  _37
REMARK   10  A    between atoms: _29  and  _30
REMARK   11  A    between atoms: _31  and  _33
REMARK   12  A    between atoms: _33  and  _35
REMARK   13  A    between atoms: _35  and  _37
REMARK                            x       y       z     vdW  Elec       q    Type
REMARK                         _______ _______ _______ _____ _____    ______ ____
ROOT
ATOM      1  C   UNL     1      24.690  10.946   2.505  0.00  0.00    +0.400 C 
ATOM      2  N   UNL     1      25.954  11.436   2.272  0.00  0.00    -0.278 N 
ATOM      3  H   UNL     1      26.569  10.857   2.927  0.00  0.00    +0.152 HD
ATOM      4  O   UNL     1      24.580   9.934   3.192  0.00  0.00    -0.226 OA
ENDROOT
BRANCH   2   5
ATOM      5  C   UNL     1      26.813  12.361   1.537  0.00  0.00    +0.152 C 
BRANCH   5   6
ATOM      6  C   UNL     1      27.796  13.194   2.385  0.00  0.00    +0.193 C 
ATOM      7  O   UNL     1      27.141  13.453   3.647  0.00  0.00    -0.219 OA
BRANCH   6   8
ATOM      8  C   UNL     1      29.138  12.537   2.776  0.00  0.00    +0.212 C 
ATOM      9  O   UNL     1      29.160  11.159   2.369  0.00  0.00    -0.218 OA
BRANCH   8  10
ATOM     10  C   UNL     1      30.393  13.265   2.159  0.00  0.00    +0.171 C 
ATOM     11  O   UNL     1      30.382  13.262   0.735  0.00  0.00    -0.343 OA
ATOM     12  C   UNL     1      31.473  13.616  -0.062  0.00  0.00    +0.220 C 
ATOM     13  C   UNL     1      32.752  12.870   0.358  0.00  0.00    +0.076 C 
ATOM     14  C   UNL     1      32.949  13.102   1.865  0.00  0.00    +0.177 C 
ATOM     15  O   UNL     1      34.142  12.465   2.298  0.00  0.00    -0.221 OA
ATOM     16  C   UNL     1      31.709  12.581   2.656  0.00  0.00    +0.155 C 
BRANCH  16  17
ATOM     17  N   UNL     1      31.895  12.794   4.089  0.00  0.00    -0.202 NA
ATOM     18  C   UNL     1      31.984  11.889   5.096  0.00  0.00    +0.242 C 
ATOM     19  C   UNL     1      32.471  12.361   6.441  0.00  0.00    +0.096 C 
ATOM     20  O   UNL     1      31.670  10.718   4.890  0.00  0.00    -0.273 OA
ENDBRANCH  16  17
BRANCH  12  21
ATOM     21  C   UNL     1      31.719  15.219  -0.150  0.00  0.00    +0.391 C 
ATOM     22  O   UNL     1      32.614  15.380  -1.143  0.00  0.00    -0.243 OA
ATOM     23  O   UNL     1      30.740  15.783   0.569  0.00  0.00    -0.243 OA
ENDBRANCH  12  21
ENDBRANCH   8  10
ENDBRANCH   6   8
ENDBRANCH   5   6
ENDBRANCH   2   5
BRANCH   1  24
ATOM     24  O   UNL     1      23.721  11.631   1.994  0.00  0.00    -0.450 OA
BRANCH  24  25
ATOM     25  C   UNL     1      22.753  11.517   0.976  0.00  0.00    +0.240 C 
BRANCH  25  26
ATOM     26  C   UNL     1      23.180  10.835  -0.338  0.00  0.00    +0.100 C 
BRANCH  26  28
ATOM     27  N   UNL     1      25.278  11.098  -1.623  0.00  0.00    -0.134 NA
ATOM     28  C   UNL     1      24.179  11.660  -1.042  0.00  0.00    +0.086 A 
ATOM     29  C   UNL     1      24.212  13.021  -1.244  0.00  0.00    +0.139 A 
ATOM     30  N   UNL     1      25.359  13.246  -1.968  0.00  0.00    -0.220 N 
ATOM     31  N   UNL     1      25.990  12.067  -2.183  0.00  0.00    -0.061 NA
BRANCH  30  32
ATOM     32  C   UNL     1      25.881  14.475  -2.449  0.00  0.00    +0.074 A 
ATOM     33  C   UNL     1      25.649  14.856  -3.782  0.00  0.00    +0.032 A 
ATOM     34  C   UNL     1      26.162  16.061  -4.282  0.00  0.00    +0.054 A 
ATOM     35  C   UNL     1      26.914  16.894  -3.456  0.00  0.00    +0.195 A 
ATOM     36  C   UNL     1      27.141  16.510  -2.135  0.00  0.00    +0.316 A 
ATOM     37  C   UNL     1      26.629  15.313  -1.613  0.00  0.00    +0.116 A 
BRANCH  36  38
ATOM     38  N   UNL     1      27.928  17.350  -1.254  0.00  0.00    +0.083 N 
ATOM     39  O   UNL     1      27.335  17.933  -0.337  0.00  0.00    +0.042 OA
ATOM     40  O   UNL     1      29.125  17.491  -1.545  0.00  0.00    -0.576 OA
ENDBRANCH  36  38
BRANCH  35  41
ATOM     41  O   UNL     1      27.395  18.075  -3.936  0.00  0.00    -0.501 OA
ATOM     42  H   UNL     1      28.368  18.058  -3.951  0.00  0.00    +0.292 HD
ENDBRANCH  35  41
ENDBRANCH  30  32
ENDBRANCH  26  28
ENDBRANCH  25  26
ENDBRANCH  24  25
ENDBRANCH   1  24
TORSDOF 13
