REMARK VINA RESULT:    -6.704      3.253      9.633
REMARK INTER + INTRA:         -12.834
REMARK INTER:                 -11.698
REMARK INTRA:                  -1.137
REMARK UNBOUND:                -1.427
REMARK  Name = lig_assembled_6.pdb
REMARK  12 active torsions:
REMARK  status: ('A' for Active; 'I' for Inactive)
REMARK    1  A    between atoms: _2  and  _9
REMARK    2  A    between atoms: _3  and  _12
REMARK    3  A    between atoms: _6  and  _7
REMARK    4  A    between atoms: _6  and  _16
REMARK    5  A    between atoms: _16  and  _18
REMARK    6  A    between atoms: _17  and  _22
REMARK    7  A    between atoms: _18  and  _21
REMARK    8  A    between atoms: _26  and  _36
REMARK    9  A    between atoms: _28  and  _29
REMARK   10  A    between atoms: _30  and  _32
REMARK   11  A    between atoms: _32  and  _34
REMARK   12  A    between atoms: _34  and  _36
REMARK                            x       y       z     vdW  Elec       q    Type
REMARK                         _______ _______ _______ _____ _____    ______ ____
ROOT
ATOM      1  C   UNL     1      28.329  17.043  -0.724  0.00  0.00    +0.400 C 
ATOM      2  N   UNL     1      27.379  16.477  -1.542  0.00  0.00    -0.278 N 
ATOM      3  H   UNL     1      26.502  17.053  -1.338  0.00  0.00    +0.152 HD
ATOM      4  O   UNL     1      28.047  18.090  -0.148  0.00  0.00    -0.226 OA
ENDROOT
BRANCH   2   5
ATOM      5  C   UNL     1      27.042  15.476  -2.551  0.00  0.00    +0.152 C 
BRANCH   5   6
ATOM      6  C   UNL     1      25.787  15.762  -3.400  0.00  0.00    +0.193 C 
ATOM      7  O   UNL     1      26.246  16.358  -4.633  0.00  0.00    -0.219 OA
BRANCH   6   8
ATOM      8  C   UNL     1      24.937  14.553  -3.850  0.00  0.00    +0.212 C 
ATOM      9  O   UNL     1      25.748  13.609  -4.568  0.00  0.00    -0.218 OA
BRANCH   8  10
ATOM     10  C   UNL     1      24.233  13.805  -2.654  0.00  0.00    +0.171 C 
ATOM     11  O   UNL     1      24.866  12.570  -2.332  0.00  0.00    -0.343 OA
ATOM     12  C   UNL     1      24.317  11.600  -1.491  0.00  0.00    +0.220 C 
ATOM     13  C   UNL     1      22.873  11.250  -1.889  0.00  0.00    +0.076 C 
ATOM     14  C   UNL     1      22.081  12.566  -1.961  0.00  0.00    +0.177 C 
ATOM     15  O   UNL     1      20.725  12.295  -2.288  0.00  0.00    -0.221 OA
ATOM     16  C   UNL     1      22.733  13.529  -3.001  0.00  0.00    +0.155 C 
BRANCH  16  17
ATOM     17  N   UNL     1      21.980  14.778  -3.078  0.00  0.00    -0.202 NA
ATOM     18  C   UNL     1      21.332  15.337  -4.132  0.00  0.00    +0.242 C 
ATOM     19  C   UNL     1      20.388  16.481  -3.866  0.00  0.00    +0.096 C 
ATOM     20  O   UNL     1      21.528  14.903  -5.265  0.00  0.00    -0.273 OA
ENDBRANCH  16  17
BRANCH  12  21
ATOM     21  C   UNL     1      24.427  11.973   0.087  0.00  0.00    +0.391 C 
ATOM     22  O   UNL     1      23.414  11.307   0.673  0.00  0.00    -0.243 OA
ATOM     23  O   UNL     1      25.630  12.538   0.250  0.00  0.00    -0.243 OA
ENDBRANCH  12  21
ENDBRANCH   8  10
ENDBRANCH   6   8
ENDBRANCH   5   6
ENDBRANCH   2   5
BRANCH   1  24
ATOM     24  O   UNL     1      29.437  16.386  -0.616  0.00  0.00    -0.450 OA
BRANCH  24  25
ATOM     25  C   UNL     1      30.535  16.281   0.260  0.00  0.00    +0.240 C 
BRANCH  25  26
ATOM     26  C   UNL     1      31.680  15.334  -0.147  0.00  0.00    +0.100 C 
BRANCH  26  28
ATOM     27  N   UNL     1      32.734  13.278   0.742  0.00  0.00    -0.134 NA
ATOM     28  C   UNL     1      31.992  14.404   0.954  0.00  0.00    +0.086 A 
ATOM     29  C   UNL     1      31.650  14.473   2.285  0.00  0.00    +0.139 A 
ATOM     30  N   UNL     1      32.239  13.370   2.861  0.00  0.00    -0.220 N 
ATOM     31  N   UNL     1      32.873  12.651   1.903  0.00  0.00    -0.061 NA
BRANCH  30  32
ATOM     32  C   UNL     1      32.268  12.991   4.229  0.00  0.00    +0.067 A 
ATOM     33  C   UNL     1      33.435  13.153   4.992  0.00  0.00    +0.034 A 
ATOM     34  C   UNL     1      33.470  12.719   6.322  0.00  0.00    +0.086 A 
ATOM     35  C   UNL     1      32.336  12.126   6.891  0.00  0.00    +0.273 A 
ATOM     36  C   UNL     1      31.159  11.986   6.147  0.00  0.00    +0.086 A 
ATOM     37  C   UNL     1      31.127  12.420   4.818  0.00  0.00    +0.034 A 
BRANCH  35  38
ATOM     38  N   UNL     1      32.393  11.634   8.274  0.00  0.00    +0.080 N 
ATOM     39  O   UNL     1      33.242  10.772   8.543  0.00  0.00    +0.041 OA
ATOM     40  O   UNL     1      31.586  12.104   9.087  0.00  0.00    -0.576 OA
ENDBRANCH  35  38
ENDBRANCH  30  32
ENDBRANCH  26  28
ENDBRANCH  25  26
ENDBRANCH  24  25
ENDBRANCH   1  24
TORSDOF 12
