REMARK VINA RESULT:    -7.486      2.105      2.773
REMARK INTER + INTRA:         -13.618
REMARK INTER:                 -11.945
REMARK INTRA:                  -1.674
REMARK UNBOUND:                -1.318
REMARK  Name = lig_assembled_40.pdb
REMARK  12 active torsions:
REMARK  status: ('A' for Active; 'I' for Inactive)
REMARK    1  A    between atoms: _2  and  _8
REMARK    2  A    between atoms: _5  and  _6
REMARK    3  A    between atoms: _5  and  _14
REMARK    4  A    between atoms: _11  and  _12
REMARK    5  A    between atoms: _14  and  _16
REMARK    6  A    between atoms: _15  and  _20
REMARK    7  A    between atoms: _16  and  _19
REMARK    8  A    between atoms: _24  and  _34
REMARK    9  A    between atoms: _26  and  _27
REMARK   10  A    between atoms: _28  and  _30
REMARK   11  A    between atoms: _30  and  _32
REMARK   12  A    between atoms: _32  and  _34
REMARK                            x       y       z     vdW  Elec       q    Type
REMARK                         _______ _______ _______ _____ _____    ______ ____
ROOT
ATOM      1  C   UNL     1      27.885  17.333  -1.005  0.00  0.00    +0.400 C 
ATOM      2  N   UNL     1      28.576  16.346  -0.343  0.00  0.00    -0.278 N 
ATOM      3  H   UNL     1      28.740  16.766   0.626  0.00  0.00    +0.152 HD
ATOM      4  O   UNL     1      27.482  18.294  -0.355  0.00  0.00    -0.226 OA
ENDROOT
BRANCH   1   5
ATOM      5  O   UNL     1      27.751  17.164  -2.280  0.00  0.00    -0.450 OA
BRANCH   5   6
ATOM      6  C   UNL     1      26.785  17.353  -3.287  0.00  0.00    +0.240 C 
BRANCH   6   7
ATOM      7  C   UNL     1      26.252  16.099  -4.005  0.00  0.00    +0.100 C 
BRANCH   7   9
ATOM      8  N   UNL     1      23.915  15.865  -3.223  0.00  0.00    -0.134 NA
ATOM      9  C   UNL     1      25.212  15.443  -3.190  0.00  0.00    +0.086 A 
ATOM     10  C   UNL     1      25.315  14.376  -2.330  0.00  0.00    +0.139 A 
ATOM     11  N   UNL     1      24.034  14.155  -1.879  0.00  0.00    -0.220 N 
ATOM     12  N   UNL     1      23.207  15.085  -2.418  0.00  0.00    -0.061 NA
BRANCH  11  13
ATOM     13  C   UNL     1      23.562  13.124  -1.026  0.00  0.00    +0.067 A 
ATOM     14  C   UNL     1      22.189  12.879  -0.889  0.00  0.00    +0.028 A 
ATOM     15  C   UNL     1      21.736  11.907   0.008  0.00  0.00    +0.005 A 
ATOM     16  C   UNL     1      22.641  11.169   0.778  0.00  0.00    -0.050 A 
ATOM     17  C   UNL     1      24.014  11.391   0.613  0.00  0.00    +0.005 A 
ATOM     18  C   UNL     1      22.157  10.159   1.775  0.00  0.00    +0.044 C 
ATOM     19  C   UNL     1      24.474  12.362  -0.283  0.00  0.00    +0.028 A 
ENDBRANCH  11  13
ENDBRANCH   7   9
ENDBRANCH   6   7
ENDBRANCH   5   6
ENDBRANCH   1   5
BRANCH   2  20
ATOM     20  C   UNL     1      29.160  15.007  -0.364  0.00  0.00    +0.152 C 
BRANCH  20  21
ATOM     21  C   UNL     1      30.688  14.929  -0.168  0.00  0.00    +0.193 C 
ATOM     22  O   UNL     1      31.177  16.289  -0.167  0.00  0.00    -0.219 OA
BRANCH  21  23
ATOM     23  C   UNL     1      31.210  14.331   1.157  0.00  0.00    +0.212 C 
ATOM     24  O   UNL     1      31.372  15.363   2.143  0.00  0.00    -0.218 OA
BRANCH  23  25
ATOM     25  C   UNL     1      30.272  13.211   1.748  0.00  0.00    +0.171 C 
ATOM     26  O   UNL     1      30.068  13.351   3.150  0.00  0.00    -0.343 OA
ATOM     27  C   UNL     1      29.489  12.375   3.964  0.00  0.00    +0.220 C 
ATOM     28  C   UNL     1      30.149  11.000   3.763  0.00  0.00    +0.076 C 
ATOM     29  C   UNL     1      30.119  10.688   2.257  0.00  0.00    +0.177 C 
ATOM     30  O   UNL     1      30.683   9.406   2.019  0.00  0.00    -0.221 OA
ATOM     31  C   UNL     1      30.877  11.797   1.464  0.00  0.00    +0.155 C 
BRANCH  31  32
ATOM     32  N   UNL     1      30.857  11.502   0.034  0.00  0.00    -0.202 NA
ATOM     33  C   UNL     1      31.887  11.389  -0.843  0.00  0.00    +0.242 C 
ATOM     34  C   UNL     1      31.611  10.786  -2.197  0.00  0.00    +0.096 C 
ATOM     35  O   UNL     1      33.008  11.774  -0.518  0.00  0.00    -0.273 OA
ENDBRANCH  31  32
BRANCH  27  36
ATOM     36  C   UNL     1      27.873  12.288   3.822  0.00  0.00    +0.391 C 
ATOM     37  O   UNL     1      27.562  11.021   4.156  0.00  0.00    -0.243 OA
ATOM     38  O   UNL     1      27.442  13.552   3.725  0.00  0.00    -0.243 OA
ENDBRANCH  27  36
ENDBRANCH  23  25
ENDBRANCH  21  23
ENDBRANCH  20  21
ENDBRANCH   2  20
TORSDOF 11
