REMARK VINA RESULT:    -6.584      3.222      5.770
REMARK INTER + INTRA:         -12.507
REMARK INTER:                 -10.429
REMARK INTRA:                  -2.078
REMARK UNBOUND:                -1.689
REMARK  Name = lig_assembled_49.pdb
REMARK  11 active torsions:
REMARK  status: ('A' for Active; 'I' for Inactive)
REMARK    1  A    between atoms: _2  and  _8
REMARK    2  A    between atoms: _5  and  _6
REMARK    3  A    between atoms: _5  and  _12
REMARK    4  A    between atoms: _12  and  _14
REMARK    5  A    between atoms: _13  and  _18
REMARK    6  A    between atoms: _14  and  _17
REMARK    7  A    between atoms: _22  and  _32
REMARK    8  A    between atoms: _24  and  _25
REMARK    9  A    between atoms: _26  and  _28
REMARK   10  A    between atoms: _28  and  _30
REMARK   11  A    between atoms: _30  and  _32
REMARK                            x       y       z     vdW  Elec       q    Type
REMARK                         _______ _______ _______ _____ _____    ______ ____
ROOT
ATOM      1  C   UNL     1      30.045  15.700  -0.127  0.00  0.00    +0.152 C 
ENDROOT
BRANCH   1   3
ATOM      2  C   UNL     1      28.101  17.478  -0.838  0.00  0.00    +0.400 C 
ATOM      3  N   UNL     1      29.110  16.822  -0.174  0.00  0.00    -0.278 N 
ATOM      4  H   UNL     1      29.250  17.410   0.708  0.00  0.00    +0.152 HD
ATOM      5  O   UNL     1      27.512  18.382  -0.249  0.00  0.00    -0.226 OA
BRANCH   2   6
ATOM      6  O   UNL     1      27.887  17.092  -2.053  0.00  0.00    -0.450 OA
BRANCH   6   7
ATOM      7  C   UNL     1      26.913  17.229  -3.061  0.00  0.00    +0.240 C 
BRANCH   7   8
ATOM      8  C   UNL     1      26.676  16.022  -3.989  0.00  0.00    +0.100 C 
BRANCH   8  10
ATOM      9  N   UNL     1      24.793  14.598  -4.728  0.00  0.00    -0.134 NA
ATOM     10  C   UNL     1      25.283  15.553  -3.876  0.00  0.00    +0.086 A 
ATOM     11  C   UNL     1      24.288  15.930  -3.002  0.00  0.00    +0.134 A 
ATOM     12  N   UNL     1      23.216  15.173  -3.378  0.00  0.00    -0.248 N 
ATOM     13  N   UNL     1      23.525  14.374  -4.414  0.00  0.00    -0.065 NA
BRANCH  12  14
ATOM     14  C   UNL     1      21.887  15.185  -2.815  0.00  0.00    +0.109 C 
ATOM     15  C   UNL     1      20.784  14.858  -3.822  0.00  0.00    +0.027 C 
ATOM     16  C   UNL     1      19.606  14.503  -2.931  0.00  0.00    +0.002 C 
ATOM     17  C   UNL     1      20.226  13.705  -1.792  0.00  0.00    +0.002 C 
ATOM     18  C   UNL     1      21.675  14.185  -1.669  0.00  0.00    +0.027 C 
ENDBRANCH  12  14
ENDBRANCH   8  10
ENDBRANCH   7   8
ENDBRANCH   6   7
ENDBRANCH   2   6
ENDBRANCH   1   3
BRANCH   1  19
ATOM     19  C   UNL     1      29.470  14.319  -0.503  0.00  0.00    +0.193 C 
ATOM     20  O   UNL     1      30.592  13.487  -0.869  0.00  0.00    -0.219 OA
BRANCH  19  21
ATOM     21  C   UNL     1      28.743  13.522   0.603  0.00  0.00    +0.212 C 
ATOM     22  O   UNL     1      28.243  14.410   1.616  0.00  0.00    -0.218 OA
BRANCH  21  23
ATOM     23  C   UNL     1      27.546  12.651   0.061  0.00  0.00    +0.171 C 
ATOM     24  O   UNL     1      26.759  13.342  -0.904  0.00  0.00    -0.343 OA
ATOM     25  C   UNL     1      25.513  12.907  -1.362  0.00  0.00    +0.220 C 
ATOM     26  C   UNL     1      24.565  12.566  -0.200  0.00  0.00    +0.076 C 
ATOM     27  C   UNL     1      25.298  11.576   0.720  0.00  0.00    +0.177 C 
ATOM     28  O   UNL     1      24.448  11.196   1.793  0.00  0.00    -0.221 OA
ATOM     29  C   UNL     1      26.624  12.210   1.244  0.00  0.00    +0.155 C 
BRANCH  29  30
ATOM     30  N   UNL     1      27.320  11.275   2.124  0.00  0.00    -0.202 NA
ATOM     31  C   UNL     1      27.605  11.377   3.448  0.00  0.00    +0.242 C 
ATOM     32  C   UNL     1      28.071  10.143   4.176  0.00  0.00    +0.096 C 
ATOM     33  O   UNL     1      27.477  12.460   4.015  0.00  0.00    -0.273 OA
ENDBRANCH  29  30
BRANCH  25  34
ATOM     34  C   UNL     1      25.607  11.689  -2.433  0.00  0.00    +0.391 C 
ATOM     35  O   UNL     1      26.873  11.728  -2.894  0.00  0.00    -0.243 OA
ATOM     36  O   UNL     1      24.518  10.937  -2.234  0.00  0.00    -0.243 OA
ENDBRANCH  25  34
ENDBRANCH  21  23
ENDBRANCH  19  21
ENDBRANCH   1  19
TORSDOF 11
