REMARK VINA RESULT:    -6.133      2.453      3.133
REMARK INTER + INTRA:         -13.438
REMARK INTER:                 -11.912
REMARK INTRA:                  -1.526
REMARK UNBOUND:                -2.286
REMARK  Name = lig_assembled_62.pdb
REMARK  15 active torsions:
REMARK  status: ('A' for Active; 'I' for Inactive)
REMARK    1  A    between atoms: _2  and  _9
REMARK    2  A    between atoms: _5  and  _9
REMARK    3  A    between atoms: _6  and  _7
REMARK    4  A    between atoms: _6  and  _14
REMARK    5  A    between atoms: _9  and  _10
REMARK    6  A    between atoms: _10  and  _13
REMARK    7  A    between atoms: _11  and  _13
REMARK    8  A    between atoms: _14  and  _16
REMARK    9  A    between atoms: _15  and  _20
REMARK   10  A    between atoms: _16  and  _19
REMARK   11  A    between atoms: _24  and  _34
REMARK   12  A    between atoms: _26  and  _27
REMARK   13  A    between atoms: _28  and  _30
REMARK   14  A    between atoms: _30  and  _32
REMARK   15  A    between atoms: _32  and  _34
REMARK                            x       y       z     vdW  Elec       q    Type
REMARK                         _______ _______ _______ _____ _____    ______ ____
ROOT
ATOM      1  C   UNL     1      28.302  17.667  -0.567  0.00  0.00    +0.400 C 
ATOM      2  N   UNL     1      29.481  17.491   0.117  0.00  0.00    -0.278 N 
ATOM      3  H   UNL     1      29.443  18.246   0.873  0.00  0.00    +0.152 HD
ATOM      4  O   UNL     1      27.468  18.436  -0.096  0.00  0.00    -0.226 OA
ENDROOT
BRANCH   2   5
ATOM      5  C   UNL     1      30.726  16.744   0.280  0.00  0.00    +0.152 C 
BRANCH   5   6
ATOM      6  C   UNL     1      30.614  15.209   0.190  0.00  0.00    +0.193 C 
ATOM      7  O   UNL     1      31.359  14.806  -0.980  0.00  0.00    -0.219 OA
BRANCH   6   8
ATOM      8  C   UNL     1      31.224  14.378   1.341  0.00  0.00    +0.212 C 
ATOM      9  O   UNL     1      31.594  15.233   2.435  0.00  0.00    -0.218 OA
BRANCH   8  10
ATOM     10  C   UNL     1      30.257  13.257   1.882  0.00  0.00    +0.171 C 
ATOM     11  O   UNL     1      30.021  13.366   3.282  0.00  0.00    -0.343 OA
ATOM     12  C   UNL     1      29.410  12.378   4.057  0.00  0.00    +0.220 C 
ATOM     13  C   UNL     1      30.057  10.999   3.838  0.00  0.00    +0.076 C 
ATOM     14  C   UNL     1      30.060  10.725   2.325  0.00  0.00    +0.177 C 
ATOM     15  O   UNL     1      30.613   9.442   2.069  0.00  0.00    -0.221 OA
ATOM     16  C   UNL     1      30.852  11.843   1.578  0.00  0.00    +0.155 C 
BRANCH  16  17
ATOM     17  N   UNL     1      30.863  11.582   0.140  0.00  0.00    -0.202 NA
ATOM     18  C   UNL     1      31.913  11.424  -0.705  0.00  0.00    +0.242 C 
ATOM     19  C   UNL     1      31.647  10.872  -2.081  0.00  0.00    +0.096 C 
ATOM     20  O   UNL     1      33.044  11.729  -0.332  0.00  0.00    -0.273 OA
ENDBRANCH  16  17
BRANCH  12  21
ATOM     21  C   UNL     1      27.797  12.316   3.874  0.00  0.00    +0.391 C 
ATOM     22  O   UNL     1      27.435  13.575   3.561  0.00  0.00    -0.243 OA
ATOM     23  O   UNL     1      27.482  11.017   3.803  0.00  0.00    -0.243 OA
ENDBRANCH  12  21
ENDBRANCH   8  10
ENDBRANCH   6   8
ENDBRANCH   5   6
ENDBRANCH   2   5
BRANCH   1  24
ATOM     24  O   UNL     1      28.198  17.017  -1.679  0.00  0.00    -0.450 OA
BRANCH  24  25
ATOM     25  C   UNL     1      27.197  16.531  -2.543  0.00  0.00    +0.240 C 
BRANCH  25  26
ATOM     26  C   UNL     1      26.747  15.069  -2.359  0.00  0.00    +0.100 C 
BRANCH  26  28
ATOM     27  N   UNL     1      25.243  14.673  -4.287  0.00  0.00    -0.134 NA
ATOM     28  C   UNL     1      25.407  14.867  -2.941  0.00  0.00    +0.086 A 
ATOM     29  C   UNL     1      24.173  14.832  -2.330  0.00  0.00    +0.134 A 
ATOM     30  N   UNL     1      23.297  14.629  -3.357  0.00  0.00    -0.237 N 
ATOM     31  N   UNL     1      23.949  14.526  -4.531  0.00  0.00    -0.065 NA
BRANCH  30  32
ATOM     32  C   UNL     1      21.853  14.486  -3.325  0.00  0.00    +0.219 C 
BRANCH  32  33
ATOM     33  C   UNL     1      21.189  15.644  -4.052  0.00  0.00    +0.237 C 
ATOM     34  O   UNL     1      20.764  16.656  -3.498  0.00  0.00    -0.274 OA
ATOM     35  N   UNL     1      21.135  15.546  -5.416  0.00  0.00    -0.328 N 
ATOM     36  H   UNL     1      21.547  14.786  -5.942  0.00  0.00    +0.145 HD
ATOM     37  H   UNL     1      20.706  16.308  -5.926  0.00  0.00    +0.145 HD
ENDBRANCH  32  33
BRANCH  32  38
ATOM     38  C   UNL     1      21.351  14.385  -1.886  0.00  0.00    +0.195 C 
BRANCH  38  39
ATOM     39  O   UNL     1      21.345  13.009  -1.480  0.00  0.00    -0.380 OA
ATOM     40  C   UNL     1      20.681  12.183  -2.426  0.00  0.00    +0.194 C 
ENDBRANCH  38  39
ENDBRANCH  32  38
ENDBRANCH  30  32
ENDBRANCH  26  28
ENDBRANCH  25  26
ENDBRANCH  24  25
ENDBRANCH   1  24
TORSDOF 14
