REMARK VINA RESULT:    -6.079     23.914     26.426
REMARK INTER + INTRA:         -13.001
REMARK INTER:                 -11.537
REMARK INTRA:                  -1.464
REMARK UNBOUND:                -2.657
REMARK  Name = lig_assembled_46.pdb
REMARK  12 active torsions:
REMARK  status: ('A' for Active; 'I' for Inactive)
REMARK    1  A    between atoms: _2  and  _8
REMARK    2  A    between atoms: _5  and  _6
REMARK    3  A    between atoms: _5  and  _14
REMARK    4  A    between atoms: _8  and  _9
REMARK    5  A    between atoms: _14  and  _16
REMARK    6  A    between atoms: _15  and  _20
REMARK    7  A    between atoms: _16  and  _19
REMARK    8  A    between atoms: _24  and  _34
REMARK    9  A    between atoms: _26  and  _27
REMARK   10  A    between atoms: _28  and  _30
REMARK   11  A    between atoms: _30  and  _32
REMARK   12  A    between atoms: _32  and  _34
REMARK                            x       y       z     vdW  Elec       q    Type
REMARK                         _______ _______ _______ _____ _____    ______ ____
ROOT
ATOM      1  C   UNL     1      33.195  42.432   6.504  0.00  0.00    +0.400 C 
ATOM      2  N   UNL     1      34.203  41.499   6.442  0.00  0.00    -0.278 N 
ATOM      3  H   UNL     1      34.939  41.970   5.826  0.00  0.00    +0.152 HD
ATOM      4  O   UNL     1      33.415  43.553   6.052  0.00  0.00    -0.226 OA
ENDROOT
BRANCH   2   5
ATOM      5  C   UNL     1      34.714  40.190   6.843  0.00  0.00    +0.152 C 
BRANCH   5   6
ATOM      6  C   UNL     1      34.791  39.122   5.733  0.00  0.00    +0.193 C 
ATOM      7  O   UNL     1      34.503  39.795   4.488  0.00  0.00    -0.219 OA
BRANCH   6   8
ATOM      8  C   UNL     1      36.155  38.437   5.494  0.00  0.00    +0.212 C 
ATOM      9  O   UNL     1      36.026  37.010   5.607  0.00  0.00    -0.218 OA
BRANCH   8  10
ATOM     10  C   UNL     1      36.786  38.776   4.091  0.00  0.00    +0.171 C 
ATOM     11  O   UNL     1      37.258  37.619   3.408  0.00  0.00    -0.343 OA
ATOM     12  C   UNL     1      38.070  37.651   2.272  0.00  0.00    +0.220 C 
ATOM     13  C   UNL     1      39.295  38.560   2.472  0.00  0.00    +0.076 C 
ATOM     14  C   UNL     1      38.782  39.932   2.939  0.00  0.00    +0.177 C 
ATOM     15  O   UNL     1      39.875  40.825   3.101  0.00  0.00    -0.221 OA
ATOM     16  C   UNL     1      37.973  39.780   4.264  0.00  0.00    +0.155 C 
BRANCH  16  17
ATOM     17  N   UNL     1      37.489  41.083   4.715  0.00  0.00    -0.202 NA
ATOM     18  C   UNL     1      37.903  41.849   5.756  0.00  0.00    +0.242 C 
ATOM     19  C   UNL     1      37.436  43.280   5.822  0.00  0.00    +0.096 C 
ATOM     20  O   UNL     1      38.642  41.365   6.611  0.00  0.00    -0.273 OA
ENDBRANCH  16  17
BRANCH  12  21
ATOM     21  C   UNL     1      37.265  38.024   0.911  0.00  0.00    +0.391 C 
ATOM     22  O   UNL     1      38.223  38.314   0.009  0.00  0.00    -0.243 OA
ATOM     23  O   UNL     1      36.004  37.620   1.104  0.00  0.00    -0.243 OA
ENDBRANCH  12  21
ENDBRANCH   8  10
ENDBRANCH   6   8
ENDBRANCH   5   6
ENDBRANCH   2   5
BRANCH   1  24
ATOM     24  O   UNL     1      32.082  42.020   7.015  0.00  0.00    -0.450 OA
BRANCH  24  25
ATOM     25  C   UNL     1      30.964  41.242   6.655  0.00  0.00    +0.240 C 
BRANCH  25  26
ATOM     26  C   UNL     1      30.632  40.023   7.536  0.00  0.00    +0.100 C 
BRANCH  26  28
ATOM     27  N   UNL     1      30.139  38.759   5.464  0.00  0.00    -0.134 NA
ATOM     28  C   UNL     1      29.844  39.037   6.773  0.00  0.00    +0.086 A 
ATOM     29  C   UNL     1      28.794  38.241   7.175  0.00  0.00    +0.134 A 
ATOM     30  N   UNL     1      28.532  37.461   6.085  0.00  0.00    -0.247 N 
ATOM     31  N   UNL     1      29.336  37.788   5.054  0.00  0.00    -0.065 NA
BRANCH  30  32
ATOM     32  C   UNL     1      27.730  36.251   6.034  0.00  0.00    +0.180 C 
BRANCH  32  33
ATOM     33  C   UNL     1      27.917  35.348   7.228  0.00  0.00    -0.026 A 
ATOM     34  C   UNL     1      29.196  34.923   7.619  0.00  0.00    +0.005 A 
ATOM     35  C   UNL     1      29.368  34.166   8.781  0.00  0.00    +0.000 A 
ATOM     36  C   UNL     1      28.266  33.828   9.565  0.00  0.00    +0.000 A 
ATOM     37  C   UNL     1      26.990  34.237   9.184  0.00  0.00    +0.000 A 
ATOM     38  C   UNL     1      26.816  34.993   8.023  0.00  0.00    +0.005 A 
ENDBRANCH  32  33
ENDBRANCH  30  32
ENDBRANCH  26  28
ENDBRANCH  25  26
ENDBRANCH  24  25
ENDBRANCH   1  24
TORSDOF 12
