REMARK VINA RESULT:    -7.774      1.192      3.341
REMARK INTER + INTRA:         -15.717
REMARK INTER:                 -14.283
REMARK INTRA:                  -1.434
REMARK UNBOUND:                -1.807
REMARK  Name = lig_assembled_75.pdb
REMARK  14 active torsions:
REMARK  status: ('A' for Active; 'I' for Inactive)
REMARK    1  A    between atoms: _2  and  _8
REMARK    2  A    between atoms: _5  and  _6
REMARK    3  A    between atoms: _5  and  _18
REMARK    4  A    between atoms: _10  and  _11
REMARK    5  A    between atoms: _12  and  _13
REMARK    6  A    between atoms: _13  and  _16
REMARK    7  A    between atoms: _18  and  _20
REMARK    8  A    between atoms: _19  and  _24
REMARK    9  A    between atoms: _20  and  _23
REMARK   10  A    between atoms: _28  and  _38
REMARK   11  A    between atoms: _30  and  _31
REMARK   12  A    between atoms: _32  and  _34
REMARK   13  A    between atoms: _34  and  _36
REMARK   14  A    between atoms: _36  and  _38
REMARK                            x       y       z     vdW  Elec       q    Type
REMARK                         _______ _______ _______ _____ _____    ______ ____
ROOT
ATOM      1  C   UNL     1      27.786  17.481  -0.741  0.00  0.00    +0.400 C 
ATOM      2  N   UNL     1      28.409  16.495  -0.012  0.00  0.00    -0.278 N 
ATOM      3  H   UNL     1      28.567  16.955   0.940  0.00  0.00    +0.152 HD
ATOM      4  O   UNL     1      27.414  18.491  -0.150  0.00  0.00    -0.226 OA
ENDROOT
BRANCH   2   5
ATOM      5  C   UNL     1      28.926  15.131   0.048  0.00  0.00    +0.152 C 
BRANCH   5   6
ATOM      6  C   UNL     1      30.332  14.910  -0.546  0.00  0.00    +0.193 C 
ATOM      7  O   UNL     1      30.999  16.191  -0.523  0.00  0.00    -0.219 OA
BRANCH   6   8
ATOM      8  C   UNL     1      31.288  13.963   0.213  0.00  0.00    +0.212 C 
ATOM      9  O   UNL     1      30.639  12.713   0.494  0.00  0.00    -0.218 OA
BRANCH   8  10
ATOM     10  C   UNL     1      32.627  13.672  -0.567  0.00  0.00    +0.171 C 
ATOM     11  O   UNL     1      32.411  12.952  -1.776  0.00  0.00    -0.343 OA
ATOM     12  C   UNL     1      33.424  12.356  -2.530  0.00  0.00    +0.220 C 
ATOM     13  C   UNL     1      34.337  11.472  -1.662  0.00  0.00    +0.076 C 
ATOM     14  C   UNL     1      34.826  12.330  -0.484  0.00  0.00    +0.177 C 
ATOM     15  O   UNL     1      35.708  11.570   0.331  0.00  0.00    -0.221 OA
ATOM     16  C   UNL     1      33.609  12.859   0.338  0.00  0.00    +0.155 C 
BRANCH  16  17
ATOM     17  N   UNL     1      34.070  13.668   1.463  0.00  0.00    -0.202 NA
ATOM     18  C   UNL     1      33.814  13.536   2.789  0.00  0.00    +0.242 C 
ATOM     19  C   UNL     1      34.651  14.326   3.761  0.00  0.00    +0.096 C 
ATOM     20  O   UNL     1      32.917  12.784   3.163  0.00  0.00    -0.273 OA
ENDBRANCH  16  17
BRANCH  12  21
ATOM     21  C   UNL     1      34.283  13.416  -3.412  0.00  0.00    +0.391 C 
ATOM     22  O   UNL     1      35.430  12.773  -3.709  0.00  0.00    -0.243 OA
ATOM     23  O   UNL     1      33.429  14.386  -3.760  0.00  0.00    -0.243 OA
ENDBRANCH  12  21
ENDBRANCH   8  10
ENDBRANCH   6   8
ENDBRANCH   5   6
ENDBRANCH   2   5
BRANCH   1  24
ATOM     24  O   UNL     1      27.678  17.255  -2.009  0.00  0.00    -0.450 OA
BRANCH  24  25
ATOM     25  C   UNL     1      26.786  17.514  -3.068  0.00  0.00    +0.240 C 
BRANCH  25  26
ATOM     26  C   UNL     1      26.609  16.416  -4.134  0.00  0.00    +0.100 C 
BRANCH  26  28
ATOM     27  N   UNL     1      24.719  14.985  -4.841  0.00  0.00    -0.134 NA
ATOM     28  C   UNL     1      25.410  15.608  -3.843  0.00  0.00    +0.086 A 
ATOM     29  C   UNL     1      24.798  15.344  -2.639  0.00  0.00    +0.139 A 
ATOM     30  N   UNL     1      23.723  14.545  -2.955  0.00  0.00    -0.220 N 
ATOM     31  N   UNL     1      23.696  14.342  -4.296  0.00  0.00    -0.061 NA
BRANCH  30  32
ATOM     32  C   UNL     1      22.734  14.002  -2.095  0.00  0.00    +0.068 A 
ATOM     33  C   UNL     1      23.077  12.946  -1.231  0.00  0.00    +0.035 A 
ATOM     34  C   UNL     1      22.109  12.342  -0.416  0.00  0.00    -0.023 A 
ATOM     35  C   UNL     1      20.805  12.852  -0.429  0.00  0.00    +0.008 A 
ATOM     36  C   UNL     1      20.464  13.915  -1.269  0.00  0.00    +0.003 A 
ATOM     37  C   UNL     1      21.421  14.485  -2.107  0.00  0.00    +0.028 A 
BRANCH  34  38
ATOM     38  C   UNL     1      22.417  11.207   0.467  0.00  0.00    +0.015 C 
ATOM     39  C   UNL     1      21.900  11.058   1.697  0.00  0.00    +0.092 C 
BRANCH  39  40
ATOM     40  C   UNL     1      22.312   9.908   2.528  0.00  0.00    +0.330 C 
ATOM     41  O   UNL     1      22.957   8.957   2.125  0.00  0.00    -0.246 OA
BRANCH  40  42
ATOM     42  O   UNL     1      21.899  10.037   3.805  0.00  0.00    -0.478 OA
ATOM     43  H   UNL     1      21.404   9.280   4.167  0.00  0.00    +0.295 HD
ENDBRANCH  40  42
ENDBRANCH  39  40
ENDBRANCH  34  38
ENDBRANCH  30  32
ENDBRANCH  26  28
ENDBRANCH  25  26
ENDBRANCH  24  25
ENDBRANCH   1  24
TORSDOF 14
