REMARK VINA RESULT:    -6.157      2.472      3.457
REMARK INTER + INTRA:         -13.126
REMARK INTER:                 -11.251
REMARK INTRA:                  -1.875
REMARK UNBOUND:                -1.931
REMARK  Name = lig_assembled_55.pdb
REMARK  15 active torsions:
REMARK  status: ('A' for Active; 'I' for Inactive)
REMARK    1  A    between atoms: _2  and  _9
REMARK    2  A    between atoms: _3  and  _10
REMARK    3  A    between atoms: _3  and  _41
REMARK    4  A    between atoms: _5  and  _41
REMARK    5  A    between atoms: _6  and  _7
REMARK    6  A    between atoms: _6  and  _13
REMARK    7  A    between atoms: _9  and  _10
REMARK    8  A    between atoms: _13  and  _15
REMARK    9  A    between atoms: _14  and  _19
REMARK   10  A    between atoms: _15  and  _18
REMARK   11  A    between atoms: _23  and  _33
REMARK   12  A    between atoms: _25  and  _26
REMARK   13  A    between atoms: _27  and  _29
REMARK   14  A    between atoms: _29  and  _31
REMARK   15  A    between atoms: _31  and  _33
REMARK                            x       y       z     vdW  Elec       q    Type
REMARK                         _______ _______ _______ _____ _____    ______ ____
ROOT
ATOM      1  C   UNL     1      29.089  14.707  -0.128  0.00  0.00    +0.400 C 
ATOM      2  N   UNL     1      29.840  13.685  -0.658  0.00  0.00    -0.278 N 
ATOM      3  H   UNL     1      29.993  13.032   0.174  0.00  0.00    +0.152 HD
ATOM      4  O   UNL     1      28.642  14.567   1.008  0.00  0.00    -0.226 OA
ENDROOT
BRANCH   2   5
ATOM      5  C   UNL     1      30.496  13.098  -1.824  0.00  0.00    +0.152 C 
BRANCH   5   6
ATOM      6  C   UNL     1      31.968  12.678  -1.636  0.00  0.00    +0.193 C 
ATOM      7  O   UNL     1      32.543  12.577  -2.958  0.00  0.00    -0.219 OA
BRANCH   6   8
ATOM      8  C   UNL     1      32.900  13.653  -0.884  0.00  0.00    +0.212 C 
ATOM      9  O   UNL     1      32.457  15.008  -1.061  0.00  0.00    -0.218 OA
BRANCH   8  10
ATOM     10  C   UNL     1      33.001  13.354   0.661  0.00  0.00    +0.171 C 
ATOM     11  O   UNL     1      32.128  14.170   1.435  0.00  0.00    -0.343 OA
ATOM     12  C   UNL     1      32.185  14.287   2.825  0.00  0.00    +0.220 C 
ATOM     13  C   UNL     1      33.611  14.602   3.313  0.00  0.00    +0.076 C 
ATOM     14  C   UNL     1      34.549  13.542   2.713  0.00  0.00    +0.177 C 
ATOM     15  O   UNL     1      35.877  13.764   3.165  0.00  0.00    -0.221 OA
ATOM     16  C   UNL     1      34.468  13.572   1.155  0.00  0.00    +0.155 C 
BRANCH  16  17
ATOM     17  N   UNL     1      35.364  12.571   0.581  0.00  0.00    -0.202 NA
ATOM     18  C   UNL     1      36.316  12.706  -0.377  0.00  0.00    +0.242 C 
ATOM     19  C   UNL     1      37.298  11.580  -0.573  0.00  0.00    +0.096 C 
ATOM     20  O   UNL     1      36.357  13.731  -1.053  0.00  0.00    -0.273 OA
ENDBRANCH  16  17
BRANCH  12  21
ATOM     21  C   UNL     1      31.555  13.012   3.609  0.00  0.00    +0.391 C 
ATOM     22  O   UNL     1      32.305  12.881   4.720  0.00  0.00    -0.243 OA
ATOM     23  O   UNL     1      30.373  12.768   3.029  0.00  0.00    -0.243 OA
ENDBRANCH  12  21
ENDBRANCH   8  10
ENDBRANCH   6   8
ENDBRANCH   5   6
ENDBRANCH   2   5
BRANCH   1  24
ATOM     24  O   UNL     1      28.949  15.748  -0.880  0.00  0.00    -0.450 OA
BRANCH  24  25
ATOM     25  C   UNL     1      28.708  17.130  -0.757  0.00  0.00    +0.240 C 
BRANCH  25  26
ATOM     26  C   UNL     1      27.413  17.684  -1.383  0.00  0.00    +0.100 C 
BRANCH  26  28
ATOM     27  N   UNL     1      27.106  17.249  -3.798  0.00  0.00    -0.134 NA
ATOM     28  C   UNL     1      26.975  16.828  -2.500  0.00  0.00    +0.086 A 
ATOM     29  C   UNL     1      26.406  15.574  -2.490  0.00  0.00    +0.133 A 
ATOM     30  N   UNL     1      26.197  15.296  -3.807  0.00  0.00    -0.250 N 
ATOM     31  N   UNL     1      26.621  16.304  -4.590  0.00  0.00    -0.065 NA
BRANCH  30  32
ATOM     32  C   UNL     1      25.632  14.098  -4.390  0.00  0.00    +0.162 C 
BRANCH  32  33
ATOM     33  C   UNL     1      24.801  13.265  -3.409  0.00  0.00    +0.129 C 
BRANCH  33  34
ATOM     34  N   UNL     1      23.328  13.447  -3.565  0.00  0.00    -0.193 NA
ATOM     35  H   UNL     1      22.850  12.539  -3.553  0.00  0.00    +0.148 HD
BRANCH  34  36
ATOM     36  S   UNL     1      22.608  14.582  -2.548  0.00  0.00    +0.027 S 
ATOM     37  O   UNL     1      23.163  14.371  -1.229  0.00  0.00    -0.158 OA
ATOM     38  O   UNL     1      22.690  15.870  -3.201  0.00  0.00    -0.158 OA
ATOM     39  C   UNL     1      20.919  14.030  -2.538  0.00  0.00    +0.214 C 
ENDBRANCH  34  36
ENDBRANCH  33  34
ENDBRANCH  32  33
ENDBRANCH  30  32
ENDBRANCH  26  28
ENDBRANCH  25  26
ENDBRANCH  24  25
ENDBRANCH   1  24
TORSDOF 14
