REMARK VINA RESULT:    -6.984      2.613      4.515
REMARK INTER + INTRA:         -12.793
REMARK INTER:                 -11.407
REMARK INTRA:                  -1.386
REMARK UNBOUND:                -1.318
REMARK  Name = lig_assembled_40.pdb
REMARK  12 active torsions:
REMARK  status: ('A' for Active; 'I' for Inactive)
REMARK    1  A    between atoms: _2  and  _8
REMARK    2  A    between atoms: _5  and  _6
REMARK    3  A    between atoms: _5  and  _14
REMARK    4  A    between atoms: _11  and  _12
REMARK    5  A    between atoms: _14  and  _16
REMARK    6  A    between atoms: _15  and  _20
REMARK    7  A    between atoms: _16  and  _19
REMARK    8  A    between atoms: _24  and  _34
REMARK    9  A    between atoms: _26  and  _27
REMARK   10  A    between atoms: _28  and  _30
REMARK   11  A    between atoms: _30  and  _32
REMARK   12  A    between atoms: _32  and  _34
REMARK                            x       y       z     vdW  Elec       q    Type
REMARK                         _______ _______ _______ _____ _____    ______ ____
ROOT
ATOM      1  C   UNL     1      28.280  17.558  -0.944  0.00  0.00    +0.400 C 
ATOM      2  N   UNL     1      29.361  17.694  -0.106  0.00  0.00    -0.278 N 
ATOM      3  H   UNL     1      29.316  18.720   0.191  0.00  0.00    +0.152 HD
ATOM      4  O   UNL     1      27.477  18.486  -1.010  0.00  0.00    -0.226 OA
ENDROOT
BRANCH   1   5
ATOM      5  O   UNL     1      28.230  16.457  -1.619  0.00  0.00    -0.450 OA
BRANCH   5   6
ATOM      6  C   UNL     1      27.327  15.411  -1.891  0.00  0.00    +0.240 C 
BRANCH   6   7
ATOM      7  C   UNL     1      26.594  15.439  -3.247  0.00  0.00    +0.100 C 
BRANCH   7   9
ATOM      8  N   UNL     1      25.177  13.489  -2.683  0.00  0.00    -0.134 NA
ATOM      9  C   UNL     1      25.283  14.773  -3.136  0.00  0.00    +0.086 A 
ATOM     10  C   UNL     1      24.028  15.255  -3.418  0.00  0.00    +0.139 A 
ATOM     11  N   UNL     1      23.169  14.231  -3.089  0.00  0.00    -0.220 N 
ATOM     12  N   UNL     1      23.892  13.164  -2.667  0.00  0.00    -0.061 NA
BRANCH  11  13
ATOM     13  C   UNL     1      21.750  14.223  -3.115  0.00  0.00    +0.067 A 
ATOM     14  C   UNL     1      21.032  15.392  -3.398  0.00  0.00    +0.028 A 
ATOM     15  C   UNL     1      19.634  15.386  -3.350  0.00  0.00    +0.005 A 
ATOM     16  C   UNL     1      18.937  14.218  -3.022  0.00  0.00    -0.050 A 
ATOM     17  C   UNL     1      19.657  13.043  -2.775  0.00  0.00    +0.005 A 
ATOM     18  C   UNL     1      17.441  14.219  -2.923  0.00  0.00    +0.044 C 
ATOM     19  C   UNL     1      21.055  13.042  -2.821  0.00  0.00    +0.028 A 
ENDBRANCH  11  13
ENDBRANCH   7   9
ENDBRANCH   6   7
ENDBRANCH   5   6
ENDBRANCH   1   5
BRANCH   2  20
ATOM     20  C   UNL     1      30.507  17.077   0.557  0.00  0.00    +0.152 C 
BRANCH  20  21
ATOM     21  C   UNL     1      30.809  15.615   0.170  0.00  0.00    +0.193 C 
ATOM     22  O   UNL     1      31.896  15.653  -0.781  0.00  0.00    -0.219 OA
BRANCH  21  23
ATOM     23  C   UNL     1      31.306  14.668   1.285  0.00  0.00    +0.212 C 
ATOM     24  O   UNL     1      31.637  15.415   2.467  0.00  0.00    -0.218 OA
BRANCH  23  25
ATOM     25  C   UNL     1      30.259  13.554   1.670  0.00  0.00    +0.171 C 
ATOM     26  O   UNL     1      28.921  14.041   1.686  0.00  0.00    -0.343 OA
ATOM     27  C   UNL     1      27.835  13.344   2.222  0.00  0.00    +0.220 C 
ATOM     28  C   UNL     1      28.126  12.844   3.647  0.00  0.00    +0.076 C 
ATOM     29  C   UNL     1      29.443  12.052   3.600  0.00  0.00    +0.177 C 
ATOM     30  O   UNL     1      29.739  11.532   4.889  0.00  0.00    -0.221 OA
ATOM     31  C   UNL     1      30.599  12.961   3.077  0.00  0.00    +0.155 C 
BRANCH  31  32
ATOM     32  N   UNL     1      31.853  12.214   3.037  0.00  0.00    -0.202 NA
ATOM     33  C   UNL     1      32.953  12.323   3.825  0.00  0.00    +0.242 C 
ATOM     34  C   UNL     1      33.991  11.233   3.759  0.00  0.00    +0.096 C 
ATOM     35  O   UNL     1      33.076  13.296   4.567  0.00  0.00    -0.273 OA
ENDBRANCH  31  32
BRANCH  27  36
ATOM     36  C   UNL     1      27.300  12.145   1.266  0.00  0.00    +0.391 C 
ATOM     37  O   UNL     1      26.425  11.459   2.026  0.00  0.00    -0.243 OA
ATOM     38  O   UNL     1      27.686  12.462   0.024  0.00  0.00    -0.243 OA
ENDBRANCH  27  36
ENDBRANCH  23  25
ENDBRANCH  21  23
ENDBRANCH  20  21
ENDBRANCH   2  20
TORSDOF 11
