REMARK VINA RESULT:    -6.090      2.909      8.784
REMARK INTER + INTRA:         -12.269
REMARK INTER:                 -10.349
REMARK INTRA:                  -1.920
REMARK UNBOUND:                -2.263
REMARK  Name = lig_assembled_52.pdb
REMARK  11 active torsions:
REMARK  status: ('A' for Active; 'I' for Inactive)
REMARK    1  A    between atoms: _2  and  _9
REMARK    2  A    between atoms: _6  and  _7
REMARK    3  A    between atoms: _6  and  _13
REMARK    4  A    between atoms: _13  and  _15
REMARK    5  A    between atoms: _14  and  _19
REMARK    6  A    between atoms: _15  and  _18
REMARK    7  A    between atoms: _23  and  _33
REMARK    8  A    between atoms: _25  and  _26
REMARK    9  A    between atoms: _27  and  _29
REMARK   10  A    between atoms: _29  and  _31
REMARK   11  A    between atoms: _31  and  _33
REMARK                            x       y       z     vdW  Elec       q    Type
REMARK                         _______ _______ _______ _____ _____    ______ ____
ROOT
ATOM      1  C   UNL     1      28.280  14.151   0.367  0.00  0.00    +0.152 C 
ENDROOT
BRANCH   1   3
ATOM      2  C   UNL     1      28.723  16.733  -0.397  0.00  0.00    +0.400 C 
ATOM      3  N   UNL     1      28.151  15.578   0.082  0.00  0.00    -0.278 N 
ATOM      4  H   UNL     1      27.163  15.884   0.350  0.00  0.00    +0.152 HD
ATOM      5  O   UNL     1      27.998  17.709  -0.574  0.00  0.00    -0.226 OA
BRANCH   2   6
ATOM      6  O   UNL     1      30.000  16.687  -0.589  0.00  0.00    -0.450 OA
BRANCH   6   7
ATOM      7  C   UNL     1      31.172  16.322   0.103  0.00  0.00    +0.240 C 
BRANCH   7   8
ATOM      8  C   UNL     1      31.886  15.031  -0.340  0.00  0.00    +0.100 C 
BRANCH   8  10
ATOM      9  N   UNL     1      32.307  12.784   0.606  0.00  0.00    -0.134 NA
ATOM     10  C   UNL     1      32.024  14.106   0.800  0.00  0.00    +0.086 A 
ATOM     11  C   UNL     1      31.916  14.348   2.150  0.00  0.00    +0.140 A 
ATOM     12  N   UNL     1      32.164  13.134   2.750  0.00  0.00    -0.218 N 
ATOM     13  N   UNL     1      32.386  12.201   1.793  0.00  0.00    -0.060 NA
BRANCH  12  14
ATOM     14  C   UNL     1      32.214  12.824   4.125  0.00  0.00    +0.085 A 
ATOM     15  C   UNL     1      31.127  12.256   4.797  0.00  0.00    +0.031 A 
ATOM     16  C   UNL     1      31.232  11.994   6.161  0.00  0.00    +0.022 A 
ATOM     17  C   UNL     1      32.417  12.306   6.806  0.00  0.00    +0.111 A 
ATOM     18  N   UNL     1      33.485  12.848   6.185  0.00  0.00    -0.261 NA
ATOM     19  C   UNL     1      33.365  13.097   4.857  0.00  0.00    +0.138 A 
ENDBRANCH  12  14
ENDBRANCH   8  10
ENDBRANCH   7   8
ENDBRANCH   6   7
ENDBRANCH   2   6
ENDBRANCH   1   3
BRANCH   1  20
ATOM     20  C   UNL     1      28.830  13.276  -0.778  0.00  0.00    +0.193 C 
ATOM     21  O   UNL     1      29.048  11.959  -0.226  0.00  0.00    -0.219 OA
BRANCH  20  22
ATOM     22  C   UNL     1      27.913  13.036  -1.998  0.00  0.00    +0.212 C 
ATOM     23  O   UNL     1      28.166  11.741  -2.568  0.00  0.00    -0.218 OA
BRANCH  22  24
ATOM     24  C   UNL     1      26.378  13.145  -1.656  0.00  0.00    +0.171 C 
ATOM     25  O   UNL     1      25.752  11.872  -1.534  0.00  0.00    -0.343 OA
ATOM     26  C   UNL     1      24.370  11.675  -1.479  0.00  0.00    +0.220 C 
ATOM     27  C   UNL     1      23.644  12.402  -2.625  0.00  0.00    +0.076 C 
ATOM     28  C   UNL     1      24.090  13.873  -2.595  0.00  0.00    +0.177 C 
ATOM     29  O   UNL     1      23.416  14.601  -3.612  0.00  0.00    -0.221 OA
ATOM     30  C   UNL     1      25.639  13.969  -2.761  0.00  0.00    +0.155 C 
BRANCH  30  31
ATOM     31  N   UNL     1      26.066  15.365  -2.740  0.00  0.00    -0.202 NA
ATOM     32  C   UNL     1      26.399  16.186  -3.769  0.00  0.00    +0.242 C 
ATOM     33  C   UNL     1      26.517  17.663  -3.496  0.00  0.00    +0.096 C 
ATOM     34  O   UNL     1      26.592  15.712  -4.887  0.00  0.00    -0.273 OA
ENDBRANCH  30  31
BRANCH  26  35
ATOM     35  C   UNL     1      23.722  12.040  -0.035  0.00  0.00    +0.391 C 
ATOM     36  O   UNL     1      22.414  12.246  -0.284  0.00  0.00    -0.243 OA
ATOM     37  O   UNL     1      24.642  11.707   0.878  0.00  0.00    -0.243 OA
ENDBRANCH  26  35
ENDBRANCH  22  24
ENDBRANCH  20  22
ENDBRANCH   1  20
TORSDOF 11
