REMARK VINA RESULT:    -6.688      3.159      4.220
REMARK INTER + INTRA:         -13.480
REMARK INTER:                 -11.844
REMARK INTRA:                  -1.635
REMARK UNBOUND:                -1.904
REMARK  Name = lig_assembled_73.pdb
REMARK  13 active torsions:
REMARK  status: ('A' for Active; 'I' for Inactive)
REMARK    1  A    between atoms: _2  and  _9
REMARK    2  A    between atoms: _3  and  _13
REMARK    3  A    between atoms: _6  and  _7
REMARK    4  A    between atoms: _6  and  _17
REMARK    5  A    between atoms: _12  and  _15
REMARK    6  A    between atoms: _17  and  _19
REMARK    7  A    between atoms: _18  and  _23
REMARK    8  A    between atoms: _19  and  _22
REMARK    9  A    between atoms: _27  and  _37
REMARK   10  A    between atoms: _29  and  _30
REMARK   11  A    between atoms: _31  and  _33
REMARK   12  A    between atoms: _33  and  _35
REMARK   13  A    between atoms: _35  and  _37
REMARK                            x       y       z     vdW  Elec       q    Type
REMARK                         _______ _______ _______ _____ _____    ______ ____
ROOT
ATOM      1  C   UNL     1      28.209  16.923  -0.608  0.00  0.00    +0.400 C 
ATOM      2  N   UNL     1      28.644  15.946   0.256  0.00  0.00    -0.278 N 
ATOM      3  H   UNL     1      28.997  16.501   1.099  0.00  0.00    +0.152 HD
ATOM      4  O   UNL     1      28.147  18.078  -0.194  0.00  0.00    -0.226 OA
ENDROOT
BRANCH   2   5
ATOM      5  C   UNL     1      28.822  14.525   0.539  0.00  0.00    +0.152 C 
BRANCH   5   6
ATOM      6  C   UNL     1      30.278  14.038   0.688  0.00  0.00    +0.193 C 
ATOM      7  O   UNL     1      30.226  12.599   0.796  0.00  0.00    -0.219 OA
BRANCH   6   8
ATOM      8  C   UNL     1      31.244  14.303  -0.487  0.00  0.00    +0.212 C 
ATOM      9  O   UNL     1      31.581  15.698  -0.556  0.00  0.00    -0.218 OA
BRANCH   8  10
ATOM     10  C   UNL     1      32.578  13.467  -0.400  0.00  0.00    +0.171 C 
ATOM     11  O   UNL     1      33.476  13.969   0.584  0.00  0.00    -0.343 OA
ATOM     12  C   UNL     1      34.811  13.578   0.705  0.00  0.00    +0.220 C 
ATOM     13  C   UNL     1      35.555  13.665  -0.638  0.00  0.00    +0.076 C 
ATOM     14  C   UNL     1      34.739  12.870  -1.671  0.00  0.00    +0.177 C 
ATOM     15  O   UNL     1      35.405  12.884  -2.926  0.00  0.00    -0.221 OA
ATOM     16  C   UNL     1      33.299  13.459  -1.787  0.00  0.00    +0.155 C 
BRANCH  16  17
ATOM     17  N   UNL     1      32.523  12.711  -2.772  0.00  0.00    -0.202 NA
ATOM     18  C   UNL     1      32.402  12.905  -4.110  0.00  0.00    +0.242 C 
ATOM     19  C   UNL     1      31.774  11.813  -4.937  0.00  0.00    +0.096 C 
ATOM     20  O   UNL     1      32.803  13.953  -4.612  0.00  0.00    -0.273 OA
ENDBRANCH  16  17
BRANCH  12  21
ATOM     21  C   UNL     1      34.998  12.121   1.399  0.00  0.00    +0.391 C 
ATOM     22  O   UNL     1      36.286  11.794   1.178  0.00  0.00    -0.243 OA
ATOM     23  O   UNL     1      33.919  11.937   2.170  0.00  0.00    -0.243 OA
ENDBRANCH  12  21
ENDBRANCH   8  10
ENDBRANCH   6   8
ENDBRANCH   5   6
ENDBRANCH   2   5
BRANCH   1  24
ATOM     24  O   UNL     1      27.930  16.527  -1.807  0.00  0.00    -0.450 OA
BRANCH  24  25
ATOM     25  C   UNL     1      27.046  15.649  -2.463  0.00  0.00    +0.240 C 
BRANCH  25  26
ATOM     26  C   UNL     1      25.826  16.267  -3.172  0.00  0.00    +0.100 C 
BRANCH  26  28
ATOM     27  N   UNL     1      24.624  14.463  -1.977  0.00  0.00    -0.134 NA
ATOM     28  C   UNL     1      24.616  15.467  -2.902  0.00  0.00    +0.086 A 
ATOM     29  C   UNL     1      23.362  15.552  -3.461  0.00  0.00    +0.139 A 
ATOM     30  N   UNL     1      22.626  14.574  -2.834  0.00  0.00    -0.220 N 
ATOM     31  N   UNL     1      23.412  13.926  -1.942  0.00  0.00    -0.061 NA
BRANCH  30  32
ATOM     32  C   UNL     1      21.264  14.224  -3.027  0.00  0.00    +0.074 A 
ATOM     33  C   UNL     1      20.881  12.872  -2.992  0.00  0.00    +0.032 A 
ATOM     34  C   UNL     1      19.544  12.501  -3.190  0.00  0.00    +0.054 A 
ATOM     35  C   UNL     1      18.579  13.477  -3.429  0.00  0.00    +0.195 A 
ATOM     36  C   UNL     1      18.965  14.816  -3.462  0.00  0.00    +0.316 A 
ATOM     37  C   UNL     1      20.296  15.209  -3.258  0.00  0.00    +0.116 A 
BRANCH  36  38
ATOM     38  N   UNL     1      17.986  15.854  -3.719  0.00  0.00    +0.083 N 
ATOM     39  O   UNL     1      18.330  16.800  -4.440  0.00  0.00    +0.042 OA
ATOM     40  O   UNL     1      16.905  15.759  -3.118  0.00  0.00    -0.576 OA
ENDBRANCH  36  38
BRANCH  35  41
ATOM     41  O   UNL     1      17.275  13.118  -3.600  0.00  0.00    -0.501 OA
ATOM     42  H   UNL     1      16.835  13.738  -4.208  0.00  0.00    +0.292 HD
ENDBRANCH  35  41
ENDBRANCH  30  32
ENDBRANCH  26  28
ENDBRANCH  25  26
ENDBRANCH  24  25
ENDBRANCH   1  24
TORSDOF 13
