REMARK VINA RESULT:    -6.763      2.359      5.660
REMARK INTER + INTRA:         -14.729
REMARK INTER:                 -11.917
REMARK INTRA:                  -2.812
REMARK UNBOUND:                -2.234
REMARK  Name = lig_assembled_83.pdb
REMARK  15 active torsions:
REMARK  status: ('A' for Active; 'I' for Inactive)
REMARK    1  A    between atoms: _2  and  _11
REMARK    2  A    between atoms: _3  and  _13
REMARK    3  A    between atoms: _8  and  _9
REMARK    4  A    between atoms: _8  and  _19
REMARK    5  A    between atoms: _11  and  _12
REMARK    6  A    between atoms: _12  and  _13
REMARK    7  A    between atoms: _12  and  _17
REMARK    8  A    between atoms: _19  and  _21
REMARK    9  A    between atoms: _20  and  _25
REMARK   10  A    between atoms: _21  and  _24
REMARK   11  A    between atoms: _29  and  _39
REMARK   12  A    between atoms: _31  and  _32
REMARK   13  A    between atoms: _33  and  _35
REMARK   14  A    between atoms: _35  and  _37
REMARK   15  A    between atoms: _37  and  _39
REMARK                            x       y       z     vdW  Elec       q    Type
REMARK                         _______ _______ _______ _____ _____    ______ ____
ROOT
ATOM      1  C   UNL     1      25.035  10.983   2.377  0.00  0.00    +0.400 C 
ATOM      2  N   UNL     1      26.147  11.618   1.876  0.00  0.00    -0.278 N 
ATOM      3  H   UNL     1      26.929  11.302   2.532  0.00  0.00    +0.152 HD
ATOM      4  O   UNL     1      25.196  10.135   3.251  0.00  0.00    -0.226 OA
ENDROOT
BRANCH   2   5
ATOM      5  C   UNL     1      26.728  12.497   0.864  0.00  0.00    +0.152 C 
BRANCH   5   6
ATOM      6  C   UNL     1      27.953  13.324   1.305  0.00  0.00    +0.193 C 
ATOM      7  O   UNL     1      27.752  13.654   2.698  0.00  0.00    -0.219 OA
BRANCH   6   8
ATOM      8  C   UNL     1      29.333  12.632   1.269  0.00  0.00    +0.212 C 
ATOM      9  O   UNL     1      29.248  11.312   1.828  0.00  0.00    -0.218 OA
BRANCH   8  10
ATOM     10  C   UNL     1      29.941  12.527  -0.182  0.00  0.00    +0.171 C 
ATOM     11  O   UNL     1      30.572  11.273  -0.422  0.00  0.00    -0.343 OA
ATOM     12  C   UNL     1      31.394  11.002  -1.518  0.00  0.00    +0.220 C 
ATOM     13  C   UNL     1      32.485  12.072  -1.692  0.00  0.00    +0.076 C 
ATOM     14  C   UNL     1      31.789  13.442  -1.729  0.00  0.00    +0.177 C 
ATOM     15  O   UNL     1      32.752  14.467  -1.929  0.00  0.00    -0.221 OA
ATOM     16  C   UNL     1      30.982  13.671  -0.413  0.00  0.00    +0.155 C 
BRANCH  16  17
ATOM     17  N   UNL     1      30.324  14.974  -0.441  0.00  0.00    -0.202 NA
ATOM     18  C   UNL     1      30.532  16.068   0.335  0.00  0.00    +0.242 C 
ATOM     19  C   UNL     1      29.925  17.378  -0.097  0.00  0.00    +0.096 C 
ATOM     20  O   UNL     1      31.204  15.968   1.359  0.00  0.00    -0.273 OA
ENDBRANCH  16  17
BRANCH  12  21
ATOM     21  C   UNL     1      30.572  10.758  -2.898  0.00  0.00    +0.391 C 
ATOM     22  O   UNL     1      31.511  10.736  -3.863  0.00  0.00    -0.243 OA
ATOM     23  O   UNL     1      29.341  10.377  -2.533  0.00  0.00    -0.243 OA
ENDBRANCH  12  21
ENDBRANCH   8  10
ENDBRANCH   6   8
ENDBRANCH   5   6
ENDBRANCH   2   5
BRANCH   1  24
ATOM     24  O   UNL     1      23.902  11.372   1.891  0.00  0.00    -0.450 OA
BRANCH  24  25
ATOM     25  C   UNL     1      22.750  10.822   1.295  0.00  0.00    +0.240 C 
BRANCH  25  26
ATOM     26  C   UNL     1      21.490  11.706   1.235  0.00  0.00    +0.100 C 
BRANCH  26  28
ATOM     27  N   UNL     1      20.576  13.520  -0.193  0.00  0.00    -0.134 NA
ATOM     28  C   UNL     1      21.476  12.502  -0.005  0.00  0.00    +0.086 A 
ATOM     29  C   UNL     1      22.279  12.405  -1.120  0.00  0.00    +0.133 A 
ATOM     30  N   UNL     1      21.827  13.395  -1.936  0.00  0.00    -0.249 N 
ATOM     31  N   UNL     1      20.798  14.058  -1.386  0.00  0.00    -0.065 NA
BRANCH  30  32
ATOM     32  C   UNL     1      22.303  13.737  -3.260  0.00  0.00    +0.178 C 
BRANCH  32  33
ATOM     33  C   UNL     1      23.018  15.091  -3.278  0.00  0.00    +0.156 C 
BRANCH  33  34
ATOM     34  O   UNL     1      23.412  15.451  -1.949  0.00  0.00    -0.388 OA
ATOM     35  H   UNL     1      24.062  16.182  -1.983  0.00  0.00    +0.210 HD
ENDBRANCH  33  34
BRANCH  33  36
ATOM     36  C   UNL     1      24.245  15.040  -4.201  0.00  0.00    +0.162 C 
BRANCH  36  37
ATOM     37  N   UNL     1      25.450  14.615  -3.507  0.00  0.00    -0.269 N 
ATOM     38  C   UNL     1      25.767  13.295  -3.278  0.00  0.00    +0.113 A 
ATOM     39  C   UNL     1      26.980  13.314  -2.631  0.00  0.00    +0.137 A 
ATOM     40  N   UNL     1      27.404  14.599  -2.430  0.00  0.00    -0.172 NA
ATOM     41  C   UNL     1      26.471  15.362  -2.969  0.00  0.00    +0.450 A 
ATOM     42  N   UNL     1      26.556  16.804  -2.974  0.00  0.00    +0.120 N 
ATOM     43  O   UNL     1      25.628  17.435  -3.508  0.00  0.00    +0.045 OA
ATOM     44  O   UNL     1      27.542  17.320  -2.436  0.00  0.00    -0.573 OA
ENDBRANCH  36  37
ENDBRANCH  33  36
ENDBRANCH  32  33
ENDBRANCH  30  32
ENDBRANCH  26  28
ENDBRANCH  25  26
ENDBRANCH  24  25
ENDBRANCH   1  24
TORSDOF 15
