REMARK VINA RESULT:    -6.591      1.560      1.997
REMARK INTER + INTRA:         -13.811
REMARK INTER:                 -11.867
REMARK INTRA:                  -1.944
REMARK UNBOUND:                -2.596
REMARK  Name = lig_assembled_4.pdb
REMARK  14 active torsions:
REMARK  status: ('A' for Active; 'I' for Inactive)
REMARK    1  A    between atoms: _2  and  _8
REMARK    2  A    between atoms: _5  and  _6
REMARK    3  A    between atoms: _5  and  _16
REMARK    4  A    between atoms: _9  and  _10
REMARK    5  A    between atoms: _10  and  _11
REMARK    6  A    between atoms: _10  and  _12
REMARK    7  A    between atoms: _16  and  _18
REMARK    8  A    between atoms: _17  and  _22
REMARK    9  A    between atoms: _18  and  _21
REMARK   10  A    between atoms: _26  and  _36
REMARK   11  A    between atoms: _28  and  _29
REMARK   12  A    between atoms: _30  and  _32
REMARK   13  A    between atoms: _32  and  _34
REMARK   14  A    between atoms: _34  and  _36
REMARK                            x       y       z     vdW  Elec       q    Type
REMARK                         _______ _______ _______ _____ _____    ______ ____
ROOT
ATOM      1  C   UNL     1      26.652  16.571  -3.222  0.00  0.00    +0.400 C 
ATOM      2  N   UNL     1      27.236  16.090  -2.073  0.00  0.00    -0.278 N 
ATOM      3  H   UNL     1      27.164  16.914  -1.396  0.00  0.00    +0.152 HD
ATOM      4  O   UNL     1      26.068  17.650  -3.167  0.00  0.00    -0.226 OA
ENDROOT
BRANCH   2   5
ATOM      5  C   UNL     1      27.881  14.981  -1.375  0.00  0.00    +0.152 C 
BRANCH   5   6
ATOM      6  C   UNL     1      28.627  15.339  -0.073  0.00  0.00    +0.193 C 
ATOM      7  O   UNL     1      28.378  14.262   0.857  0.00  0.00    -0.219 OA
BRANCH   6   8
ATOM      8  C   UNL     1      30.166  15.446  -0.137  0.00  0.00    +0.212 C 
ATOM      9  O   UNL     1      30.596  16.751   0.283  0.00  0.00    -0.218 OA
BRANCH   8  10
ATOM     10  C   UNL     1      30.904  14.365   0.741  0.00  0.00    +0.171 C 
ATOM     11  O   UNL     1      31.146  14.813   2.071  0.00  0.00    -0.343 OA
ATOM     12  C   UNL     1      31.986  14.165   2.980  0.00  0.00    +0.220 C 
ATOM     13  C   UNL     1      33.367  13.870   2.369  0.00  0.00    +0.076 C 
ATOM     14  C   UNL     1      33.138  13.115   1.049  0.00  0.00    +0.177 C 
ATOM     15  O   UNL     1      34.387  12.782   0.461  0.00  0.00    -0.221 OA
ATOM     16  C   UNL     1      32.268  13.978   0.082  0.00  0.00    +0.155 C 
BRANCH  16  17
ATOM     17  N   UNL     1      32.053  13.267  -1.176  0.00  0.00    -0.202 NA
ATOM     18  C   UNL     1      32.626  13.462  -2.392  0.00  0.00    +0.242 C 
ATOM     19  C   UNL     1      32.445  12.401  -3.446  0.00  0.00    +0.096 C 
ATOM     20  O   UNL     1      33.273  14.486  -2.601  0.00  0.00    -0.273 OA
ENDBRANCH  16  17
BRANCH  12  21
ATOM     21  C   UNL     1      31.326  12.833   3.636  0.00  0.00    +0.391 C 
ATOM     22  O   UNL     1      32.355  12.186   4.218  0.00  0.00    -0.243 OA
ATOM     23  O   UNL     1      30.002  13.029   3.616  0.00  0.00    -0.243 OA
ENDBRANCH  12  21
ENDBRANCH   8  10
ENDBRANCH   6   8
ENDBRANCH   5   6
ENDBRANCH   2   5
BRANCH   1  24
ATOM     24  O   UNL     1      26.806  15.839  -4.276  0.00  0.00    -0.450 OA
BRANCH  24  25
ATOM     25  C   UNL     1      26.125  14.831  -4.986  0.00  0.00    +0.240 C 
BRANCH  25  26
ATOM     26  C   UNL     1      24.594  14.760  -4.826  0.00  0.00    +0.100 C 
BRANCH  26  28
ATOM     27  N   UNL     1      23.988  12.455  -4.187  0.00  0.00    -0.134 NA
ATOM     28  C   UNL     1      24.222  13.745  -3.823  0.00  0.00    +0.086 A 
ATOM     29  C   UNL     1      24.013  13.877  -2.469  0.00  0.00    +0.139 A 
ATOM     30  N   UNL     1      23.519  12.652  -2.065  0.00  0.00    -0.220 N 
ATOM     31  N   UNL     1      23.587  11.795  -3.107  0.00  0.00    -0.061 NA
BRANCH  30  32
ATOM     32  C   UNL     1      22.990  12.309  -0.785  0.00  0.00    +0.070 A 
ATOM     33  C   UNL     1      23.769  11.729   0.253  0.00  0.00    -0.019 A 
ATOM     34  C   UNL     1      23.111  11.409   1.462  0.00  0.00    +0.006 A 
ATOM     35  C   UNL     1      21.745  11.634   1.645  0.00  0.00    +0.000 A 
ATOM     36  C   UNL     1      20.997  12.207   0.629  0.00  0.00    +0.002 A 
ATOM     37  C   UNL     1      21.612  12.540  -0.577  0.00  0.00    +0.028 A 
BRANCH  33  38
ATOM     38  C   UNL     1      25.264  11.422   0.139  0.00  0.00    +0.015 C 
ATOM     39  C   UNL     1      25.602  10.014  -0.375  0.00  0.00    +0.012 C 
ATOM     40  C   UNL     1      25.951  11.660   1.487  0.00  0.00    +0.012 C 
ENDBRANCH  33  38
ENDBRANCH  30  32
ENDBRANCH  26  28
ENDBRANCH  25  26
ENDBRANCH  24  25
ENDBRANCH   1  24
TORSDOF 12
