REMARK VINA RESULT:    -5.842      2.324      3.578
REMARK INTER + INTRA:         -13.145
REMARK INTER:                 -10.885
REMARK INTRA:                  -2.260
REMARK UNBOUND:                -3.035
REMARK  Name = lig_assembled_22.pdb
REMARK  15 active torsions:
REMARK  status: ('A' for Active; 'I' for Inactive)
REMARK    1  A    between atoms: _2  and  _8
REMARK    2  A    between atoms: _4  and  _8
REMARK    3  A    between atoms: _4  and  _11
REMARK    4  A    between atoms: _5  and  _6
REMARK    5  A    between atoms: _5  and  _13
REMARK    6  A    between atoms: _8  and  _9
REMARK    7  A    between atoms: _8  and  _10
REMARK    8  A    between atoms: _13  and  _15
REMARK    9  A    between atoms: _14  and  _19
REMARK   10  A    between atoms: _15  and  _18
REMARK   11  A    between atoms: _23  and  _33
REMARK   12  A    between atoms: _25  and  _26
REMARK   13  A    between atoms: _27  and  _29
REMARK   14  A    between atoms: _29  and  _31
REMARK   15  A    between atoms: _31  and  _33
REMARK                            x       y       z     vdW  Elec       q    Type
REMARK                         _______ _______ _______ _____ _____    ______ ____
ROOT
ATOM      1  C   UNL     1      27.595  13.328   2.405  0.00  0.00    +0.400 C 
ATOM      2  N   UNL     1      28.293  14.302   1.730  0.00  0.00    -0.278 N 
ATOM      3  H   UNL     1      28.406  15.075   2.459  0.00  0.00    +0.152 HD
ATOM      4  O   UNL     1      27.441  13.460   3.617  0.00  0.00    -0.226 OA
ENDROOT
BRANCH   1   5
ATOM      5  O   UNL     1      27.134  12.364   1.678  0.00  0.00    -0.450 OA
BRANCH   5   6
ATOM      6  C   UNL     1      25.949  12.004   1.007  0.00  0.00    +0.240 C 
BRANCH   6   7
ATOM      7  C   UNL     1      26.079  11.475  -0.434  0.00  0.00    +0.100 C 
BRANCH   7   9
ATOM      8  N   UNL     1      27.458  12.795  -2.001  0.00  0.00    -0.134 NA
ATOM      9  C   UNL     1      26.259  12.596  -1.375  0.00  0.00    +0.086 A 
ATOM     10  C   UNL     1      25.373  13.569  -1.782  0.00  0.00    +0.135 A 
ATOM     11  N   UNL     1      26.092  14.334  -2.658  0.00  0.00    -0.235 N 
ATOM     12  N   UNL     1      27.346  13.860  -2.778  0.00  0.00    -0.064 NA
BRANCH  11  13
ATOM     13  C   UNL     1      25.684  15.529  -3.400  0.00  0.00    +0.155 C 
ATOM     14  C   UNL     1      24.184  15.846  -3.216  0.00  0.00    +0.048 C 
ATOM     15  C   UNL     1      25.953  15.294  -4.899  0.00  0.00    +0.048 C 
BRANCH  13  16
ATOM     16  C   UNL     1      26.476  16.748  -2.920  0.00  0.00    +0.332 C 
ATOM     17  O   UNL     1      26.812  17.678  -3.643  0.00  0.00    -0.248 OA
BRANCH  16  18
ATOM     18  O   UNL     1      26.798  16.749  -1.604  0.00  0.00    -0.479 OA
ATOM     19  H   UNL     1      26.062  16.611  -0.976  0.00  0.00    +0.295 HD
ENDBRANCH  16  18
ENDBRANCH  13  16
ENDBRANCH  11  13
ENDBRANCH   7   9
ENDBRANCH   6   7
ENDBRANCH   5   6
ENDBRANCH   1   5
BRANCH   2  20
ATOM     20  C   UNL     1      28.946  14.737   0.498  0.00  0.00    +0.152 C 
BRANCH  20  21
ATOM     21  C   UNL     1      30.334  14.130   0.214  0.00  0.00    +0.193 C 
ATOM     22  O   UNL     1      30.503  14.134  -1.221  0.00  0.00    -0.219 OA
BRANCH  21  23
ATOM     23  C   UNL     1      31.570  14.886   0.750  0.00  0.00    +0.212 C 
ATOM     24  O   UNL     1      31.163  16.029   1.519  0.00  0.00    -0.218 OA
BRANCH  23  25
ATOM     25  C   UNL     1      32.514  13.990   1.638  0.00  0.00    +0.171 C 
ATOM     26  O   UNL     1      32.775  14.567   2.914  0.00  0.00    -0.343 OA
ATOM     27  C   UNL     1      33.759  14.115   3.797  0.00  0.00    +0.220 C 
ATOM     28  C   UNL     1      35.125  13.972   3.103  0.00  0.00    +0.076 C 
ATOM     29  C   UNL     1      34.922  13.095   1.857  0.00  0.00    +0.177 C 
ATOM     30  O   UNL     1      36.165  12.897   1.199  0.00  0.00    -0.221 OA
ATOM     31  C   UNL     1      33.874  13.750   0.904  0.00  0.00    +0.155 C 
BRANCH  31  32
ATOM     32  N   UNL     1      33.683  12.923  -0.285  0.00  0.00    -0.202 NA
ATOM     33  C   UNL     1      33.791  13.252  -1.597  0.00  0.00    +0.242 C 
ATOM     34  C   UNL     1      33.832  12.139  -2.612  0.00  0.00    +0.096 C 
ATOM     35  O   UNL     1      33.855  14.435  -1.924  0.00  0.00    -0.273 OA
ENDBRANCH  31  32
BRANCH  27  36
ATOM     36  C   UNL     1      33.345  12.757   4.587  0.00  0.00    +0.391 C 
ATOM     37  O   UNL     1      34.479  12.345   5.187  0.00  0.00    -0.243 OA
ATOM     38  O   UNL     1      32.007  12.728   4.596  0.00  0.00    -0.243 OA
ENDBRANCH  27  36
ENDBRANCH  23  25
ENDBRANCH  21  23
ENDBRANCH  20  21
ENDBRANCH   2  20
TORSDOF 13
