REMARK VINA RESULT:    -6.845      2.665      4.395
REMARK INTER + INTRA:         -14.707
REMARK INTER:                 -12.223
REMARK INTRA:                  -2.484
REMARK UNBOUND:                -1.860
REMARK  Name = lig_assembled_37.pdb
REMARK  16 active torsions:
REMARK  status: ('A' for Active; 'I' for Inactive)
REMARK    1  A    between atoms: _2  and  _8
REMARK    2  A    between atoms: _5  and  _6
REMARK    3  A    between atoms: _5  and  _19
REMARK    4  A    between atoms: _8  and  _9
REMARK    5  A    between atoms: _8  and  _10
REMARK    6  A    between atoms: _10  and  _17
REMARK    7  A    between atoms: _11  and  _12
REMARK    8  A    between atoms: _11  and  _17
REMARK    9  A    between atoms: _19  and  _21
REMARK   10  A    between atoms: _20  and  _25
REMARK   11  A    between atoms: _21  and  _24
REMARK   12  A    between atoms: _29  and  _39
REMARK   13  A    between atoms: _31  and  _32
REMARK   14  A    between atoms: _33  and  _35
REMARK   15  A    between atoms: _35  and  _37
REMARK   16  A    between atoms: _37  and  _39
REMARK                            x       y       z     vdW  Elec       q    Type
REMARK                         _______ _______ _______ _____ _____    ______ ____
ROOT
ATOM      1  C   UNL     1      30.822  14.844   1.714  0.00  0.00    +0.400 C 
ATOM      2  N   UNL     1      30.472  13.520   1.843  0.00  0.00    -0.278 N 
ATOM      3  H   UNL     1      31.239  13.122   2.472  0.00  0.00    +0.152 HD
ATOM      4  O   UNL     1      31.726  15.276   2.425  0.00  0.00    -0.226 OA
ENDROOT
BRANCH   2   5
ATOM      5  C   UNL     1      29.537  12.444   1.526  0.00  0.00    +0.152 C 
BRANCH   5   6
ATOM      6  C   UNL     1      30.002  11.433   0.458  0.00  0.00    +0.193 C 
ATOM      7  O   UNL     1      28.921  10.491   0.280  0.00  0.00    -0.219 OA
BRANCH   6   8
ATOM      8  C   UNL     1      30.281  11.971  -0.963  0.00  0.00    +0.212 C 
ATOM      9  O   UNL     1      29.536  13.177  -1.198  0.00  0.00    -0.218 OA
BRANCH   8  10
ATOM     10  C   UNL     1      31.807  12.261  -1.232  0.00  0.00    +0.171 C 
ATOM     11  O   UNL     1      32.179  13.594  -0.896  0.00  0.00    -0.343 OA
ATOM     12  C   UNL     1      33.391  14.189  -1.255  0.00  0.00    +0.220 C 
ATOM     13  C   UNL     1      33.682  14.028  -2.757  0.00  0.00    +0.076 C 
ATOM     14  C   UNL     1      33.570  12.532  -3.093  0.00  0.00    +0.177 C 
ATOM     15  O   UNL     1      33.870  12.322  -4.465  0.00  0.00    -0.221 OA
ATOM     16  C   UNL     1      32.145  12.006  -2.737  0.00  0.00    +0.155 C 
BRANCH  16  17
ATOM     17  N   UNL     1      32.032  10.586  -3.061  0.00  0.00    -0.202 NA
ATOM     18  C   UNL     1      32.599   9.511  -2.457  0.00  0.00    +0.242 C 
ATOM     19  C   UNL     1      32.084   8.139  -2.808  0.00  0.00    +0.096 C 
ATOM     20  O   UNL     1      33.508   9.678  -1.646  0.00  0.00    -0.273 OA
ENDBRANCH  16  17
BRANCH  12  21
ATOM     21  C   UNL     1      34.646  13.698  -0.348  0.00  0.00    +0.391 C 
ATOM     22  O   UNL     1      35.735  13.934  -1.105  0.00  0.00    -0.243 OA
ATOM     23  O   UNL     1      34.165  13.534   0.891  0.00  0.00    -0.243 OA
ENDBRANCH  12  21
ENDBRANCH   8  10
ENDBRANCH   6   8
ENDBRANCH   5   6
ENDBRANCH   2   5
BRANCH   1  24
ATOM     24  O   UNL     1      30.173  15.509   0.816  0.00  0.00    -0.450 OA
BRANCH  24  25
ATOM     25  C   UNL     1      30.383  16.567  -0.091  0.00  0.00    +0.240 C 
BRANCH  25  26
ATOM     26  C   UNL     1      29.342  17.702  -0.113  0.00  0.00    +0.100 C 
BRANCH  26  28
ATOM     27  N   UNL     1      27.624  18.440  -1.738  0.00  0.00    -0.134 NA
ATOM     28  C   UNL     1      28.301  17.425  -1.118  0.00  0.00    +0.086 A 
ATOM     29  C   UNL     1      27.840  16.219  -1.598  0.00  0.00    +0.134 A 
ATOM     30  N   UNL     1      26.864  16.566  -2.485  0.00  0.00    -0.238 N 
ATOM     31  N   UNL     1      26.750  17.905  -2.580  0.00  0.00    -0.065 NA
BRANCH  30  32
ATOM     32  C   UNL     1      26.044  15.718  -3.329  0.00  0.00    +0.214 C 
ATOM     33  C   UNL     1      26.422  15.862  -4.802  0.00  0.00    +0.045 C 
BRANCH  32  34
ATOM     34  C   UNL     1      26.139  14.269  -2.905  0.00  0.00    +0.332 C 
ATOM     35  O   UNL     1      26.959  13.475  -3.354  0.00  0.00    -0.248 OA
BRANCH  34  36
ATOM     36  O   UNL     1      25.199  13.969  -1.969  0.00  0.00    -0.458 OA
BRANCH  36  37
ATOM     37  C   UNL     1      23.886  14.507  -2.196  0.00  0.00    +0.267 C 
BRANCH  37  38
ATOM     38  C   UNL     1      22.867  13.723  -1.412  0.00  0.00    -0.010 A 
ATOM     39  C   UNL     1      23.258  12.616  -0.644  0.00  0.00    +0.007 A 
ATOM     40  C   UNL     1      22.318  11.906   0.105  0.00  0.00    +0.000 A 
ATOM     41  C   UNL     1      20.979  12.292   0.094  0.00  0.00    +0.000 A 
ATOM     42  C   UNL     1      20.577  13.386  -0.670  0.00  0.00    +0.000 A 
ATOM     43  C   UNL     1      21.515  14.098  -1.422  0.00  0.00    +0.007 A 
ENDBRANCH  37  38
ENDBRANCH  36  37
ENDBRANCH  34  36
ENDBRANCH  32  34
ENDBRANCH  30  32
ENDBRANCH  26  28
ENDBRANCH  25  26
ENDBRANCH  24  25
ENDBRANCH   1  24
TORSDOF 15
