REMARK VINA RESULT:    -7.141      2.069      3.605
REMARK INTER + INTRA:         -13.901
REMARK INTER:                 -12.297
REMARK INTRA:                  -1.604
REMARK UNBOUND:                -2.168
REMARK  Name = lig_assembled_86.pdb
REMARK  12 active torsions:
REMARK  status: ('A' for Active; 'I' for Inactive)
REMARK    1  A    between atoms: _2  and  _9
REMARK    2  A    between atoms: _3  and  _12
REMARK    3  A    between atoms: _6  and  _7
REMARK    4  A    between atoms: _6  and  _16
REMARK    5  A    between atoms: _16  and  _18
REMARK    6  A    between atoms: _17  and  _22
REMARK    7  A    between atoms: _18  and  _21
REMARK    8  A    between atoms: _26  and  _36
REMARK    9  A    between atoms: _28  and  _29
REMARK   10  A    between atoms: _30  and  _32
REMARK   11  A    between atoms: _32  and  _34
REMARK   12  A    between atoms: _34  and  _36
REMARK                            x       y       z     vdW  Elec       q    Type
REMARK                         _______ _______ _______ _____ _____    ______ ____
ROOT
ATOM      1  C   UNL     1      28.333  17.675  -0.524  0.00  0.00    +0.400 C 
ATOM      2  N   UNL     1      29.525  17.605   0.157  0.00  0.00    -0.278 N 
ATOM      3  H   UNL     1      29.464  18.417   0.848  0.00  0.00    +0.152 HD
ATOM      4  O   UNL     1      27.472  18.446  -0.106  0.00  0.00    -0.226 OA
ENDROOT
BRANCH   1   5
ATOM      5  O   UNL     1      28.244  16.930  -1.576  0.00  0.00    -0.450 OA
BRANCH   5   6
ATOM      6  C   UNL     1      27.279  16.179  -2.275  0.00  0.00    +0.240 C 
BRANCH   6   7
ATOM      7  C   UNL     1      26.660  16.814  -3.536  0.00  0.00    +0.100 C 
BRANCH   7   9
ATOM      8  N   UNL     1      25.726  15.454  -5.387  0.00  0.00    -0.134 NA
ATOM      9  C   UNL     1      25.631  15.921  -4.102  0.00  0.00    +0.086 A 
ATOM     10  C   UNL     1      24.493  15.412  -3.524  0.00  0.00    +0.134 A 
ATOM     11  N   UNL     1      23.959  14.616  -4.492  0.00  0.00    -0.248 N 
ATOM     12  N   UNL     1      24.684  14.667  -5.622  0.00  0.00    -0.065 NA
BRANCH  11  13
ATOM     13  C   UNL     1      22.770  13.782  -4.392  0.00  0.00    +0.112 C 
ATOM     14  C   UNL     1      23.028  12.511  -3.558  0.00  0.00    +0.045 C 
ATOM     15  C   UNL     1      21.948  12.197  -2.520  0.00  0.00    +0.059 C 
ATOM     16  C   UNL     1      22.074  13.113  -1.297  0.00  0.00    +0.020 C 
ATOM     17  C   UNL     1      21.127  14.274  -1.589  0.00  0.00    +0.020 C 
ATOM     18  C   UNL     1      20.587  13.987  -2.992  0.00  0.00    +0.059 C 
ATOM     19  N   UNL     1      20.601  12.524  -2.987  0.00  0.00    -0.299 NA
ATOM     20  C   UNL     1      20.154  11.870  -4.203  0.00  0.00    +0.105 C 
ATOM     21  C   UNL     1      21.492  14.593  -4.072  0.00  0.00    +0.045 C 
ENDBRANCH  11  13
ENDBRANCH   7   9
ENDBRANCH   6   7
ENDBRANCH   5   6
ENDBRANCH   1   5
BRANCH   2  22
ATOM     22  C   UNL     1      30.801  16.925   0.364  0.00  0.00    +0.152 C 
BRANCH  22  23
ATOM     23  C   UNL     1      30.804  15.399   0.135  0.00  0.00    +0.193 C 
ATOM     24  O   UNL     1      31.790  15.134  -0.887  0.00  0.00    -0.219 OA
BRANCH  23  25
ATOM     25  C   UNL     1      31.223  14.499   1.318  0.00  0.00    +0.212 C 
ATOM     26  O   UNL     1      31.512  15.297   2.478  0.00  0.00    -0.218 OA
BRANCH  25  27
ATOM     27  C   UNL     1      30.134  13.427   1.704  0.00  0.00    +0.171 C 
ATOM     28  O   UNL     1      28.815  13.963   1.707  0.00  0.00    -0.343 OA
ATOM     29  C   UNL     1      27.701  13.311   2.241  0.00  0.00    +0.220 C 
ATOM     30  C   UNL     1      27.964  12.809   3.672  0.00  0.00    +0.076 C 
ATOM     31  C   UNL     1      29.251  11.969   3.638  0.00  0.00    +0.177 C 
ATOM     32  O   UNL     1      29.520  11.447   4.931  0.00  0.00    -0.221 OA
ATOM     33  C   UNL     1      30.442  12.832   3.116  0.00  0.00    +0.155 C 
BRANCH  33  34
ATOM     34  N   UNL     1      31.669  12.039   3.089  0.00  0.00    -0.202 NA
ATOM     35  C   UNL     1      32.788  12.146   3.850  0.00  0.00    +0.242 C 
ATOM     36  C   UNL     1      33.786  11.017   3.817  0.00  0.00    +0.096 C 
ATOM     37  O   UNL     1      32.960  13.148   4.540  0.00  0.00    -0.273 OA
ENDBRANCH  33  34
BRANCH  29  38
ATOM     38  C   UNL     1      27.127  12.125   1.289  0.00  0.00    +0.391 C 
ATOM     39  O   UNL     1      26.295  11.418   2.078  0.00  0.00    -0.243 OA
ATOM     40  O   UNL     1      27.450  12.469   0.036  0.00  0.00    -0.243 OA
ENDBRANCH  29  38
ENDBRANCH  25  27
ENDBRANCH  23  25
ENDBRANCH  22  23
ENDBRANCH   2  22
TORSDOF 11
