REMARK VINA RESULT:    -7.355      3.024      5.616
REMARK INTER + INTRA:         -15.711
REMARK INTER:                 -13.906
REMARK INTRA:                  -1.805
REMARK UNBOUND:                -2.551
REMARK  Name = lig_assembled_64.pdb
REMARK  14 active torsions:
REMARK  status: ('A' for Active; 'I' for Inactive)
REMARK    1  A    between atoms: _2  and  _9
REMARK    2  A    between atoms: _6  and  _7
REMARK    3  A    between atoms: _6  and  _22
REMARK    4  A    between atoms: _11  and  _12
REMARK    5  A    between atoms: _12  and  _20
REMARK    6  A    between atoms: _13  and  _14
REMARK    7  A    between atoms: _22  and  _24
REMARK    8  A    between atoms: _23  and  _28
REMARK    9  A    between atoms: _24  and  _27
REMARK   10  A    between atoms: _32  and  _42
REMARK   11  A    between atoms: _34  and  _35
REMARK   12  A    between atoms: _36  and  _38
REMARK   13  A    between atoms: _38  and  _40
REMARK   14  A    between atoms: _40  and  _42
REMARK                            x       y       z     vdW  Elec       q    Type
REMARK                         _______ _______ _______ _____ _____    ______ ____
ROOT
ATOM      1  O   UNL     1      28.264  16.907  -1.629  0.00  0.00    -0.450 OA
ENDROOT
BRANCH   1   2
ATOM      2  C   UNL     1      28.900  17.149  -0.530  0.00  0.00    +0.400 C 
ATOM      3  N   UNL     1      29.177  16.053   0.252  0.00  0.00    -0.278 N 
ATOM      4  H   UNL     1      29.857  16.435   0.982  0.00  0.00    +0.152 HD
ATOM      5  O   UNL     1      29.296  18.248  -0.149  0.00  0.00    -0.226 OA
BRANCH   3   6
ATOM      6  C   UNL     1      28.952  14.638   0.535  0.00  0.00    +0.152 C 
BRANCH   6   7
ATOM      7  C   UNL     1      30.069  13.915   1.315  0.00  0.00    +0.193 C 
ATOM      8  O   UNL     1      30.319  12.670   0.625  0.00  0.00    -0.219 OA
BRANCH   7   9
ATOM      9  C   UNL     1      31.451  14.601   1.385  0.00  0.00    +0.212 C 
ATOM     10  O   UNL     1      31.361  15.838   2.110  0.00  0.00    -0.218 OA
BRANCH   9  11
ATOM     11  C   UNL     1      32.561  13.704   2.055  0.00  0.00    +0.171 C 
ATOM     12  O   UNL     1      32.962  14.192   3.331  0.00  0.00    -0.343 OA
ATOM     13  C   UNL     1      34.084  13.740   4.031  0.00  0.00    +0.220 C 
ATOM     14  C   UNL     1      35.346  13.749   3.151  0.00  0.00    +0.076 C 
ATOM     15  C   UNL     1      35.023  12.964   1.869  0.00  0.00    +0.177 C 
ATOM     16  O   UNL     1      36.172  12.908   1.036  0.00  0.00    -0.221 OA
ATOM     17  C   UNL     1      33.817  13.619   1.127  0.00  0.00    +0.155 C 
BRANCH  17  18
ATOM     18  N   UNL     1      33.510  12.880  -0.095  0.00  0.00    -0.202 NA
ATOM     19  C   UNL     1      33.511  13.300  -1.386  0.00  0.00    +0.242 C 
ATOM     20  C   UNL     1      33.446  12.262  -2.475  0.00  0.00    +0.096 C 
ATOM     21  O   UNL     1      33.565  14.503  -1.633  0.00  0.00    -0.273 OA
ENDBRANCH  17  18
BRANCH  13  22
ATOM     22  C   UNL     1      33.864  12.296   4.744  0.00  0.00    +0.391 C 
ATOM     23  O   UNL     1      35.105  11.856   5.027  0.00  0.00    -0.243 OA
ATOM     24  O   UNL     1      32.562  12.229   5.048  0.00  0.00    -0.243 OA
ENDBRANCH  13  22
ENDBRANCH   9  11
ENDBRANCH   7   9
ENDBRANCH   6   7
ENDBRANCH   3   6
ENDBRANCH   1   2
BRANCH   1  25
ATOM     25  C   UNL     1      27.167  17.404  -2.360  0.00  0.00    +0.240 C 
BRANCH  25  26
ATOM     26  C   UNL     1      26.937  16.832  -3.772  0.00  0.00    +0.100 C 
BRANCH  26  28
ATOM     27  N   UNL     1      25.339  15.319  -4.918  0.00  0.00    -0.134 NA
ATOM     28  C   UNL     1      25.696  16.034  -3.812  0.00  0.00    +0.086 A 
ATOM     29  C   UNL     1      24.739  15.864  -2.840  0.00  0.00    +0.139 A 
ATOM     30  N   UNL     1      23.801  15.033  -3.405  0.00  0.00    -0.220 N 
ATOM     31  N   UNL     1      24.187  14.710  -4.663  0.00  0.00    -0.061 NA
BRANCH  30  32
ATOM     32  C   UNL     1      22.602  14.542  -2.835  0.00  0.00    +0.071 A 
ATOM     33  C   UNL     1      22.644  13.566  -1.845  0.00  0.00    +0.063 A 
ATOM     34  CA  UNL     1      21.440  13.129  -1.330  0.00  0.00    +0.150 A 
ATOM     35  N   UNL     1      20.214  13.578  -1.724  0.00  0.00    -0.240 NA
ATOM     36  C   UNL     1      20.182  14.524  -2.702  0.00  0.00    +0.074 A 
ATOM     37  C   UNL     1      21.358  15.031  -3.264  0.00  0.00    +0.056 A 
BRANCH  36  38
ATOM     38  C   UNL     1      18.829  14.948  -3.137  0.00  0.00    +0.000 A 
ATOM     39  C   UNL     1      17.664  14.274  -2.722  0.00  0.00    +0.010 A 
ATOM     40  C   UNL     1      16.389  14.704  -3.109  0.00  0.00    +0.001 A 
ATOM     41  C   UNL     1      16.248  15.824  -3.923  0.00  0.00    +0.000 A 
ATOM     42  C   UNL     1      17.379  16.506  -4.355  0.00  0.00    +0.001 A 
ATOM     43  C   UNL     1      18.652  16.072  -3.968  0.00  0.00    +0.010 A 
ENDBRANCH  36  38
BRANCH  34  44
ATOM     44  C   UNL     1      21.437  12.082  -0.267  0.00  0.00    +0.355 C 
ATOM     45  OXT UNL     1      21.931  10.975  -0.387  0.00  0.00    -0.243 OA
BRANCH  44  46
ATOM     46  O   UNL     1      20.809  12.530   0.845  0.00  0.00    -0.476 OA
ATOM     47  H   UNL     1      21.049  13.474   0.990  0.00  0.00    +0.295 HD
ENDBRANCH  44  46
ENDBRANCH  34  44
ENDBRANCH  30  32
ENDBRANCH  26  28
ENDBRANCH  25  26
ENDBRANCH   1  25
TORSDOF 14
