REMARK VINA RESULT:    -7.164      3.522      9.237
REMARK INTER + INTRA:         -15.369
REMARK INTER:                 -13.099
REMARK INTRA:                  -2.270
REMARK UNBOUND:                -2.551
REMARK  Name = lig_assembled_64.pdb
REMARK  14 active torsions:
REMARK  status: ('A' for Active; 'I' for Inactive)
REMARK    1  A    between atoms: _2  and  _9
REMARK    2  A    between atoms: _6  and  _7
REMARK    3  A    between atoms: _6  and  _22
REMARK    4  A    between atoms: _11  and  _12
REMARK    5  A    between atoms: _12  and  _20
REMARK    6  A    between atoms: _13  and  _14
REMARK    7  A    between atoms: _22  and  _24
REMARK    8  A    between atoms: _23  and  _28
REMARK    9  A    between atoms: _24  and  _27
REMARK   10  A    between atoms: _32  and  _42
REMARK   11  A    between atoms: _34  and  _35
REMARK   12  A    between atoms: _36  and  _38
REMARK   13  A    between atoms: _38  and  _40
REMARK   14  A    between atoms: _40  and  _42
REMARK                            x       y       z     vdW  Elec       q    Type
REMARK                         _______ _______ _______ _____ _____    ______ ____
ROOT
ATOM      1  O   UNL     1      29.111  16.311  -0.881  0.00  0.00    -0.450 OA
ENDROOT
BRANCH   1   2
ATOM      2  C   UNL     1      28.181  17.200  -0.754  0.00  0.00    +0.400 C 
ATOM      3  N   UNL     1      27.139  17.102  -1.646  0.00  0.00    -0.278 N 
ATOM      4  H   UNL     1      26.412  17.780  -1.252  0.00  0.00    +0.152 HD
ATOM      5  O   UNL     1      28.136  18.086   0.095  0.00  0.00    -0.226 OA
BRANCH   3   6
ATOM      6  C   UNL     1      26.598  16.513  -2.868  0.00  0.00    +0.152 C 
BRANCH   6   7
ATOM      7  C   UNL     1      25.579  15.371  -2.679  0.00  0.00    +0.193 C 
ATOM      8  O   UNL     1      24.823  15.282  -3.907  0.00  0.00    -0.219 OA
BRANCH   7   9
ATOM      9  C   UNL     1      26.134  13.946  -2.464  0.00  0.00    +0.212 C 
ATOM     10  O   UNL     1      27.561  13.931  -2.638  0.00  0.00    -0.218 OA
BRANCH   9  11
ATOM     11  C   UNL     1      25.794  13.351  -1.044  0.00  0.00    +0.171 C 
ATOM     12  O   UNL     1      26.796  12.456  -0.571  0.00  0.00    -0.343 OA
ATOM     13  C   UNL     1      26.640  11.610   0.529  0.00  0.00    +0.220 C 
ATOM     14  C   UNL     1      25.341  10.790   0.439  0.00  0.00    +0.076 C 
ATOM     15  C   UNL     1      24.185  11.779   0.214  0.00  0.00    +0.177 C 
ATOM     16  O   UNL     1      22.952  11.075   0.164  0.00  0.00    -0.221 OA
ATOM     17  C   UNL     1      24.424  12.598  -1.092  0.00  0.00    +0.155 C 
BRANCH  17  18
ATOM     18  N   UNL     1      23.325  13.533  -1.313  0.00  0.00    -0.202 NA
ATOM     19  C   UNL     1      22.342  13.511  -2.249  0.00  0.00    +0.242 C 
ATOM     20  C   UNL     1      21.164  14.434  -2.071  0.00  0.00    +0.096 C 
ATOM     21  O   UNL     1      22.433  12.748  -3.208  0.00  0.00    -0.273 OA
ENDBRANCH  17  18
BRANCH  13  22
ATOM     22  C   UNL     1      26.766  12.375   1.957  0.00  0.00    +0.391 C 
ATOM     23  O   UNL     1      27.439  13.510   1.685  0.00  0.00    -0.243 OA
ATOM     24  O   UNL     1      25.913  11.757   2.784  0.00  0.00    -0.243 OA
ENDBRANCH  13  22
ENDBRANCH   9  11
ENDBRANCH   7   9
ENDBRANCH   6   7
ENDBRANCH   3   6
ENDBRANCH   1   2
BRANCH   1  25
ATOM     25  C   UNL     1      29.687  15.255  -0.148  0.00  0.00    +0.240 C 
BRANCH  25  26
ATOM     26  C   UNL     1      31.103  15.471   0.419  0.00  0.00    +0.100 C 
BRANCH  26  28
ATOM     27  N   UNL     1      32.596  13.925   1.657  0.00  0.00    -0.134 NA
ATOM     28  C   UNL     1      31.375  14.516   1.510  0.00  0.00    +0.086 A 
ATOM     29  C   UNL     1      30.538  14.068   2.505  0.00  0.00    +0.139 A 
ATOM     30  N   UNL     1      31.297  13.189   3.241  0.00  0.00    -0.220 N 
ATOM     31  N   UNL     1      32.543  13.121   2.713  0.00  0.00    -0.061 NA
BRANCH  30  32
ATOM     32  C   UNL     1      30.920  12.440   4.381  0.00  0.00    +0.071 A 
ATOM     33  C   UNL     1      29.858  11.543   4.310  0.00  0.00    +0.063 A 
ATOM     34  CA  UNL     1      29.540  10.843   5.457  0.00  0.00    +0.150 A 
ATOM     35  N   UNL     1      30.183  10.970   6.652  0.00  0.00    -0.240 NA
ATOM     36  C   UNL     1      31.212  11.859   6.716  0.00  0.00    +0.074 A 
ATOM     37  C   UNL     1      31.607  12.595   5.594  0.00  0.00    +0.056 A 
BRANCH  36  38
ATOM     38  C   UNL     1      31.851  12.005   8.046  0.00  0.00    +0.000 A 
ATOM     39  C   UNL     1      31.119  12.379   9.190  0.00  0.00    +0.010 A 
ATOM     40  C   UNL     1      31.725  12.478  10.448  0.00  0.00    +0.001 A 
ATOM     41  C   UNL     1      33.081  12.203  10.594  0.00  0.00    +0.000 A 
ATOM     42  C   UNL     1      33.831  11.838   9.482  0.00  0.00    +0.001 A 
ATOM     43  C   UNL     1      33.223  11.742   8.225  0.00  0.00    +0.010 A 
ENDBRANCH  36  38
BRANCH  34  44
ATOM     44  C   UNL     1      28.408   9.871   5.428  0.00  0.00    +0.355 C 
ATOM     45  OXT UNL     1      28.196   9.034   6.288  0.00  0.00    -0.243 OA
BRANCH  44  46
ATOM     46  O   UNL     1      27.656  10.045   4.318  0.00  0.00    -0.476 OA
ATOM     47  H   UNL     1      27.463   9.164   3.921  0.00  0.00    +0.295 HD
ENDBRANCH  44  46
ENDBRANCH  34  44
ENDBRANCH  30  32
ENDBRANCH  26  28
ENDBRANCH  25  26
ENDBRANCH   1  25
TORSDOF 14
