REMARK VINA RESULT:    -7.073      2.483      5.455
REMARK INTER + INTRA:         -13.849
REMARK INTER:                 -10.378
REMARK INTRA:                  -3.471
REMARK UNBOUND:                -1.815
REMARK  Name = lig_assembled_71.pdb
REMARK  12 active torsions:
REMARK  status: ('A' for Active; 'I' for Inactive)
REMARK    1  A    between atoms: _2  and  _11
REMARK    2  A    between atoms: _8  and  _9
REMARK    3  A    between atoms: _8  and  _17
REMARK    4  A    between atoms: _11  and  _12
REMARK    5  A    between atoms: _17  and  _19
REMARK    6  A    between atoms: _18  and  _23
REMARK    7  A    between atoms: _19  and  _22
REMARK    8  A    between atoms: _27  and  _37
REMARK    9  A    between atoms: _29  and  _30
REMARK   10  A    between atoms: _31  and  _33
REMARK   11  A    between atoms: _33  and  _35
REMARK   12  A    between atoms: _35  and  _37
REMARK                            x       y       z     vdW  Elec       q    Type
REMARK                         _______ _______ _______ _____ _____    ______ ____
ROOT
ATOM      1  C   UNL     1      25.046  10.440   0.518  0.00  0.00    +0.400 C 
ATOM      2  N   UNL     1      26.020  11.077   1.250  0.00  0.00    -0.278 N 
ATOM      3  H   UNL     1      26.925  10.625   0.904  0.00  0.00    +0.152 HD
ATOM      4  O   UNL     1      25.399   9.713  -0.407  0.00  0.00    -0.226 OA
ENDROOT
BRANCH   2   5
ATOM      5  C   UNL     1      26.366  12.080   2.254  0.00  0.00    +0.152 C 
BRANCH   5   6
ATOM      6  C   UNL     1      27.781  12.686   2.150  0.00  0.00    +0.193 C 
ATOM      7  O   UNL     1      27.826  13.797   3.072  0.00  0.00    -0.219 OA
BRANCH   6   8
ATOM      8  C   UNL     1      28.973  11.794   2.563  0.00  0.00    +0.212 C 
ATOM      9  O   UNL     1      28.685  10.414   2.288  0.00  0.00    -0.218 OA
BRANCH   8  10
ATOM     10  C   UNL     1      30.321  12.182   1.843  0.00  0.00    +0.171 C 
ATOM     11  O   UNL     1      31.018  13.228   2.512  0.00  0.00    -0.343 OA
ATOM     12  C   UNL     1      32.100  13.926   1.970  0.00  0.00    +0.220 C 
ATOM     13  C   UNL     1      31.790  14.452   0.558  0.00  0.00    +0.076 C 
ATOM     14  C   UNL     1      31.302  13.260  -0.283  0.00  0.00    +0.177 C 
ATOM     15  O   UNL     1      31.039  13.684  -1.613  0.00  0.00    -0.221 OA
ATOM     16  C   UNL     1      30.036  12.624   0.370  0.00  0.00    +0.155 C 
BRANCH  16  17
ATOM     17  N   UNL     1      29.565  11.496  -0.429  0.00  0.00    -0.202 NA
ATOM     18  C   UNL     1      28.495  11.407  -1.259  0.00  0.00    +0.242 C 
ATOM     19  C   UNL     1      28.406  10.223  -2.187  0.00  0.00    +0.096 C 
ATOM     20  O   UNL     1      27.634  12.283  -1.235  0.00  0.00    -0.273 OA
ENDBRANCH  16  17
BRANCH  12  21
ATOM     21  C   UNL     1      33.492  13.089   2.004  0.00  0.00    +0.391 C 
ATOM     22  O   UNL     1      34.300  13.724   1.133  0.00  0.00    -0.243 OA
ATOM     23  O   UNL     1      33.419  12.292   3.077  0.00  0.00    -0.243 OA
ENDBRANCH  12  21
ENDBRANCH   8  10
ENDBRANCH   6   8
ENDBRANCH   5   6
ENDBRANCH   2   5
BRANCH   1  24
ATOM     24  O   UNL     1      23.830  10.649   0.902  0.00  0.00    -0.450 OA
BRANCH  24  25
ATOM     25  C   UNL     1      22.862  11.672   0.875  0.00  0.00    +0.240 C 
BRANCH  25  26
ATOM     26  C   UNL     1      22.049  11.846  -0.422  0.00  0.00    +0.100 C 
BRANCH  26  28
ATOM     27  N   UNL     1      22.425  14.105  -1.383  0.00  0.00    -0.134 NA
ATOM     28  C   UNL     1      22.740  12.771  -1.340  0.00  0.00    +0.086 A 
ATOM     29  C   UNL     1      23.743  12.520  -2.246  0.00  0.00    +0.134 A 
ATOM     30  N   UNL     1      23.986  13.732  -2.823  0.00  0.00    -0.243 N 
ATOM     31  N   UNL     1      23.201  14.686  -2.289  0.00  0.00    -0.065 NA
BRANCH  30  32
ATOM     32  C   UNL     1      25.007  14.088  -3.786  0.00  0.00    +0.241 C 
BRANCH  32  33
ATOM     33  C   UNL     1      25.810  15.281  -3.335  0.00  0.00    +0.241 C 
ATOM     34  O   UNL     1      25.773  16.328  -3.979  0.00  0.00    -0.273 OA
ATOM     35  N   UNL     1      26.604  15.052  -2.231  0.00  0.00    -0.253 N 
ATOM     36  H   UNL     1      26.756  14.127  -1.860  0.00  0.00    +0.158 HD
ATOM     37  C   UNL     1      27.403  16.023  -1.638  0.00  0.00    +0.221 A 
ATOM     38  N   UNL     1      28.317  15.562  -0.770  0.00  0.00    -0.223 NA
ATOM     39  C   UNL     1      29.151  16.482  -0.241  0.00  0.00    +0.116 A 
ATOM     40  C   UNL     1      29.087  17.826  -0.523  0.00  0.00    +0.039 A 
ATOM     41  C   UNL     1      28.089  18.194  -1.385  0.00  0.00    +0.116 A 
ATOM     42  N   UNL     1      27.245  17.314  -1.946  0.00  0.00    -0.223 NA
ENDBRANCH  32  33
ENDBRANCH  30  32
ENDBRANCH  26  28
ENDBRANCH  25  26
ENDBRANCH  24  25
ENDBRANCH   1  24
TORSDOF 12
