REMARK VINA RESULT:    -7.012      2.048      2.707
REMARK INTER + INTRA:         -14.873
REMARK INTER:                 -12.282
REMARK INTRA:                  -2.591
REMARK UNBOUND:                -2.327
REMARK  Name = lig_assembled_68.pdb
REMARK  14 active torsions:
REMARK  status: ('A' for Active; 'I' for Inactive)
REMARK    1  A    between atoms: _2  and  _8
REMARK    2  A    between atoms: _5  and  _6
REMARK    3  A    between atoms: _5  and  _16
REMARK    4  A    between atoms: _8  and  _9
REMARK    5  A    between atoms: _9  and  _10
REMARK    6  A    between atoms: _9  and  _15
REMARK    7  A    between atoms: _16  and  _18
REMARK    8  A    between atoms: _17  and  _22
REMARK    9  A    between atoms: _18  and  _21
REMARK   10  A    between atoms: _26  and  _36
REMARK   11  A    between atoms: _28  and  _29
REMARK   12  A    between atoms: _30  and  _32
REMARK   13  A    between atoms: _32  and  _34
REMARK   14  A    between atoms: _34  and  _36
REMARK                            x       y       z     vdW  Elec       q    Type
REMARK                         _______ _______ _______ _____ _____    ______ ____
ROOT
ATOM      1  C   UNL     1      28.221  16.875  -0.707  0.00  0.00    +0.400 C 
ATOM      2  N   UNL     1      28.350  15.602  -0.203  0.00  0.00    -0.278 N 
ATOM      3  H   UNL     1      28.713  15.765   0.790  0.00  0.00    +0.152 HD
ATOM      4  O   UNL     1      28.349  17.820   0.066  0.00  0.00    -0.226 OA
ENDROOT
BRANCH   2   5
ATOM      5  C   UNL     1      28.204  14.163  -0.404  0.00  0.00    +0.152 C 
BRANCH   5   6
ATOM      6  C   UNL     1      28.005  13.315   0.869  0.00  0.00    +0.193 C 
ATOM      7  O   UNL     1      28.612  12.030   0.611  0.00  0.00    -0.219 OA
BRANCH   6   8
ATOM      8  C   UNL     1      28.680  13.806   2.168  0.00  0.00    +0.212 C 
ATOM      9  O   UNL     1      27.702  13.987   3.205  0.00  0.00    -0.218 OA
BRANCH   8  10
ATOM     10  C   UNL     1      29.800  12.831   2.697  0.00  0.00    +0.171 C 
ATOM     11  O   UNL     1      29.570  12.408   4.037  0.00  0.00    -0.343 OA
ATOM     12  C   UNL     1      30.513  11.748   4.828  0.00  0.00    +0.220 C 
ATOM     13  C   UNL     1      31.865  12.482   4.837  0.00  0.00    +0.076 C 
ATOM     14  C   UNL     1      32.284  12.697   3.373  0.00  0.00    +0.177 C 
ATOM     15  O   UNL     1      33.551  13.339   3.324  0.00  0.00    -0.221 OA
ATOM     16  C   UNL     1      31.199  13.527   2.619  0.00  0.00    +0.155 C 
BRANCH  16  17
ATOM     17  N   UNL     1      31.597  13.739   1.230  0.00  0.00    -0.202 NA
ATOM     18  C   UNL     1      31.687  14.892   0.519  0.00  0.00    +0.242 C 
ATOM     19  C   UNL     1      32.405  14.862  -0.805  0.00  0.00    +0.096 C 
ATOM     20  O   UNL     1      31.188  15.922   0.968  0.00  0.00    -0.273 OA
ENDBRANCH  16  17
BRANCH  12  21
ATOM     21  C   UNL     1      30.689  10.177   4.450  0.00  0.00    +0.391 C 
ATOM     22  O   UNL     1      31.949   9.871   4.817  0.00  0.00    -0.243 OA
ATOM     23  O   UNL     1      29.457   9.715   4.206  0.00  0.00    -0.243 OA
ENDBRANCH  12  21
ENDBRANCH   8  10
ENDBRANCH   6   8
ENDBRANCH   5   6
ENDBRANCH   2   5
BRANCH   1  24
ATOM     24  O   UNL     1      28.004  16.953  -1.979  0.00  0.00    -0.450 OA
BRANCH  24  25
ATOM     25  C   UNL     1      27.042  17.471  -2.868  0.00  0.00    +0.240 C 
BRANCH  25  26
ATOM     26  C   UNL     1      26.730  16.650  -4.134  0.00  0.00    +0.100 C 
BRANCH  26  28
ATOM     27  N   UNL     1      26.116  14.268  -4.443  0.00  0.00    -0.134 NA
ATOM     28  C   UNL     1      25.929  15.462  -3.795  0.00  0.00    +0.086 A 
ATOM     29  C   UNL     1      24.926  15.313  -2.864  0.00  0.00    +0.133 A 
ATOM     30  N   UNL     1      24.551  14.008  -2.989  0.00  0.00    -0.249 N 
ATOM     31  N   UNL     1      25.260  13.385  -3.946  0.00  0.00    -0.065 NA
BRANCH  30  32
ATOM     32  C   UNL     1      23.469  13.328  -2.309  0.00  0.00    +0.181 C 
BRANCH  32  33
ATOM     33  C   UNL     1      23.955  12.091  -1.542  0.00  0.00    +0.166 C 
BRANCH  33  34
ATOM     34  C   UNL     1      23.245  11.857  -0.216  0.00  0.00    -0.017 A 
ATOM     35  C   UNL     1      21.886  12.201  -0.104  0.00  0.00    +0.006 A 
ATOM     36  C   UNL     1      21.189  11.979   1.086  0.00  0.00    +0.000 A 
ATOM     37  C   UNL     1      21.835  11.407   2.177  0.00  0.00    +0.000 A 
ATOM     38  C   UNL     1      23.173  11.042   2.077  0.00  0.00    +0.000 A 
ATOM     39  C   UNL     1      23.873  11.262   0.887  0.00  0.00    +0.006 A 
ENDBRANCH  33  34
BRANCH  33  40
ATOM     40  O   UNL     1      25.356  12.228  -1.275  0.00  0.00    -0.385 OA
ATOM     41  H   UNL     1      25.549  13.171  -1.144  0.00  0.00    +0.210 HD
ENDBRANCH  33  40
ENDBRANCH  32  33
ENDBRANCH  30  32
ENDBRANCH  26  28
ENDBRANCH  25  26
ENDBRANCH  24  25
ENDBRANCH   1  24
TORSDOF 14
