REMARK VINA RESULT:    -6.477      3.490     10.059
REMARK INTER + INTRA:         -12.450
REMARK INTER:                 -10.852
REMARK INTRA:                  -1.598
REMARK UNBOUND:                -1.808
REMARK  Name = lig_assembled_8.pdb
REMARK  11 active torsions:
REMARK  status: ('A' for Active; 'I' for Inactive)
REMARK    1  A    between atoms: _2  and  _8
REMARK    2  A    between atoms: _5  and  _6
REMARK    3  A    between atoms: _5  and  _13
REMARK    4  A    between atoms: _13  and  _15
REMARK    5  A    between atoms: _14  and  _19
REMARK    6  A    between atoms: _15  and  _18
REMARK    7  A    between atoms: _23  and  _33
REMARK    8  A    between atoms: _25  and  _26
REMARK    9  A    between atoms: _27  and  _29
REMARK   10  A    between atoms: _29  and  _31
REMARK   11  A    between atoms: _31  and  _33
REMARK                            x       y       z     vdW  Elec       q    Type
REMARK                         _______ _______ _______ _____ _____    ______ ____
ROOT
ATOM      1  C   UNL     1      27.694  15.237  -1.676  0.00  0.00    +0.400 C 
ATOM      2  N   UNL     1      26.574  15.250  -2.474  0.00  0.00    -0.278 N 
ATOM      3  H   UNL     1      26.481  14.232  -2.786  0.00  0.00    +0.152 HD
ATOM      4  O   UNL     1      28.176  14.149  -1.372  0.00  0.00    -0.226 OA
ENDROOT
BRANCH   1   5
ATOM      5  O   UNL     1      28.157  16.397  -1.343  0.00  0.00    -0.450 OA
BRANCH   5   6
ATOM      6  C   UNL     1      28.669  17.057  -0.209  0.00  0.00    +0.240 C 
BRANCH   6   7
ATOM      7  C   UNL     1      30.192  17.283  -0.145  0.00  0.00    +0.100 C 
BRANCH   7   9
ATOM      8  N   UNL     1      31.232  15.047  -0.256  0.00  0.00    -0.134 NA
ATOM      9  C   UNL     1      30.855  16.125   0.482  0.00  0.00    +0.086 A 
ATOM     10  C   UNL     1      31.205  15.910   1.795  0.00  0.00    +0.139 A 
ATOM     11  N   UNL     1      31.826  14.672   1.814  0.00  0.00    -0.219 N 
ATOM     12  N   UNL     1      31.810  14.176   0.557  0.00  0.00    -0.061 NA
BRANCH  11  13
ATOM     13  C   UNL     1      32.413  13.998   2.930  0.00  0.00    +0.081 A 
ATOM     14  C   UNL     1      33.755  14.296   3.255  0.00  0.00    +0.029 A 
ATOM     15  C   UNL     1      34.408  13.662   4.316  0.00  0.00    +0.002 A 
ATOM     16  C   UNL     1      33.739  12.718   5.078  0.00  0.00    +0.001 A 
ATOM     17  C   UNL     1      32.413  12.414   4.782  0.00  0.00    +0.017 A 
ATOM     18  C   UNL     1      31.738  13.043   3.717  0.00  0.00    +0.043 A 
ATOM     19 BR   UNL     1      29.935  12.466   3.513  0.00  0.00    -0.048 Br
ENDBRANCH  11  13
ENDBRANCH   7   9
ENDBRANCH   6   7
ENDBRANCH   5   6
ENDBRANCH   1   5
BRANCH   2  20
ATOM     20  C   UNL     1      25.473  16.009  -3.060  0.00  0.00    +0.152 C 
BRANCH  20  21
ATOM     21  C   UNL     1      24.878  15.445  -4.367  0.00  0.00    +0.193 C 
ATOM     22  O   UNL     1      25.940  15.462  -5.347  0.00  0.00    -0.219 OA
BRANCH  21  23
ATOM     23  C   UNL     1      24.387  13.981  -4.356  0.00  0.00    +0.212 C 
ATOM     24  O   UNL     1      25.483  13.082  -4.592  0.00  0.00    -0.218 OA
BRANCH  23  25
ATOM     25  C   UNL     1      23.680  13.570  -3.009  0.00  0.00    +0.171 C 
ATOM     26  O   UNL     1      24.068  12.276  -2.559  0.00  0.00    -0.343 OA
ATOM     27  C   UNL     1      23.424  11.570  -1.540  0.00  0.00    +0.220 C 
ATOM     28  C   UNL     1      21.902  11.508  -1.763  0.00  0.00    +0.076 C 
ATOM     29  C   UNL     1      21.406  12.949  -1.965  0.00  0.00    +0.177 C 
ATOM     30  O   UNL     1      19.995  12.953  -2.136  0.00  0.00    -0.221 OA
ATOM     31  C   UNL     1      22.126  13.599  -3.187  0.00  0.00    +0.155 C 
BRANCH  31  32
ATOM     32  N   UNL     1      21.652  14.966  -3.387  0.00  0.00    -0.202 NA
ATOM     33  C   UNL     1      21.016  15.516  -4.452  0.00  0.00    +0.242 C 
ATOM     34  C   UNL     1      20.375  16.869  -4.282  0.00  0.00    +0.096 C 
ATOM     35  O   UNL     1      20.975  14.905  -5.518  0.00  0.00    -0.273 OA
ENDBRANCH  31  32
BRANCH  27  36
ATOM     36  C   UNL     1      23.788  12.106  -0.051  0.00  0.00    +0.391 C 
ATOM     37  O   UNL     1      22.819  11.612   0.743  0.00  0.00    -0.243 OA
ATOM     38  O   UNL     1      25.043  12.567  -0.120  0.00  0.00    -0.243 OA
ENDBRANCH  27  36
ENDBRANCH  23  25
ENDBRANCH  21  23
ENDBRANCH  20  21
ENDBRANCH   2  20
TORSDOF 11
