REMARK VINA RESULT:    -6.358      3.392      9.265
REMARK INTER + INTRA:         -12.701
REMARK INTER:                 -10.907
REMARK INTRA:                  -1.794
REMARK UNBOUND:                -1.696
REMARK  Name = lig_assembled_72.pdb
REMARK  15 active torsions:
REMARK  status: ('A' for Active; 'I' for Inactive)
REMARK    1  A    between atoms: _2  and  _8
REMARK    2  A    between atoms: _4  and  _8
REMARK    3  A    between atoms: _4  and  _11
REMARK    4  A    between atoms: _5  and  _6
REMARK    5  A    between atoms: _5  and  _12
REMARK    6  A    between atoms: _8  and  _9
REMARK    7  A    between atoms: _8  and  _10
REMARK    8  A    between atoms: _12  and  _14
REMARK    9  A    between atoms: _13  and  _18
REMARK   10  A    between atoms: _14  and  _17
REMARK   11  A    between atoms: _22  and  _32
REMARK   12  A    between atoms: _24  and  _25
REMARK   13  A    between atoms: _26  and  _28
REMARK   14  A    between atoms: _28  and  _30
REMARK   15  A    between atoms: _30  and  _32
REMARK                            x       y       z     vdW  Elec       q    Type
REMARK                         _______ _______ _______ _____ _____    ______ ____
ROOT
ATOM      1  C   UNL     1      27.910  14.565  -1.410  0.00  0.00    +0.152 C 
ENDROOT
BRANCH   1   3
ATOM      2  C   UNL     1      28.560  17.065  -0.533  0.00  0.00    +0.400 C 
ATOM      3  N   UNL     1      27.872  15.931  -0.895  0.00  0.00    -0.278 N 
ATOM      4  H   UNL     1      26.851  16.195  -0.722  0.00  0.00    +0.152 HD
ATOM      5  O   UNL     1      27.915  18.085  -0.303  0.00  0.00    -0.226 OA
BRANCH   2   6
ATOM      6  O   UNL     1      29.843  16.937  -0.440  0.00  0.00    -0.450 OA
BRANCH   6   7
ATOM      7  C   UNL     1      30.800  16.388   0.435  0.00  0.00    +0.240 C 
BRANCH   7   8
ATOM      8  C   UNL     1      31.401  15.019   0.063  0.00  0.00    +0.100 C 
BRANCH   8  10
ATOM      9  N   UNL     1      31.407  14.348   2.444  0.00  0.00    -0.134 NA
ATOM     10  C   UNL     1      32.050  14.408   1.238  0.00  0.00    +0.086 A 
ATOM     11  C   UNL     1      33.295  13.831   1.363  0.00  0.00    +0.134 A 
ATOM     12  N   UNL     1      33.353  13.437   2.672  0.00  0.00    -0.244 N 
ATOM     13  N   UNL     1      32.210  13.754   3.313  0.00  0.00    -0.065 NA
BRANCH  12  14
ATOM     14  C   UNL     1      34.453  12.755   3.368  0.00  0.00    +0.083 C 
ATOM     15  C   UNL     1      35.777  13.478   3.055  0.00  0.00    +0.038 C 
ATOM     16  C   UNL     1      34.543  11.292   2.888  0.00  0.00    +0.038 C 
BRANCH  14  17
ATOM     17  C   UNL     1      34.257  12.775   4.909  0.00  0.00    +0.185 C 
BRANCH  17  18
ATOM     18  O   UNL     1      34.227  14.097   5.444  0.00  0.00    -0.393 OA
ATOM     19  H   UNL     1      34.674  14.044   6.315  0.00  0.00    +0.209 HD
ENDBRANCH  17  18
ENDBRANCH  14  17
ENDBRANCH  12  14
ENDBRANCH   8  10
ENDBRANCH   7   8
ENDBRANCH   6   7
ENDBRANCH   2   6
ENDBRANCH   1   3
BRANCH   1  20
ATOM     20  C   UNL     1      26.556  13.964  -1.841  0.00  0.00    +0.193 C 
ATOM     21  O   UNL     1      26.619  13.782  -3.273  0.00  0.00    -0.219 OA
BRANCH  20  22
ATOM     22  C   UNL     1      26.185  12.569  -1.292  0.00  0.00    +0.212 C 
ATOM     23  O   UNL     1      27.091  11.574  -1.797  0.00  0.00    -0.218 OA
BRANCH  22  24
ATOM     24  C   UNL     1      26.186  12.497   0.283  0.00  0.00    +0.171 C 
ATOM     25  O   UNL     1      27.435  12.064   0.811  0.00  0.00    -0.343 OA
ATOM     26  C   UNL     1      27.639  11.682   2.139  0.00  0.00    +0.220 C 
ATOM     27  C   UNL     1      26.597  10.649   2.602  0.00  0.00    +0.076 C 
ATOM     28  C   UNL     1      25.205  11.230   2.302  0.00  0.00    +0.177 C 
ATOM     29  O   UNL     1      24.201  10.330   2.748  0.00  0.00    -0.221 OA
ATOM     30  C   UNL     1      25.063  11.527   0.777  0.00  0.00    +0.155 C 
BRANCH  30  31
ATOM     31  N   UNL     1      23.740  12.073   0.487  0.00  0.00    -0.202 NA
ATOM     32  C   UNL     1      22.695  11.511  -0.173  0.00  0.00    +0.242 C 
ATOM     33  C   UNL     1      21.347  12.176  -0.075  0.00  0.00    +0.096 C 
ATOM     34  O   UNL     1      22.870  10.485  -0.827  0.00  0.00    -0.273 OA
ENDBRANCH  30  31
BRANCH  26  35
ATOM     35  C   UNL     1      27.733  12.936   3.167  0.00  0.00    +0.391 C 
ATOM     36  O   UNL     1      27.691  12.384   4.395  0.00  0.00    -0.243 OA
ATOM     37  O   UNL     1      28.114  13.988   2.432  0.00  0.00    -0.243 OA
ENDBRANCH  26  35
ENDBRANCH  22  24
ENDBRANCH  20  22
ENDBRANCH   1  20
TORSDOF 13
