REMARK VINA RESULT:    -6.423      2.582      5.883
REMARK INTER + INTRA:         -16.255
REMARK INTER:                 -13.367
REMARK INTRA:                  -2.889
REMARK UNBOUND:                -3.824
REMARK  Name = lig_assembled_81.pdb
REMARK  17 active torsions:
REMARK  status: ('A' for Active; 'I' for Inactive)
REMARK    1  A    between atoms: _2  and  _11
REMARK    2  A    between atoms: _7  and  _23
REMARK    3  A    between atoms: _8  and  _9
REMARK    4  A    between atoms: _8  and  _25
REMARK    5  A    between atoms: _13  and  _14
REMARK    6  A    between atoms: _20  and  _21
REMARK    7  A    between atoms: _21  and  _22
REMARK    8  A    between atoms: _22  and  _24
REMARK    9  A    between atoms: _23  and  _24
REMARK   10  A    between atoms: _25  and  _27
REMARK   11  A    between atoms: _26  and  _31
REMARK   12  A    between atoms: _27  and  _30
REMARK   13  A    between atoms: _35  and  _45
REMARK   14  A    between atoms: _37  and  _38
REMARK   15  A    between atoms: _39  and  _41
REMARK   16  A    between atoms: _41  and  _43
REMARK   17  A    between atoms: _43  and  _45
REMARK                            x       y       z     vdW  Elec       q    Type
REMARK                         _______ _______ _______ _____ _____    ______ ____
ROOT
ATOM      1  C   UNL     1      29.509  12.187   1.365  0.00  0.00    +0.096 C 
ENDROOT
BRANCH   1   3
ATOM      2  N   UNL     1      29.530  12.658  -1.042  0.00  0.00    -0.133 NA
ATOM      3  C   UNL     1      28.941  12.847   0.172  0.00  0.00    +0.066 C 
ATOM      4  C   UNL     1      27.871  13.707   0.016  0.00  0.00    +0.120 C 
ATOM      5  N   UNL     1      27.773  13.900  -1.356  0.00  0.00    -0.187 N 
ATOM      6  N   UNL     1      28.893  13.409  -1.923  0.00  0.00    -0.010 NA
BRANCH   5   7
ATOM      7  C   UNL     1      26.796  14.669  -2.073  0.00  0.00    +0.150 A 
ATOM      8  C   UNL     1      25.498  14.226  -2.433  0.00  0.00    +0.022 A 
ATOM      9  C   UNL     1      24.780  15.172  -3.212  0.00  0.00    +0.081 A 
ATOM     10  N   UNL     1      25.346  16.342  -3.617  0.00  0.00    -0.214 NA
ATOM     11  C   UNL     1      26.579  16.632  -3.240  0.00  0.00    +0.215 A 
ATOM     12  N   UNL     1      27.163  17.774  -3.734  0.00  0.00    -0.327 N 
ATOM     13  H   UNL     1      26.467  18.439  -4.037  0.00  0.00    +0.145 HD
ATOM     14  H   UNL     1      27.920  18.091  -3.149  0.00  0.00    +0.145 HD
ATOM     15  N   UNL     1      27.290  15.892  -2.412  0.00  0.00    -0.198 NA
BRANCH   9  16
ATOM     16  C   UNL     1      23.363  15.067  -3.731  0.00  0.00    +0.001 A 
ATOM     17  C   UNL     1      22.985  14.418  -4.920  0.00  0.00    +0.010 A 
ATOM     18  C   UNL     1      21.647  14.343  -5.345  0.00  0.00    +0.001 A 
ATOM     19  C   UNL     1      20.631  14.861  -4.565  0.00  0.00    +0.000 A 
ATOM     20  C   UNL     1      20.950  15.464  -3.350  0.00  0.00    +0.001 A 
ATOM     21  C   UNL     1      22.291  15.572  -2.956  0.00  0.00    +0.010 A 
ENDBRANCH   9  16
BRANCH   8  22
ATOM     22  C   UNL     1      24.770  12.951  -2.001  0.00  0.00    +0.069 C 
BRANCH  22  23
ATOM     23  C   UNL     1      23.877  12.932  -0.775  0.00  0.00    +0.164 C 
BRANCH  23  24
ATOM     24  O   UNL     1      22.872  11.912  -0.736  0.00  0.00    -0.380 OA
BRANCH  24  25
ATOM     25  C   UNL     1      22.734  11.536   0.648  0.00  0.00    +0.156 C 
ATOM     26  C   UNL     1      22.061  10.191   0.797  0.00  0.00    +0.034 C 
ENDBRANCH  24  25
ENDBRANCH  23  24
ENDBRANCH  22  23
ENDBRANCH   8  22
ENDBRANCH   5   7
ENDBRANCH   1   3
BRANCH   1  27
ATOM     27  C   UNL     1      29.451  13.133   2.579  0.00  0.00    +0.240 C 
BRANCH  27  28
ATOM     28  O   UNL     1      30.120  14.368   2.473  0.00  0.00    -0.450 OA
BRANCH  28  29
ATOM     29  C   UNL     1      31.014  14.938   1.735  0.00  0.00    +0.400 C 
ATOM     30  N   UNL     1      32.315  14.796   2.157  0.00  0.00    -0.278 N 
ATOM     31  H   UNL     1      32.885  15.155   1.328  0.00  0.00    +0.152 HD
ATOM     32  O   UNL     1      30.808  15.558   0.694  0.00  0.00    -0.226 OA
BRANCH  30  33
ATOM     33  C   UNL     1      33.244  14.396   3.211  0.00  0.00    +0.152 C 
BRANCH  33  34
ATOM     34  C   UNL     1      34.666  14.012   2.753  0.00  0.00    +0.193 C 
ATOM     35  O   UNL     1      35.408  13.670   3.945  0.00  0.00    -0.219 OA
BRANCH  34  36
ATOM     36  C   UNL     1      34.814  12.775   1.840  0.00  0.00    +0.212 C 
ATOM     37  O   UNL     1      33.744  11.846   2.076  0.00  0.00    -0.218 OA
BRANCH  36  38
ATOM     38  C   UNL     1      34.840  13.132   0.305  0.00  0.00    +0.171 C 
ATOM     39  O   UNL     1      33.566  12.987  -0.314  0.00  0.00    -0.343 OA
ATOM     40  C   UNL     1      33.354  13.000  -1.695  0.00  0.00    +0.220 C 
ATOM     41  C   UNL     1      34.299  12.031  -2.426  0.00  0.00    +0.076 C 
ATOM     42  C   UNL     1      35.735  12.366  -1.988  0.00  0.00    +0.177 C 
ATOM     43  O   UNL     1      36.655  11.523  -2.668  0.00  0.00    -0.221 OA
ATOM     44  C   UNL     1      35.872  12.223  -0.441  0.00  0.00    +0.155 C 
BRANCH  44  45
ATOM     45  N   UNL     1      37.236  12.534  -0.021  0.00  0.00    -0.202 NA
ATOM     46  C   UNL     1      38.157  11.746   0.590  0.00  0.00    +0.242 C 
ATOM     47  C   UNL     1      39.584  12.224   0.644  0.00  0.00    +0.096 C 
ATOM     48  O   UNL     1      37.809  10.673   1.079  0.00  0.00    -0.273 OA
ENDBRANCH  44  45
BRANCH  40  49
ATOM     49  C   UNL     1      33.406  14.489  -2.343  0.00  0.00    +0.391 C 
ATOM     50  O   UNL     1      33.331  14.291  -3.673  0.00  0.00    -0.243 OA
ATOM     51  O   UNL     1      33.202  15.340  -1.331  0.00  0.00    -0.243 OA
ENDBRANCH  40  49
ENDBRANCH  36  38
ENDBRANCH  34  36
ENDBRANCH  33  34
ENDBRANCH  30  33
ENDBRANCH  28  29
ENDBRANCH  27  28
ENDBRANCH   1  27
TORSDOF 16
