REMARK VINA RESULT:    -7.097     23.058     26.113
REMARK INTER + INTRA:         -17.067
REMARK INTER:                 -12.045
REMARK INTRA:                  -5.022
REMARK UNBOUND:                -3.125
REMARK  Name = lig_assembled_47.pdb
REMARK  17 active torsions:
REMARK  status: ('A' for Active; 'I' for Inactive)
REMARK    1  A    between atoms: _2  and  _8
REMARK    2  A    between atoms: _5  and  _6
REMARK    3  A    between atoms: _5  and  _25
REMARK    4  A    between atoms: _8  and  _9
REMARK    5  A    between atoms: _9  and  _10
REMARK    6  A    between atoms: _9  and  _11
REMARK    7  A    between atoms: _10  and  _23
REMARK    8  A    between atoms: _11  and  _12
REMARK    9  A    between atoms: _11  and  _18
REMARK   10  A    between atoms: _25  and  _27
REMARK   11  A    between atoms: _26  and  _31
REMARK   12  A    between atoms: _27  and  _30
REMARK   13  A    between atoms: _35  and  _45
REMARK   14  A    between atoms: _37  and  _38
REMARK   15  A    between atoms: _39  and  _41
REMARK   16  A    between atoms: _41  and  _43
REMARK   17  A    between atoms: _43  and  _45
REMARK                            x       y       z     vdW  Elec       q    Type
REMARK                         _______ _______ _______ _____ _____    ______ ____
ROOT
ATOM      1  C   UNL     1      23.177  38.556   9.491  0.00  0.00    +0.100 C 
ENDROOT
BRANCH   1   3
ATOM      2  N   UNL     1      23.965  39.462   7.317  0.00  0.00    -0.134 NA
ATOM      3  C   UNL     1      24.250  38.964   8.562  0.00  0.00    +0.086 A 
ATOM      4  C   UNL     1      25.619  38.907   8.716  0.00  0.00    +0.133 A 
ATOM      5  N   UNL     1      26.105  39.338   7.516  0.00  0.00    -0.251 N 
ATOM      6  N   UNL     1      25.110  39.690   6.686  0.00  0.00    -0.065 NA
BRANCH   5   7
ATOM      7  C   UNL     1      27.479  39.297   7.040  0.00  0.00    +0.160 C 
BRANCH   7   8
ATOM      8  C   UNL     1      27.908  37.929   6.500  0.00  0.00    +0.131 C 
BRANCH   8   9
ATOM      9  C   UNL     1      28.367  38.127   5.063  0.00  0.00    +0.311 C 
ATOM     10  O   UNL     1      27.748  38.801   4.255  0.00  0.00    -0.251 OA
BRANCH   9  11
ATOM     11  O   UNL     1      29.568  37.609   4.731  0.00  0.00    -0.480 OA
ATOM     12  H   UNL     1      30.196  38.162   4.237  0.00  0.00    +0.295 HD
ENDBRANCH   9  11
ENDBRANCH   8   9
BRANCH   8  13
ATOM     13  C   UNL     1      28.985  37.196   7.362  0.00  0.00    +0.064 C 
BRANCH  13  14
ATOM     14  C   UNL     1      29.688  38.053   8.415  0.00  0.00    -0.039 A 
ATOM     15  C   UNL     1      30.979  38.557   8.159  0.00  0.00    +0.004 A 
ATOM     16  C   UNL     1      31.649  39.343   9.101  0.00  0.00    +0.000 A 
ATOM     17  C   UNL     1      31.052  39.629  10.325  0.00  0.00    +0.000 A 
ATOM     18  C   UNL     1      29.786  39.124  10.605  0.00  0.00    +0.000 A 
ATOM     19  C   UNL     1      29.107  38.352   9.656  0.00  0.00    +0.004 A 
ENDBRANCH  13  14
BRANCH  13  20
ATOM     20  C   UNL     1      28.408  35.895   7.936  0.00  0.00    -0.039 A 
ATOM     21  C   UNL     1      27.021  35.678   7.948  0.00  0.00    +0.004 A 
ATOM     22  C   UNL     1      26.481  34.578   8.621  0.00  0.00    +0.000 A 
ATOM     23  C   UNL     1      27.316  33.668   9.266  0.00  0.00    +0.000 A 
ATOM     24  C   UNL     1      28.693  33.848   9.228  0.00  0.00    +0.000 A 
ATOM     25  C   UNL     1      29.234  34.950   8.569  0.00  0.00    +0.004 A 
ENDBRANCH  13  20
ENDBRANCH   8  13
ENDBRANCH   7   8
ENDBRANCH   5   7
ENDBRANCH   1   3
BRANCH   1  26
ATOM     26  C   UNL     1      21.788  38.804   8.874  0.00  0.00    +0.240 C 
BRANCH  26  27
ATOM     27  O   UNL     1      20.850  37.755   8.939  0.00  0.00    -0.450 OA
BRANCH  27  28
ATOM     28  C   UNL     1      20.727  36.526   8.559  0.00  0.00    +0.400 C 
ATOM     29  N   UNL     1      20.587  35.602   9.567  0.00  0.00    -0.278 N 
ATOM     30  H   UNL     1      20.307  34.710   9.048  0.00  0.00    +0.152 HD
ATOM     31  O   UNL     1      20.694  36.126   7.398  0.00  0.00    -0.226 OA
BRANCH  29  32
ATOM     32  C   UNL     1      20.661  35.295  10.993  0.00  0.00    +0.152 C 
BRANCH  32  33
ATOM     33  C   UNL     1      21.938  35.761  11.722  0.00  0.00    +0.193 C 
ATOM     34  O   UNL     1      21.729  35.506  13.129  0.00  0.00    -0.219 OA
BRANCH  33  35
ATOM     35  C   UNL     1      23.258  35.031  11.390  0.00  0.00    +0.212 C 
ATOM     36  O   UNL     1      23.516  35.079   9.978  0.00  0.00    -0.218 OA
BRANCH  35  37
ATOM     37  C   UNL     1      24.507  35.621  12.151  0.00  0.00    +0.171 C 
ATOM     38  O   UNL     1      25.295  36.476  11.329  0.00  0.00    -0.343 OA
ATOM     39  C   UNL     1      26.572  36.934  11.664  0.00  0.00    +0.220 C 
ATOM     40  C   UNL     1      27.496  35.782  12.096  0.00  0.00    +0.076 C 
ATOM     41  C   UNL     1      26.775  35.002  13.208  0.00  0.00    +0.177 C 
ATOM     42  O   UNL     1      27.605  33.947  13.673  0.00  0.00    -0.221 OA
ATOM     43  C   UNL     1      25.408  34.461  12.686  0.00  0.00    +0.155 C 
BRANCH  43  44
ATOM     44  N   UNL     1      24.723  33.714  13.738  0.00  0.00    -0.202 NA
ATOM     45  C   UNL     1      24.612  32.373  13.919  0.00  0.00    +0.242 C 
ATOM     46  C   UNL     1      24.103  31.870  15.244  0.00  0.00    +0.096 C 
ATOM     47  O   UNL     1      24.927  31.609  13.008  0.00  0.00    -0.273 OA
ENDBRANCH  43  44
BRANCH  39  48
ATOM     48  C   UNL     1      26.562  38.134  12.759  0.00  0.00    +0.391 C 
ATOM     49  O   UNL     1      27.794  38.117  13.304  0.00  0.00    -0.243 OA
ATOM     50  O   UNL     1      25.469  38.862  12.499  0.00  0.00    -0.243 OA
ENDBRANCH  39  48
ENDBRANCH  35  37
ENDBRANCH  33  35
ENDBRANCH  32  33
ENDBRANCH  29  32
ENDBRANCH  27  28
ENDBRANCH  26  27
ENDBRANCH   1  26
TORSDOF 17
