REMARK VINA RESULT:    -6.016      2.301      4.182
REMARK INTER + INTRA:         -13.447
REMARK INTER:                 -11.959
REMARK INTRA:                  -1.489
REMARK UNBOUND:                -3.035
REMARK  Name = lig_assembled_22.pdb
REMARK  15 active torsions:
REMARK  status: ('A' for Active; 'I' for Inactive)
REMARK    1  A    between atoms: _2  and  _8
REMARK    2  A    between atoms: _4  and  _8
REMARK    3  A    between atoms: _4  and  _11
REMARK    4  A    between atoms: _5  and  _6
REMARK    5  A    between atoms: _5  and  _13
REMARK    6  A    between atoms: _8  and  _9
REMARK    7  A    between atoms: _8  and  _10
REMARK    8  A    between atoms: _13  and  _15
REMARK    9  A    between atoms: _14  and  _19
REMARK   10  A    between atoms: _15  and  _18
REMARK   11  A    between atoms: _23  and  _33
REMARK   12  A    between atoms: _25  and  _26
REMARK   13  A    between atoms: _27  and  _29
REMARK   14  A    between atoms: _29  and  _31
REMARK   15  A    between atoms: _31  and  _33
REMARK                            x       y       z     vdW  Elec       q    Type
REMARK                         _______ _______ _______ _____ _____    ______ ____
ROOT
ATOM      1  C   UNL     1      28.349  17.611  -0.414  0.00  0.00    +0.400 C 
ATOM      2  N   UNL     1      29.552  17.408   0.221  0.00  0.00    -0.278 N 
ATOM      3  H   UNL     1      29.477  18.021   1.094  0.00  0.00    +0.152 HD
ATOM      4  O   UNL     1      27.473  18.228   0.188  0.00  0.00    -0.226 OA
ENDROOT
BRANCH   1   5
ATOM      5  O   UNL     1      28.267  17.150  -1.618  0.00  0.00    -0.450 OA
BRANCH   5   6
ATOM      6  C   UNL     1      27.456  16.284  -2.378  0.00  0.00    +0.240 C 
BRANCH   6   7
ATOM      7  C   UNL     1      26.738  16.877  -3.605  0.00  0.00    +0.100 C 
BRANCH   7   9
ATOM      8  N   UNL     1      25.598  15.354  -5.180  0.00  0.00    -0.134 NA
ATOM      9  C   UNL     1      25.596  16.025  -3.989  0.00  0.00    +0.086 A 
ATOM     10  C   UNL     1      24.423  15.752  -3.321  0.00  0.00    +0.135 A 
ATOM     11  N   UNL     1      23.749  14.906  -4.157  0.00  0.00    -0.235 N 
ATOM     12  N   UNL     1      24.465  14.677  -5.274  0.00  0.00    -0.064 NA
BRANCH  11  13
ATOM     13  C   UNL     1      22.430  14.291  -3.992  0.00  0.00    +0.155 C 
ATOM     14  C   UNL     1      22.515  12.754  -3.869  0.00  0.00    +0.048 C 
ATOM     15  C   UNL     1      21.568  14.635  -5.222  0.00  0.00    +0.048 C 
BRANCH  13  16
ATOM     16  C   UNL     1      21.753  14.819  -2.725  0.00  0.00    +0.332 C 
ATOM     17  O   UNL     1      21.832  14.281  -1.627  0.00  0.00    -0.248 OA
BRANCH  16  18
ATOM     18  O   UNL     1      21.034  15.957  -2.883  0.00  0.00    -0.479 OA
ATOM     19  H   UNL     1      20.534  16.268  -2.102  0.00  0.00    +0.295 HD
ENDBRANCH  16  18
ENDBRANCH  13  16
ENDBRANCH  11  13
ENDBRANCH   7   9
ENDBRANCH   6   7
ENDBRANCH   5   6
ENDBRANCH   1   5
BRANCH   2  20
ATOM     20  C   UNL     1      30.849  16.737   0.245  0.00  0.00    +0.152 C 
BRANCH  20  21
ATOM     21  C   UNL     1      30.821  15.201   0.102  0.00  0.00    +0.193 C 
ATOM     22  O   UNL     1      31.830  14.857  -0.874  0.00  0.00    -0.219 OA
BRANCH  21  23
ATOM     23  C   UNL     1      31.185  14.360   1.345  0.00  0.00    +0.212 C 
ATOM     24  O   UNL     1      31.447  15.215   2.470  0.00  0.00    -0.218 OA
BRANCH  23  25
ATOM     25  C   UNL     1      30.065  13.326   1.749  0.00  0.00    +0.171 C 
ATOM     26  O   UNL     1      28.758  13.889   1.706  0.00  0.00    -0.343 OA
ATOM     27  C   UNL     1      27.620  13.281   2.241  0.00  0.00    +0.220 C 
ATOM     28  C   UNL     1      27.845  12.830   3.695  0.00  0.00    +0.076 C 
ATOM     29  C   UNL     1      29.114  11.962   3.719  0.00  0.00    +0.177 C 
ATOM     30  O   UNL     1      29.346  11.484   5.036  0.00  0.00    -0.221 OA
ATOM     31  C   UNL     1      30.334  12.779   3.189  0.00  0.00    +0.155 C 
BRANCH  31  32
ATOM     32  N   UNL     1      31.543  11.960   3.217  0.00  0.00    -0.202 NA
ATOM     33  C   UNL     1      32.644  12.065   4.003  0.00  0.00    +0.242 C 
ATOM     34  C   UNL     1      33.618  10.915   4.028  0.00  0.00    +0.096 C 
ATOM     35  O   UNL     1      32.820  13.083   4.671  0.00  0.00    -0.273 OA
ENDBRANCH  31  32
BRANCH  27  36
ATOM     36  C   UNL     1      27.040  12.073   1.324  0.00  0.00    +0.391 C 
ATOM     37  O   UNL     1      26.138  11.447   2.104  0.00  0.00    -0.243 OA
ATOM     38  O   UNL     1      27.440  12.333   0.073  0.00  0.00    -0.243 OA
ENDBRANCH  27  36
ENDBRANCH  23  25
ENDBRANCH  21  23
ENDBRANCH  20  21
ENDBRANCH   2  20
TORSDOF 13
