REMARK VINA RESULT:    -6.940      3.294      5.169
REMARK INTER + INTRA:         -13.354
REMARK INTER:                 -11.973
REMARK INTRA:                  -1.380
REMARK UNBOUND:                -1.544
REMARK  Name = lig_assembled_69.pdb
REMARK  13 active torsions:
REMARK  status: ('A' for Active; 'I' for Inactive)
REMARK    1  A    between atoms: _2  and  _8
REMARK    2  A    between atoms: _5  and  _6
REMARK    3  A    between atoms: _5  and  _16
REMARK    4  A    between atoms: _10  and  _15
REMARK    5  A    between atoms: _13  and  _14
REMARK    6  A    between atoms: _16  and  _18
REMARK    7  A    between atoms: _17  and  _22
REMARK    8  A    between atoms: _18  and  _21
REMARK    9  A    between atoms: _26  and  _36
REMARK   10  A    between atoms: _28  and  _29
REMARK   11  A    between atoms: _30  and  _32
REMARK   12  A    between atoms: _32  and  _34
REMARK   13  A    between atoms: _34  and  _36
REMARK                            x       y       z     vdW  Elec       q    Type
REMARK                         _______ _______ _______ _____ _____    ______ ____
ROOT
ATOM      1  C   UNL     1      27.998  17.740  -1.046  0.00  0.00    +0.400 C 
ATOM      2  N   UNL     1      27.216  17.607  -2.169  0.00  0.00    -0.278 N 
ATOM      3  H   UNL     1      26.222  17.733  -1.795  0.00  0.00    +0.152 HD
ATOM      4  O   UNL     1      27.463  18.124  -0.009  0.00  0.00    -0.226 OA
ENDROOT
BRANCH   1   5
ATOM      5  O   UNL     1      29.240  17.412  -1.187  0.00  0.00    -0.450 OA
BRANCH   5   6
ATOM      6  C   UNL     1      30.245  16.710  -0.493  0.00  0.00    +0.240 C 
BRANCH   6   7
ATOM      7  C   UNL     1      29.873  15.338   0.101  0.00  0.00    +0.100 C 
BRANCH   7   9
ATOM      8  N   UNL     1      31.917  13.992   0.434  0.00  0.00    -0.134 NA
ATOM      9  C   UNL     1      30.968  14.832   0.948  0.00  0.00    +0.086 A 
ATOM     10  C   UNL     1      31.238  15.056   2.280  0.00  0.00    +0.134 A 
ATOM     11  N   UNL     1      32.356  14.314   2.518  0.00  0.00    -0.248 N 
ATOM     12  N   UNL     1      32.760  13.675   1.406  0.00  0.00    -0.065 NA
BRANCH  11  13
ATOM     13  C   UNL     1      33.059  14.125   3.786  0.00  0.00    +0.114 C 
ATOM     14  C   UNL     1      34.554  14.436   3.652  0.00  0.00    +0.062 C 
ATOM     15  C   UNL     1      35.439  13.298   3.138  0.00  0.00    +0.139 C 
ATOM     16  C   UNL     1      35.654  12.142   4.073  0.00  0.00    +0.002 C 
ATOM     17  C   UNL     1      34.905  11.759   5.119  0.00  0.00    +0.002 C 
ATOM     18  C   UNL     1      33.572  12.298   5.541  0.00  0.00    +0.139 C 
ATOM     19  C   UNL     1      32.686  12.764   4.391  0.00  0.00    +0.062 C 
BRANCH  18  20
ATOM     20  O   UNL     1      33.765  13.349   6.476  0.00  0.00    -0.388 OA
ATOM     21  H   UNL     1      34.678  13.668   6.370  0.00  0.00    +0.210 HD
ENDBRANCH  18  20
BRANCH  15  22
ATOM     22  O   UNL     1      36.741  13.851   2.909  0.00  0.00    -0.388 OA
ATOM     23  H   UNL     1      36.642  14.817   2.868  0.00  0.00    +0.210 HD
ENDBRANCH  15  22
ENDBRANCH  11  13
ENDBRANCH   7   9
ENDBRANCH   6   7
ENDBRANCH   5   6
ENDBRANCH   1   5
BRANCH   2  24
ATOM     24  C   UNL     1      27.136  17.391  -3.611  0.00  0.00    +0.152 C 
BRANCH  24  25
ATOM     25  C   UNL     1      26.003  16.464  -4.098  0.00  0.00    +0.193 C 
ATOM     26  O   UNL     1      26.441  15.895  -5.351  0.00  0.00    -0.219 OA
BRANCH  25  27
ATOM     27  C   UNL     1      25.652  15.242  -3.221  0.00  0.00    +0.212 C 
ATOM     28  O   UNL     1      24.993  15.662  -2.015  0.00  0.00    -0.218 OA
BRANCH  27  29
ATOM     29  C   UNL     1      24.738  14.188  -3.954  0.00  0.00    +0.171 C 
ATOM     30  O   UNL     1      23.412  14.161  -3.439  0.00  0.00    -0.343 OA
ATOM     31  C   UNL     1      22.473  13.169  -3.732  0.00  0.00    +0.220 C 
ATOM     32  C   UNL     1      23.046  11.758  -3.513  0.00  0.00    +0.076 C 
ATOM     33  C   UNL     1      24.358  11.663  -4.311  0.00  0.00    +0.177 C 
ATOM     34  O   UNL     1      24.911  10.362  -4.175  0.00  0.00    -0.221 OA
ATOM     35  C   UNL     1      25.360  12.758  -3.829  0.00  0.00    +0.155 C 
BRANCH  35  36
ATOM     36  N   UNL     1      26.610  12.668  -4.579  0.00  0.00    -0.202 NA
ATOM     37  C   UNL     1      27.884  12.537  -4.130  0.00  0.00    +0.242 C 
ATOM     38  C   UNL     1      28.958  12.170  -5.121  0.00  0.00    +0.096 C 
ATOM     39  O   UNL     1      28.130  12.717  -2.939  0.00  0.00    -0.273 OA
ENDBRANCH  35  36
BRANCH  31  40
ATOM     40  C   UNL     1      21.808  13.321  -5.206  0.00  0.00    +0.391 C 
ATOM     41  O   UNL     1      21.196  12.143  -5.435  0.00  0.00    -0.243 OA
ATOM     42  O   UNL     1      21.857  14.626  -5.501  0.00  0.00    -0.243 OA
ENDBRANCH  31  40
ENDBRANCH  27  29
ENDBRANCH  25  27
ENDBRANCH  24  25
ENDBRANCH   2  24
TORSDOF 13
