REMARK VINA RESULT:    -6.902      2.892      8.567
REMARK INTER + INTRA:         -13.170
REMARK INTER:                 -11.137
REMARK INTRA:                  -2.033
REMARK UNBOUND:                -1.427
REMARK  Name = lig_assembled_6.pdb
REMARK  12 active torsions:
REMARK  status: ('A' for Active; 'I' for Inactive)
REMARK    1  A    between atoms: _2  and  _9
REMARK    2  A    between atoms: _3  and  _12
REMARK    3  A    between atoms: _6  and  _7
REMARK    4  A    between atoms: _6  and  _16
REMARK    5  A    between atoms: _16  and  _18
REMARK    6  A    between atoms: _17  and  _22
REMARK    7  A    between atoms: _18  and  _21
REMARK    8  A    between atoms: _26  and  _36
REMARK    9  A    between atoms: _28  and  _29
REMARK   10  A    between atoms: _30  and  _32
REMARK   11  A    between atoms: _32  and  _34
REMARK   12  A    between atoms: _34  and  _36
REMARK                            x       y       z     vdW  Elec       q    Type
REMARK                         _______ _______ _______ _____ _____    ______ ____
ROOT
ATOM      1  C   UNL     1      23.878  14.519  -4.516  0.00  0.00    +0.400 C 
ATOM      2  N   UNL     1      23.975  13.324  -3.843  0.00  0.00    -0.278 N 
ATOM      3  H   UNL     1      23.032  13.243  -3.346  0.00  0.00    +0.152 HD
ATOM      4  O   UNL     1      22.783  15.075  -4.554  0.00  0.00    -0.226 OA
ENDROOT
BRANCH   2   5
ATOM      5  C   UNL     1      24.764  12.138  -3.521  0.00  0.00    +0.152 C 
BRANCH   5   6
ATOM      6  C   UNL     1      24.023  10.787  -3.600  0.00  0.00    +0.193 C 
ATOM      7  O   UNL     1      25.034   9.756  -3.555  0.00  0.00    -0.219 OA
BRANCH   6   8
ATOM      8  C   UNL     1      23.060  10.432  -2.446  0.00  0.00    +0.212 C 
ATOM      9  O   UNL     1      22.970   9.007  -2.288  0.00  0.00    -0.218 OA
BRANCH   8  10
ATOM     10  C   UNL     1      23.479  11.066  -1.065  0.00  0.00    +0.171 C 
ATOM     11  O   UNL     1      24.465  10.296  -0.385  0.00  0.00    -0.343 OA
ATOM     12  C   UNL     1      24.835  10.489   0.948  0.00  0.00    +0.220 C 
ATOM     13  C   UNL     1      23.611  10.536   1.879  0.00  0.00    +0.076 C 
ATOM     14  C   UNL     1      22.643  11.590   1.317  0.00  0.00    +0.177 C 
ATOM     15  O   UNL     1      21.508  11.702   2.165  0.00  0.00    -0.221 OA
ATOM     16  C   UNL     1      22.227  11.215  -0.140  0.00  0.00    +0.155 C 
BRANCH  16  17
ATOM     17  N   UNL     1      21.301  12.210  -0.675  0.00  0.00    -0.202 NA
ATOM     18  C   UNL     1      21.557  13.411  -1.253  0.00  0.00    +0.242 C 
ATOM     19  C   UNL     1      20.438  14.107  -1.983  0.00  0.00    +0.096 C 
ATOM     20  O   UNL     1      22.683  13.898  -1.170  0.00  0.00    -0.273 OA
ENDBRANCH  16  17
BRANCH  12  21
ATOM     21  C   UNL     1      25.804  11.774   1.171  0.00  0.00    +0.391 C 
ATOM     22  O   UNL     1      25.786  11.997   2.499  0.00  0.00    -0.243 OA
ATOM     23  O   UNL     1      26.478  11.932   0.025  0.00  0.00    -0.243 OA
ENDBRANCH  12  21
ENDBRANCH   8  10
ENDBRANCH   6   8
ENDBRANCH   5   6
ENDBRANCH   2   5
BRANCH   1  24
ATOM     24  O   UNL     1      24.978  14.965  -5.027  0.00  0.00    -0.450 OA
BRANCH  24  25
ATOM     25  C   UNL     1      26.106  15.717  -4.645  0.00  0.00    +0.240 C 
BRANCH  25  26
ATOM     26  C   UNL     1      25.877  16.911  -3.699  0.00  0.00    +0.100 C 
BRANCH  26  28
ATOM     27  N   UNL     1      27.318  18.068  -2.051  0.00  0.00    -0.134 NA
ATOM     28  C   UNL     1      26.875  16.905  -2.614  0.00  0.00    +0.086 A 
ATOM     29  C   UNL     1      27.496  15.843  -1.998  0.00  0.00    +0.139 A 
ATOM     30  N   UNL     1      28.294  16.410  -1.031  0.00  0.00    -0.220 N 
ATOM     31  N   UNL     1      28.185  17.759  -1.097  0.00  0.00    -0.061 NA
BRANCH  30  32
ATOM     32  C   UNL     1      29.100  15.766  -0.054  0.00  0.00    +0.067 A 
ATOM     33  C   UNL     1      30.396  16.229   0.222  0.00  0.00    +0.034 A 
ATOM     34  C   UNL     1      31.203  15.550   1.141  0.00  0.00    +0.086 A 
ATOM     35  C   UNL     1      30.712  14.409   1.789  0.00  0.00    +0.273 A 
ATOM     36  C   UNL     1      29.411  13.956   1.540  0.00  0.00    +0.086 A 
ATOM     37  C   UNL     1      28.607  14.637   0.621  0.00  0.00    +0.034 A 
BRANCH  35  38
ATOM     38  N   UNL     1      31.579  13.675   2.720  0.00  0.00    +0.080 N 
ATOM     39  O   UNL     1      31.194  12.563   3.109  0.00  0.00    +0.041 OA
ATOM     40  O   UNL     1      32.638  14.213   3.068  0.00  0.00    -0.576 OA
ENDBRANCH  35  38
ENDBRANCH  30  32
ENDBRANCH  26  28
ENDBRANCH  25  26
ENDBRANCH  24  25
ENDBRANCH   1  24
TORSDOF 12
