REMARK VINA RESULT:    -6.862      2.507      4.175
REMARK INTER + INTRA:         -14.407
REMARK INTER:                 -12.453
REMARK INTRA:                  -1.954
REMARK UNBOUND:                -2.732
REMARK  Name = lig_assembled_85.pdb
REMARK  14 active torsions:
REMARK  status: ('A' for Active; 'I' for Inactive)
REMARK    1  A    between atoms: _2  and  _9
REMARK    2  A    between atoms: _3  and  _5
REMARK    3  A    between atoms: _3  and  _16
REMARK    4  A    between atoms: _6  and  _7
REMARK    5  A    between atoms: _6  and  _18
REMARK    6  A    between atoms: _14  and  _15
REMARK    7  A    between atoms: _18  and  _20
REMARK    8  A    between atoms: _19  and  _24
REMARK    9  A    between atoms: _20  and  _23
REMARK   10  A    between atoms: _28  and  _38
REMARK   11  A    between atoms: _30  and  _31
REMARK   12  A    between atoms: _32  and  _34
REMARK   13  A    between atoms: _34  and  _36
REMARK   14  A    between atoms: _36  and  _38
REMARK                            x       y       z     vdW  Elec       q    Type
REMARK                         _______ _______ _______ _____ _____    ______ ____
ROOT
ATOM      1  C   UNL     1      27.623  17.437  -1.306  0.00  0.00    +0.400 C 
ATOM      2  N   UNL     1      27.884  16.130  -0.968  0.00  0.00    -0.278 N 
ATOM      3  H   UNL     1      28.226  16.199   0.042  0.00  0.00    +0.152 HD
ATOM      4  O   UNL     1      27.651  18.283  -0.415  0.00  0.00    -0.226 OA
ENDROOT
BRANCH   2   5
ATOM      5  C   UNL     1      27.888  14.722  -1.356  0.00  0.00    +0.152 C 
BRANCH   5   6
ATOM      6  C   UNL     1      28.021  13.701  -0.208  0.00  0.00    +0.193 C 
ATOM      7  O   UNL     1      26.967  12.731  -0.391  0.00  0.00    -0.219 OA
BRANCH   6   8
ATOM      8  C   UNL     1      29.314  12.858  -0.147  0.00  0.00    +0.212 C 
ATOM      9  O   UNL     1      30.168  13.168  -1.260  0.00  0.00    -0.218 OA
BRANCH   8  10
ATOM     10  C   UNL     1      30.130  13.062   1.187  0.00  0.00    +0.171 C 
ATOM     11  O   UNL     1      31.511  13.318   0.950  0.00  0.00    -0.343 OA
ATOM     12  C   UNL     1      32.497  13.296   1.939  0.00  0.00    +0.220 C 
ATOM     13  C   UNL     1      32.437  12.005   2.775  0.00  0.00    +0.076 C 
ATOM     14  C   UNL     1      30.997  11.856   3.293  0.00  0.00    +0.177 C 
ATOM     15  O   UNL     1      30.896  10.697   4.108  0.00  0.00    -0.221 OA
ATOM     16  C   UNL     1      29.998  11.797   2.096  0.00  0.00    +0.155 C 
BRANCH  16  17
ATOM     17  N   UNL     1      28.630  11.649   2.584  0.00  0.00    -0.202 NA
ATOM     18  C   UNL     1      27.714  10.682   2.320  0.00  0.00    +0.242 C 
ATOM     19  C   UNL     1      26.482  10.608   3.184  0.00  0.00    +0.096 C 
ATOM     20  O   UNL     1      27.909   9.898   1.394  0.00  0.00    -0.273 OA
ENDBRANCH  16  17
BRANCH  12  21
ATOM     21  C   UNL     1      32.498  14.618   2.882  0.00  0.00    +0.391 C 
ATOM     22  O   UNL     1      33.637  14.534   3.597  0.00  0.00    -0.243 OA
ATOM     23  O   UNL     1      31.550  15.425   2.389  0.00  0.00    -0.243 OA
ENDBRANCH  12  21
ENDBRANCH   8  10
ENDBRANCH   6   8
ENDBRANCH   5   6
ENDBRANCH   2   5
BRANCH   1  24
ATOM     24  O   UNL     1      27.400  17.658  -2.560  0.00  0.00    -0.450 OA
BRANCH  24  25
ATOM     25  C   UNL     1      26.367  17.500  -3.505  0.00  0.00    +0.240 C 
BRANCH  25  26
ATOM     26  C   UNL     1      26.388  16.230  -4.376  0.00  0.00    +0.100 C 
BRANCH  26  28
ATOM     27  N   UNL     1      24.782  14.450  -4.965  0.00  0.00    -0.134 NA
ATOM     28  C   UNL     1      25.222  15.383  -4.071  0.00  0.00    +0.086 A 
ATOM     29  C   UNL     1      24.454  15.318  -2.929  0.00  0.00    +0.139 A 
ATOM     30  N   UNL     1      23.551  14.313  -3.176  0.00  0.00    -0.219 N 
ATOM     31  N   UNL     1      23.784  13.786  -4.402  0.00  0.00    -0.061 NA
BRANCH  30  32
ATOM     32  C   UNL     1      22.567  13.761  -2.328  0.00  0.00    +0.080 A 
ATOM     33  C   UNL     1      21.221  14.160  -2.315  0.00  0.00    +0.062 A 
ATOM     34  C   UNL     1      20.412  13.703  -1.249  0.00  0.00    +0.016 A 
ATOM     35  C   UNL     1      20.909  12.862  -0.248  0.00  0.00    +0.021 A 
ATOM     36  C   UNL     1      22.222  12.421  -0.320  0.00  0.00    +0.043 A 
ATOM     37 CL   UNL     1      22.861  11.416   0.920  0.00  0.00    -0.083 Cl
ATOM     38  C   UNL     1      23.042  12.841  -1.364  0.00  0.00    +0.048 A 
BRANCH  33  39
ATOM     39  C   UNL     1      20.516  15.086  -3.249  0.00  0.00    +0.248 C 
ATOM     40  O   UNL     1      20.857  16.270  -3.166  0.00  0.00    -0.270 OA
ATOM     41  N   UNL     1      19.493  14.690  -4.117  0.00  0.00    -0.304 N 
ATOM     42  C   UNL     1      19.062  13.335  -4.430  0.00  0.00    +0.132 C 
ATOM     43  C   UNL     1      18.909  15.735  -4.952  0.00  0.00    +0.132 C 
ENDBRANCH  33  39
ENDBRANCH  30  32
ENDBRANCH  26  28
ENDBRANCH  25  26
ENDBRANCH  24  25
ENDBRANCH   1  24
TORSDOF 12
