REMARK VINA RESULT:    -7.101      2.090      3.032
REMARK INTER + INTRA:         -14.034
REMARK INTER:                 -12.867
REMARK INTRA:                  -1.167
REMARK UNBOUND:                -1.952
REMARK  Name = lig_assembled_44.pdb
REMARK  12 active torsions:
REMARK  status: ('A' for Active; 'I' for Inactive)
REMARK    1  A    between atoms: _2  and  _8
REMARK    2  A    between atoms: _5  and  _6
REMARK    3  A    between atoms: _5  and  _14
REMARK    4  A    between atoms: _8  and  _9
REMARK    5  A    between atoms: _14  and  _16
REMARK    6  A    between atoms: _15  and  _20
REMARK    7  A    between atoms: _16  and  _19
REMARK    8  A    between atoms: _24  and  _34
REMARK    9  A    between atoms: _26  and  _27
REMARK   10  A    between atoms: _28  and  _30
REMARK   11  A    between atoms: _30  and  _32
REMARK   12  A    between atoms: _32  and  _34
REMARK                            x       y       z     vdW  Elec       q    Type
REMARK                         _______ _______ _______ _____ _____    ______ ____
ROOT
ATOM      1  C   UNL     1      28.320  17.639  -0.519  0.00  0.00    +0.400 C 
ATOM      2  N   UNL     1      29.524  17.586   0.144  0.00  0.00    -0.278 N 
ATOM      3  H   UNL     1      29.478  18.422   0.807  0.00  0.00    +0.152 HD
ATOM      4  O   UNL     1      27.470  18.429  -0.114  0.00  0.00    -0.226 OA
ENDROOT
BRANCH   2   5
ATOM      5  C   UNL     1      30.800  16.907   0.353  0.00  0.00    +0.152 C 
BRANCH   5   6
ATOM      6  C   UNL     1      30.799  15.378   0.144  0.00  0.00    +0.193 C 
ATOM      7  O   UNL     1      31.719  15.107  -0.937  0.00  0.00    -0.219 OA
BRANCH   6   8
ATOM      8  C   UNL     1      31.301  14.497   1.308  0.00  0.00    +0.212 C 
ATOM      9  O   UNL     1      31.597  15.306   2.458  0.00  0.00    -0.218 OA
BRANCH   8  10
ATOM     10  C   UNL     1      30.275  13.377   1.731  0.00  0.00    +0.171 C 
ATOM     11  O   UNL     1      30.079  13.318   3.140  0.00  0.00    -0.343 OA
ATOM     12  C   UNL     1      29.422  12.277   3.801  0.00  0.00    +0.220 C 
ATOM     13  C   UNL     1      29.972  10.901   3.386  0.00  0.00    +0.076 C 
ATOM     14  C   UNL     1      29.921  10.826   1.851  0.00  0.00    +0.177 C 
ATOM     15  O   UNL     1      30.382   9.555   1.415  0.00  0.00    -0.221 OA
ATOM     16  C   UNL     1      30.768  11.980   1.229  0.00  0.00    +0.155 C 
BRANCH  16  17
ATOM     17  N   UNL     1      30.728  11.909  -0.229  0.00  0.00    -0.202 NA
ATOM     18  C   UNL     1      29.684  12.083  -1.078  0.00  0.00    +0.242 C 
ATOM     19  C   UNL     1      29.976  12.246  -2.547  0.00  0.00    +0.096 C 
ATOM     20  O   UNL     1      28.537  12.104  -0.635  0.00  0.00    -0.273 OA
ENDBRANCH  16  17
BRANCH  12  21
ATOM     21  C   UNL     1      27.805  12.341   3.662  0.00  0.00    +0.391 C 
ATOM     22  O   UNL     1      27.384  11.089   3.928  0.00  0.00    -0.243 OA
ATOM     23  O   UNL     1      27.487  13.641   3.639  0.00  0.00    -0.243 OA
ENDBRANCH  12  21
ENDBRANCH   8  10
ENDBRANCH   6   8
ENDBRANCH   5   6
ENDBRANCH   2   5
BRANCH   1  24
ATOM     24  O   UNL     1      28.209  16.858  -1.542  0.00  0.00    -0.450 OA
BRANCH  24  25
ATOM     25  C   UNL     1      27.266  15.990  -2.127  0.00  0.00    +0.240 C 
BRANCH  25  26
ATOM     26  C   UNL     1      26.557  16.469  -3.408  0.00  0.00    +0.100 C 
BRANCH  26  28
ATOM     27  N   UNL     1      24.950  14.974  -4.558  0.00  0.00    -0.134 NA
ATOM     28  C   UNL     1      25.231  15.836  -3.531  0.00  0.00    +0.086 A 
ATOM     29  C   UNL     1      24.125  15.947  -2.721  0.00  0.00    +0.134 A 
ATOM     30  N   UNL     1      23.233  15.070  -3.263  0.00  0.00    -0.247 N 
ATOM     31  N   UNL     1      23.716  14.518  -4.390  0.00  0.00    -0.065 NA
BRANCH  30  32
ATOM     32  C   UNL     1      21.916  14.709  -2.771  0.00  0.00    +0.180 C 
BRANCH  32  33
ATOM     33  C   UNL     1      22.005  13.714  -1.636  0.00  0.00    -0.026 A 
ATOM     34  C   UNL     1      20.870  13.391  -0.879  0.00  0.00    +0.006 A 
ATOM     35  C   UNL     1      20.958  12.482   0.179  0.00  0.00    +0.015 A 
ATOM     36  C   UNL     1      22.183  11.893   0.484  0.00  0.00    +0.018 A 
ATOM     37 BR   UNL     1      22.298  10.651   1.904  0.00  0.00    -0.050 Br
ATOM     38  C   UNL     1      23.323  12.212  -0.250  0.00  0.00    +0.015 A 
ATOM     39  C   UNL     1      23.235  13.125  -1.305  0.00  0.00    +0.006 A 
ENDBRANCH  32  33
ENDBRANCH  30  32
ENDBRANCH  26  28
ENDBRANCH  25  26
ENDBRANCH  24  25
ENDBRANCH   1  24
TORSDOF 12
