REMARK VINA RESULT:    -7.070      1.473      2.021
REMARK INTER + INTRA:         -13.893
REMARK INTER:                 -11.971
REMARK INTRA:                  -1.923
REMARK UNBOUND:                -1.658
REMARK  Name = lig_assembled_60.pdb
REMARK  13 active torsions:
REMARK  status: ('A' for Active; 'I' for Inactive)
REMARK    1  A    between atoms: _2  and  _9
REMARK    2  A    between atoms: _3  and  _44
REMARK    3  A    between atoms: _6  and  _7
REMARK    4  A    between atoms: _6  and  _16
REMARK    5  A    between atoms: _12  and  _44
REMARK    6  A    between atoms: _16  and  _18
REMARK    7  A    between atoms: _17  and  _22
REMARK    8  A    between atoms: _18  and  _21
REMARK    9  A    between atoms: _26  and  _36
REMARK   10  A    between atoms: _28  and  _29
REMARK   11  A    between atoms: _30  and  _32
REMARK   12  A    between atoms: _32  and  _34
REMARK   13  A    between atoms: _34  and  _36
REMARK                            x       y       z     vdW  Elec       q    Type
REMARK                         _______ _______ _______ _____ _____    ______ ____
ROOT
ATOM      1  C   UNL     1      28.494  17.084  -1.056  0.00  0.00    +0.400 C 
ATOM      2  N   UNL     1      28.716  15.927  -0.347  0.00  0.00    -0.278 N 
ATOM      3  H   UNL     1      29.690  16.074   0.068  0.00  0.00    +0.152 HD
ATOM      4  O   UNL     1      29.289  18.010  -0.916  0.00  0.00    -0.226 OA
ENDROOT
BRANCH   2   5
ATOM      5  C   UNL     1      28.223  14.625   0.095  0.00  0.00    +0.152 C 
BRANCH   5   6
ATOM      6  C   UNL     1      28.979  13.976   1.273  0.00  0.00    +0.193 C 
ATOM      7  O   UNL     1      28.055  13.925   2.382  0.00  0.00    -0.219 OA
BRANCH   6   8
ATOM      8  C   UNL     1      29.455  12.517   1.101  0.00  0.00    +0.212 C 
ATOM      9  O   UNL     1      29.641  12.211  -0.290  0.00  0.00    -0.218 OA
BRANCH   8  10
ATOM     10  C   UNL     1      30.795  12.203   1.870  0.00  0.00    +0.171 C 
ATOM     11  O   UNL     1      30.601  12.059   3.273  0.00  0.00    -0.343 OA
ATOM     12  C   UNL     1      31.635  12.021   4.211  0.00  0.00    +0.220 C 
ATOM     13  C   UNL     1      32.613  13.196   4.032  0.00  0.00    +0.076 C 
ATOM     14  C   UNL     1      33.071  13.196   2.564  0.00  0.00    +0.177 C 
ATOM     15  O   UNL     1      34.009  14.241   2.352  0.00  0.00    -0.221 OA
ATOM     16  C   UNL     1      31.839  13.339   1.616  0.00  0.00    +0.155 C 
BRANCH  16  17
ATOM     17  N   UNL     1      32.271  13.346   0.221  0.00  0.00    -0.202 NA
ATOM     18  C   UNL     1      32.316  14.371  -0.668  0.00  0.00    +0.242 C 
ATOM     19  C   UNL     1      33.079  14.171  -1.952  0.00  0.00    +0.096 C 
ATOM     20  O   UNL     1      31.741  15.426  -0.409  0.00  0.00    -0.273 OA
ENDBRANCH  16  17
BRANCH  12  21
ATOM     21  C   UNL     1      32.415  10.597   4.258  0.00  0.00    +0.391 C 
ATOM     22  O   UNL     1      31.649   9.757   3.535  0.00  0.00    -0.243 OA
ATOM     23  O   UNL     1      33.642  10.862   4.724  0.00  0.00    -0.243 OA
ENDBRANCH  12  21
ENDBRANCH   8  10
ENDBRANCH   6   8
ENDBRANCH   5   6
ENDBRANCH   2   5
BRANCH   1  24
ATOM     24  O   UNL     1      27.467  17.071  -1.840  0.00  0.00    -0.450 OA
BRANCH  24  25
ATOM     25  C   UNL     1      27.095  17.525  -3.121  0.00  0.00    +0.240 C 
BRANCH  25  26
ATOM     26  C   UNL     1      26.123  16.647  -3.932  0.00  0.00    +0.100 C 
BRANCH  26  28
ATOM     27  N   UNL     1      26.755  14.299  -3.463  0.00  0.00    -0.134 NA
ATOM     28  C   UNL     1      25.914  15.353  -3.253  0.00  0.00    +0.086 A 
ATOM     29  C   UNL     1      24.942  14.982  -2.356  0.00  0.00    +0.139 A 
ATOM     30  N   UNL     1      25.254  13.687  -2.009  0.00  0.00    -0.220 N 
ATOM     31  N   UNL     1      26.342  13.287  -2.711  0.00  0.00    -0.061 NA
BRANCH  30  32
ATOM     32  C   UNL     1      24.623  12.849  -1.052  0.00  0.00    +0.067 A 
ATOM     33  C   UNL     1      23.226  12.716  -1.030  0.00  0.00    +0.030 A 
ATOM     34  C   UNL     1      22.612  11.945  -0.040  0.00  0.00    +0.030 A 
ATOM     35  C   UNL     1      23.394  11.296   0.919  0.00  0.00    +0.105 A 
ATOM     36  C   UNL     1      24.788  11.408   0.897  0.00  0.00    +0.030 A 
ATOM     37  C   UNL     1      25.401  12.180  -0.093  0.00  0.00    +0.030 A 
BRANCH  35  38
ATOM     38  S   UNL     1      22.600  10.388   2.213  0.00  0.00    +0.056 S 
ATOM     39  O   UNL     1      21.764   9.364   1.634  0.00  0.00    -0.153 OA
ATOM     40  O   UNL     1      23.565  10.108   3.252  0.00  0.00    -0.153 OA
BRANCH  38  41
ATOM     41  N   UNL     1      21.557  11.538   2.847  0.00  0.00    -0.204 NA
ATOM     42  H   UNL     1      20.592  11.272   2.656  0.00  0.00    +0.144 HD
ATOM     43  H   UNL     1      21.808  12.462   2.492  0.00  0.00    +0.144 HD
ENDBRANCH  38  41
ENDBRANCH  35  38
ENDBRANCH  30  32
ENDBRANCH  26  28
ENDBRANCH  25  26
ENDBRANCH  24  25
ENDBRANCH   1  24
TORSDOF 13
