REMARK VINA RESULT:    -7.151      3.089      9.670
REMARK INTER + INTRA:         -13.595
REMARK INTER:                 -12.273
REMARK INTRA:                  -1.322
REMARK UNBOUND:                -1.427
REMARK  Name = lig_assembled_6.pdb
REMARK  12 active torsions:
REMARK  status: ('A' for Active; 'I' for Inactive)
REMARK    1  A    between atoms: _2  and  _9
REMARK    2  A    between atoms: _3  and  _12
REMARK    3  A    between atoms: _6  and  _7
REMARK    4  A    between atoms: _6  and  _16
REMARK    5  A    between atoms: _16  and  _18
REMARK    6  A    between atoms: _17  and  _22
REMARK    7  A    between atoms: _18  and  _21
REMARK    8  A    between atoms: _26  and  _36
REMARK    9  A    between atoms: _28  and  _29
REMARK   10  A    between atoms: _30  and  _32
REMARK   11  A    between atoms: _32  and  _34
REMARK   12  A    between atoms: _34  and  _36
REMARK                            x       y       z     vdW  Elec       q    Type
REMARK                         _______ _______ _______ _____ _____    ______ ____
ROOT
ATOM      1  C   UNL     1      27.894  17.724  -1.114  0.00  0.00    +0.400 C 
ATOM      2  N   UNL     1      27.153  17.614  -2.267  0.00  0.00    -0.278 N 
ATOM      3  H   UNL     1      26.243  18.120  -2.025  0.00  0.00    +0.152 HD
ATOM      4  O   UNL     1      27.477  18.462  -0.225  0.00  0.00    -0.226 OA
ENDROOT
BRANCH   2   5
ATOM      5  C   UNL     1      27.060  17.141  -3.645  0.00  0.00    +0.152 C 
BRANCH   5   6
ATOM      6  C   UNL     1      25.871  16.213  -3.966  0.00  0.00    +0.193 C 
ATOM      7  O   UNL     1      25.977  15.869  -5.365  0.00  0.00    -0.219 OA
BRANCH   6   8
ATOM      8  C   UNL     1      25.810  14.851  -3.239  0.00  0.00    +0.212 C 
ATOM      9  O   UNL     1      26.314  14.975  -1.899  0.00  0.00    -0.218 OA
BRANCH   8  10
ATOM     10  C   UNL     1      24.358  14.241  -3.176  0.00  0.00    +0.171 C 
ATOM     11  O   UNL     1      23.342  15.236  -3.251  0.00  0.00    -0.343 OA
ATOM     12  C   UNL     1      21.992  15.005  -2.978  0.00  0.00    +0.220 C 
ATOM     13  C   UNL     1      21.796  14.294  -1.627  0.00  0.00    +0.076 C 
ATOM     14  C   UNL     1      22.679  13.035  -1.636  0.00  0.00    +0.177 C 
ATOM     15  O   UNL     1      22.505  12.317  -0.423  0.00  0.00    -0.221 OA
ATOM     16  C   UNL     1      24.174  13.428  -1.853  0.00  0.00    +0.155 C 
BRANCH  16  17
ATOM     17  N   UNL     1      25.017  12.235  -1.855  0.00  0.00    -0.202 NA
ATOM     18  C   UNL     1      25.767  11.701  -0.858  0.00  0.00    +0.242 C 
ATOM     19  C   UNL     1      26.305  10.305  -1.036  0.00  0.00    +0.096 C 
ATOM     20  O   UNL     1      25.986  12.360   0.157  0.00  0.00    -0.273 OA
ENDBRANCH  16  17
BRANCH  12  21
ATOM     21  C   UNL     1      21.211  14.235  -4.177  0.00  0.00    +0.391 C 
ATOM     22  O   UNL     1      20.066  13.795  -3.619  0.00  0.00    -0.243 OA
ATOM     23  O   UNL     1      21.837  14.582  -5.308  0.00  0.00    -0.243 OA
ENDBRANCH  12  21
ENDBRANCH   8  10
ENDBRANCH   6   8
ENDBRANCH   5   6
ENDBRANCH   2   5
BRANCH   1  24
ATOM     24  O   UNL     1      28.964  17.000  -1.065  0.00  0.00    -0.450 OA
BRANCH  24  25
ATOM     25  C   UNL     1      29.488  15.917  -0.333  0.00  0.00    +0.240 C 
BRANCH  25  26
ATOM     26  C   UNL     1      30.984  15.963   0.032  0.00  0.00    +0.100 C 
BRANCH  26  28
ATOM     27  N   UNL     1      31.485  13.590   0.530  0.00  0.00    -0.134 NA
ATOM     28  C   UNL     1      31.318  14.873   0.967  0.00  0.00    +0.086 A 
ATOM     29  C   UNL     1      31.522  14.914   2.327  0.00  0.00    +0.139 A 
ATOM     30  N   UNL     1      31.847  13.623   2.677  0.00  0.00    -0.220 N 
ATOM     31  N   UNL     1      31.797  12.836   1.576  0.00  0.00    -0.061 NA
BRANCH  30  32
ATOM     32  C   UNL     1      32.226  13.117   3.948  0.00  0.00    +0.067 A 
ATOM     33  C   UNL     1      31.313  12.393   4.732  0.00  0.00    +0.034 A 
ATOM     34  C   UNL     1      31.678  11.952   6.008  0.00  0.00    +0.086 A 
ATOM     35  C   UNL     1      32.959  12.231   6.501  0.00  0.00    +0.273 A 
ATOM     36  C   UNL     1      33.885  12.928   5.717  0.00  0.00    +0.086 A 
ATOM     37  C   UNL     1      33.518  13.368   4.441  0.00  0.00    +0.034 A 
BRANCH  35  38
ATOM     38  N   UNL     1      33.322  11.803   7.858  0.00  0.00    +0.080 N 
ATOM     39  O   UNL     1      34.297  11.047   7.981  0.00  0.00    +0.041 OA
ATOM     40  O   UNL     1      32.631  12.216   8.799  0.00  0.00    -0.576 OA
ENDBRANCH  35  38
ENDBRANCH  30  32
ENDBRANCH  26  28
ENDBRANCH  25  26
ENDBRANCH  24  25
ENDBRANCH   1  24
TORSDOF 12
