REMARK VINA RESULT:    -6.061      1.360      2.087
REMARK INTER + INTRA:         -14.138
REMARK INTER:                 -13.006
REMARK INTRA:                  -1.132
REMARK UNBOUND:                -3.117
REMARK  Name = lig_assembled_9.pdb
REMARK  15 active torsions:
REMARK  status: ('A' for Active; 'I' for Inactive)
REMARK    1  A    between atoms: _2  and  _8
REMARK    2  A    between atoms: _5  and  _6
REMARK    3  A    between atoms: _5  and  _18
REMARK    4  A    between atoms: _10  and  _11
REMARK    5  A    between atoms: _11  and  _16
REMARK    6  A    between atoms: _12  and  _13
REMARK    7  A    between atoms: _12  and  _16
REMARK    8  A    between atoms: _18  and  _20
REMARK    9  A    between atoms: _19  and  _24
REMARK   10  A    between atoms: _20  and  _23
REMARK   11  A    between atoms: _28  and  _38
REMARK   12  A    between atoms: _30  and  _31
REMARK   13  A    between atoms: _32  and  _34
REMARK   14  A    between atoms: _34  and  _36
REMARK   15  A    between atoms: _36  and  _38
REMARK                            x       y       z     vdW  Elec       q    Type
REMARK                         _______ _______ _______ _____ _____    ______ ____
ROOT
ATOM      1  C   UNL     1      27.501  17.689  -1.443  0.00  0.00    +0.400 C 
ATOM      2  N   UNL     1      28.315  16.918  -0.648  0.00  0.00    -0.278 N 
ATOM      3  H   UNL     1      28.853  17.640  -0.071  0.00  0.00    +0.152 HD
ATOM      4  O   UNL     1      27.433  18.893  -1.208  0.00  0.00    -0.226 OA
ENDROOT
BRANCH   2   5
ATOM      5  C   UNL     1      28.754  15.587  -0.237  0.00  0.00    +0.152 C 
BRANCH   5   6
ATOM      6  C   UNL     1      30.269  15.413  -0.005  0.00  0.00    +0.193 C 
ATOM      7  O   UNL     1      30.724  16.602   0.678  0.00  0.00    -0.219 OA
BRANCH   6   8
ATOM      8  C   UNL     1      30.724  14.249   0.903  0.00  0.00    +0.212 C 
ATOM      9  O   UNL     1      29.681  13.269   1.023  0.00  0.00    -0.218 OA
BRANCH   8  10
ATOM     10  C   UNL     1      32.033  13.534   0.393  0.00  0.00    +0.171 C 
ATOM     11  O   UNL     1      33.189  13.915   1.130  0.00  0.00    -0.343 OA
ATOM     12  C   UNL     1      34.501  13.628   0.744  0.00  0.00    +0.220 C 
ATOM     13  C   UNL     1      34.768  14.037  -0.715  0.00  0.00    +0.076 C 
ATOM     14  C   UNL     1      33.680  13.386  -1.585  0.00  0.00    +0.177 C 
ATOM     15  O   UNL     1      33.904  13.700  -2.952  0.00  0.00    -0.221 OA
ATOM     16  C   UNL     1      32.267  13.857  -1.119  0.00  0.00    +0.155 C 
BRANCH  16  17
ATOM     17  N   UNL     1      31.230  13.246  -1.948  0.00  0.00    -0.202 NA
ATOM     18  C   UNL     1      30.835  11.950  -2.027  0.00  0.00    +0.242 C 
ATOM     19  C   UNL     1      29.546  11.638  -2.743  0.00  0.00    +0.096 C 
ATOM     20  O   UNL     1      31.527  11.071  -1.519  0.00  0.00    -0.273 OA
ENDBRANCH  16  17
BRANCH  12  21
ATOM     21  C   UNL     1      34.934  12.087   1.021  0.00  0.00    +0.391 C 
ATOM     22  O   UNL     1      36.058  11.907   0.300  0.00  0.00    -0.243 OA
ATOM     23  O   UNL     1      34.207  11.681   2.069  0.00  0.00    -0.243 OA
ENDBRANCH  12  21
ENDBRANCH   8  10
ENDBRANCH   6   8
ENDBRANCH   5   6
ENDBRANCH   2   5
BRANCH   1  24
ATOM     24  O   UNL     1      26.897  17.063  -2.399  0.00  0.00    -0.450 OA
BRANCH  24  25
ATOM     25  C   UNL     1      26.728  17.152  -3.795  0.00  0.00    +0.240 C 
BRANCH  25  26
ATOM     26  C   UNL     1      26.223  15.897  -4.531  0.00  0.00    +0.100 C 
BRANCH  26  28
ATOM     27  N   UNL     1      26.270  14.015  -2.925  0.00  0.00    -0.134 NA
ATOM     28  C   UNL     1      25.565  14.980  -3.583  0.00  0.00    +0.086 A 
ATOM     29  C   UNL     1      24.247  14.915  -3.196  0.00  0.00    +0.139 A 
ATOM     30  N   UNL     1      24.200  13.908  -2.258  0.00  0.00    -0.220 N 
ATOM     31  N   UNL     1      25.433  13.364  -2.127  0.00  0.00    -0.061 NA
BRANCH  30  32
ATOM     32  C   UNL     1      23.097  13.469  -1.483  0.00  0.00    +0.068 A 
ATOM     33  C   UNL     1      23.267  12.495  -0.491  0.00  0.00    +0.042 A 
ATOM     34  C   UNL     1      22.167  12.040   0.252  0.00  0.00    +0.061 A 
ATOM     35  C   UNL     1      20.894  12.568   0.000  0.00  0.00    +0.015 A 
ATOM     36  C   UNL     1      20.724  13.548  -0.979  0.00  0.00    +0.003 A 
ATOM     37  C   UNL     1      21.819  13.999  -1.719  0.00  0.00    +0.028 A 
BRANCH  34  38
ATOM     38  C   UNL     1      22.315  11.053   1.354  0.00  0.00    +0.339 C 
ATOM     39  O   UNL     1      21.502  10.912   2.252  0.00  0.00    -0.245 OA
BRANCH  38  40
ATOM     40  O   UNL     1      23.515  10.428   1.251  0.00  0.00    -0.461 OA
BRANCH  40  41
ATOM     41  C   UNL     1      24.476  10.769   2.258  0.00  0.00    +0.229 C 
ATOM     42  C   UNL     1      24.640   9.572   3.176  0.00  0.00    +0.048 C 
ENDBRANCH  40  41
ENDBRANCH  38  40
ENDBRANCH  34  38
ENDBRANCH  30  32
ENDBRANCH  26  28
ENDBRANCH  25  26
ENDBRANCH  24  25
ENDBRANCH   1  24
TORSDOF 14
