REMARK VINA RESULT:    -7.254      2.162      3.622
REMARK INTER + INTRA:         -14.183
REMARK INTER:                 -12.440
REMARK INTRA:                  -1.744
REMARK UNBOUND:                -1.841
REMARK  Name = lig_assembled_39.pdb
REMARK  12 active torsions:
REMARK  status: ('A' for Active; 'I' for Inactive)
REMARK    1  A    between atoms: _2  and  _8
REMARK    2  A    between atoms: _5  and  _6
REMARK    3  A    between atoms: _5  and  _14
REMARK    4  A    between atoms: _8  and  _9
REMARK    5  A    between atoms: _14  and  _16
REMARK    6  A    between atoms: _15  and  _20
REMARK    7  A    between atoms: _16  and  _19
REMARK    8  A    between atoms: _24  and  _34
REMARK    9  A    between atoms: _26  and  _27
REMARK   10  A    between atoms: _28  and  _30
REMARK   11  A    between atoms: _30  and  _32
REMARK   12  A    between atoms: _32  and  _34
REMARK                            x       y       z     vdW  Elec       q    Type
REMARK                         _______ _______ _______ _____ _____    ______ ____
ROOT
ATOM      1  C   UNL     1      28.279  17.645  -0.557  0.00  0.00    +0.400 C 
ATOM      2  N   UNL     1      29.480  17.463   0.087  0.00  0.00    -0.278 N 
ATOM      3  H   UNL     1      29.496  18.252   0.808  0.00  0.00    +0.152 HD
ATOM      4  O   UNL     1      27.488  18.460  -0.088  0.00  0.00    -0.226 OA
ENDROOT
BRANCH   2   5
ATOM      5  C   UNL     1      30.708  16.685   0.234  0.00  0.00    +0.152 C 
BRANCH   5   6
ATOM      6  C   UNL     1      30.558  15.153   0.134  0.00  0.00    +0.193 C 
ATOM      7  O   UNL     1      31.411  14.723  -0.950  0.00  0.00    -0.219 OA
BRANCH   6   8
ATOM      8  C   UNL     1      31.017  14.310   1.344  0.00  0.00    +0.212 C 
ATOM      9  O   UNL     1      31.324  15.160   2.461  0.00  0.00    -0.218 OA
BRANCH   8  10
ATOM     10  C   UNL     1      29.952  13.242   1.801  0.00  0.00    +0.171 C 
ATOM     11  O   UNL     1      28.628  13.767   1.832  0.00  0.00    -0.343 OA
ATOM     12  C   UNL     1      27.539  13.124   2.424  0.00  0.00    +0.220 C 
ATOM     13  C   UNL     1      27.855  12.672   3.860  0.00  0.00    +0.076 C 
ATOM     14  C   UNL     1      29.148  11.842   3.811  0.00  0.00    +0.177 C 
ATOM     15  O   UNL     1      29.464  11.365   5.111  0.00  0.00    -0.221 OA
ATOM     16  C   UNL     1      30.313  12.696   3.221  0.00  0.00    +0.155 C 
BRANCH  16  17
ATOM     17  N   UNL     1      31.545  11.913   3.178  0.00  0.00    -0.202 NA
ATOM     18  C   UNL     1      32.690  12.057   3.892  0.00  0.00    +0.242 C 
ATOM     19  C   UNL     1      33.696  10.936   3.865  0.00  0.00    +0.096 C 
ATOM     20  O   UNL     1      32.878  13.086   4.538  0.00  0.00    -0.273 OA
ENDBRANCH  16  17
BRANCH  12  21
ATOM     21  C   UNL     1      26.945  11.904   1.531  0.00  0.00    +0.391 C 
ATOM     22  O   UNL     1      27.462  12.088   0.301  0.00  0.00    -0.243 OA
ATOM     23  O   UNL     1      26.427  11.028   2.401  0.00  0.00    -0.243 OA
ENDBRANCH  12  21
ENDBRANCH   8  10
ENDBRANCH   6   8
ENDBRANCH   5   6
ENDBRANCH   2   5
BRANCH   1  24
ATOM     24  O   UNL     1      28.109  16.947  -1.632  0.00  0.00    -0.450 OA
BRANCH  24  25
ATOM     25  C   UNL     1      27.099  16.664  -2.572  0.00  0.00    +0.240 C 
BRANCH  25  26
ATOM     26  C   UNL     1      26.977  15.210  -3.067  0.00  0.00    +0.100 C 
BRANCH  26  28
ATOM     27  N   UNL     1      24.571  15.458  -2.540  0.00  0.00    -0.134 NA
ATOM     28  C   UNL     1      25.666  14.649  -2.692  0.00  0.00    +0.086 A 
ATOM     29  C   UNL     1      25.298  13.342  -2.463  0.00  0.00    +0.134 A 
ATOM     30  N   UNL     1      23.951  13.415  -2.258  0.00  0.00    -0.247 N 
ATOM     31  N   UNL     1      23.529  14.694  -2.244  0.00  0.00    -0.065 NA
BRANCH  30  32
ATOM     32  C   UNL     1      23.002  12.317  -2.140  0.00  0.00    +0.181 C 
BRANCH  32  33
ATOM     33  C   UNL     1      22.606  12.020  -0.705  0.00  0.00    -0.012 A 
ATOM     34  C   UNL     1      23.372  11.145   0.094  0.00  0.00    +0.006 A 
ATOM     35  C   UNL     1      23.015  10.859   1.415  0.00  0.00    +0.000 A 
ATOM     36  C   UNL     1      21.868  11.421   1.961  0.00  0.00    +0.001 A 
ATOM     37  C   UNL     1      21.069  12.254   1.182  0.00  0.00    +0.015 A 
ATOM     38  C   UNL     1      21.427  12.543  -0.142  0.00  0.00    +0.023 A 
ATOM     39 BR   UNL     1      20.228  13.644  -1.126  0.00  0.00    -0.050 Br
ENDBRANCH  32  33
ENDBRANCH  30  32
ENDBRANCH  26  28
ENDBRANCH  25  26
ENDBRANCH  24  25
ENDBRANCH   1  24
TORSDOF 12
