REMARK VINA RESULT:    -6.313      3.736      8.239
REMARK INTER + INTRA:         -12.547
REMARK INTER:                 -10.003
REMARK INTRA:                  -2.544
REMARK UNBOUND:                -2.544
REMARK  Name = lig_assembled_65.pdb
REMARK  11 active torsions:
REMARK  status: ('A' for Active; 'I' for Inactive)
REMARK    1  A    between atoms: _8  and  _14
REMARK    2  A    between atoms: _9  and  _10
REMARK    3  A    between atoms: _9  and  _15
REMARK    4  A    between atoms: _15  and  _17
REMARK    5  A    between atoms: _16  and  _21
REMARK    6  A    between atoms: _17  and  _20
REMARK    7  A    between atoms: _25  and  _35
REMARK    8  A    between atoms: _27  and  _28
REMARK    9  A    between atoms: _29  and  _31
REMARK   10  A    between atoms: _31  and  _33
REMARK   11  A    between atoms: _33  and  _35
REMARK                            x       y       z     vdW  Elec       q    Type
REMARK                         _______ _______ _______ _____ _____    ______ ____
ROOT
ATOM      1  C   UNL     1      28.584  15.545  -0.597  0.00  0.00    +0.400 C 
ATOM      2  N   UNL     1      27.612  14.725  -1.121  0.00  0.00    -0.278 N 
ATOM      3  H   UNL     1      27.195  15.311  -1.912  0.00  0.00    +0.152 HD
ATOM      4  O   UNL     1      28.862  16.575  -1.204  0.00  0.00    -0.226 OA
ENDROOT
BRANCH   1   5
ATOM      5  O   UNL     1      29.098  15.157   0.524  0.00  0.00    -0.450 OA
BRANCH   5   6
ATOM      6  C   UNL     1      30.220  14.447   0.995  0.00  0.00    +0.240 C 
BRANCH   6   7
ATOM      7  C   UNL     1      30.092  13.741   2.359  0.00  0.00    +0.100 C 
BRANCH   7   9
ATOM      8  N   UNL     1      27.836  13.639   3.374  0.00  0.00    -0.134 NA
ATOM      9  C   UNL     1      28.756  13.131   2.500  0.00  0.00    +0.087 A 
ATOM     10  C   UNL     1      28.213  12.045   1.858  0.00  0.00    +0.146 A 
ATOM     11  N   UNL     1      26.945  11.919   2.384  0.00  0.00    -0.155 N 
ATOM     12  C   UNL     1      25.973  10.927   2.060  0.00  0.00    +0.416 C 
ATOM     13  N   UNL     1      24.786  10.967   2.678  0.00  0.00    +0.041 NA
ATOM     14  C   UNL     1      23.939   9.999   2.334  0.00  0.00    +0.339 C 
ATOM     15  C   UNL     1      22.599   9.982   3.001  0.00  0.00    +0.149 C 
ATOM     16  N   UNL     1      24.206   9.040   1.449  0.00  0.00    +0.007 NA
ATOM     17  C   UNL     1      25.413   9.082   0.906  0.00  0.00    +0.386 C 
ATOM     18  N   UNL     1      25.733   8.100  -0.007  0.00  0.00    -0.296 N 
ATOM     19  H   UNL     1      24.897   7.695  -0.405  0.00  0.00    +0.148 HD
ATOM     20  H   UNL     1      26.450   8.413  -0.647  0.00  0.00    +0.148 HD
ATOM     21  N   UNL     1      26.325  10.005   1.152  0.00  0.00    -0.290 NA
ATOM     22  N   UNL     1      26.735  12.901   3.297  0.00  0.00    -0.056 NA
ENDBRANCH   7   9
ENDBRANCH   6   7
ENDBRANCH   5   6
ENDBRANCH   1   5
BRANCH   2  23
ATOM     23  C   UNL     1      26.921  13.439  -1.093  0.00  0.00    +0.152 C 
BRANCH  23  24
ATOM     24  C   UNL     1      26.968  12.613  -2.395  0.00  0.00    +0.193 C 
ATOM     25  O   UNL     1      27.059  11.225  -2.003  0.00  0.00    -0.219 OA
BRANCH  24  26
ATOM     26  C   UNL     1      25.736  12.671  -3.324  0.00  0.00    +0.212 C 
ATOM     27  O   UNL     1      25.425  11.361  -3.827  0.00  0.00    -0.218 OA
BRANCH  26  28
ATOM     28  C   UNL     1      24.453  13.259  -2.622  0.00  0.00    +0.171 C 
ATOM     29  O   UNL     1      23.346  12.365  -2.666  0.00  0.00    -0.343 OA
ATOM     30  C   UNL     1      22.033  12.718  -2.343  0.00  0.00    +0.220 C 
ATOM     31  C   UNL     1      21.586  13.990  -3.085  0.00  0.00    +0.076 C 
ATOM     32  C   UNL     1      22.636  15.079  -2.810  0.00  0.00    +0.177 C 
ATOM     33  O   UNL     1      22.249  16.291  -3.442  0.00  0.00    -0.221 OA
ATOM     34  C   UNL     1      24.041  14.607  -3.300  0.00  0.00    +0.155 C 
BRANCH  34  35
ATOM     35  N   UNL     1      25.040  15.642  -3.047  0.00  0.00    -0.202 NA
ATOM     36  C   UNL     1      25.847  16.300  -3.918  0.00  0.00    +0.242 C 
ATOM     37  C   UNL     1      26.574  17.527  -3.432  0.00  0.00    +0.096 C 
ATOM     38  O   UNL     1      25.965  15.885  -5.069  0.00  0.00    -0.273 OA
ENDBRANCH  34  35
BRANCH  30  39
ATOM     39  C   UNL     1      21.770  12.835  -0.744  0.00  0.00    +0.391 C 
ATOM     40  O   UNL     1      20.569  13.436  -0.633  0.00  0.00    -0.243 OA
ATOM     41  O   UNL     1      22.675  12.040  -0.161  0.00  0.00    -0.243 OA
ENDBRANCH  30  39
ENDBRANCH  26  28
ENDBRANCH  24  26
ENDBRANCH  23  24
ENDBRANCH   2  23
TORSDOF 10
