REMARK VINA RESULT:    -7.018      1.901      2.468
REMARK INTER + INTRA:         -14.883
REMARK INTER:                 -12.552
REMARK INTRA:                  -2.331
REMARK UNBOUND:                -2.327
REMARK  Name = lig_assembled_68.pdb
REMARK  14 active torsions:
REMARK  status: ('A' for Active; 'I' for Inactive)
REMARK    1  A    between atoms: _2  and  _8
REMARK    2  A    between atoms: _5  and  _6
REMARK    3  A    between atoms: _5  and  _16
REMARK    4  A    between atoms: _8  and  _9
REMARK    5  A    between atoms: _9  and  _10
REMARK    6  A    between atoms: _9  and  _15
REMARK    7  A    between atoms: _16  and  _18
REMARK    8  A    between atoms: _17  and  _22
REMARK    9  A    between atoms: _18  and  _21
REMARK   10  A    between atoms: _26  and  _36
REMARK   11  A    between atoms: _28  and  _29
REMARK   12  A    between atoms: _30  and  _32
REMARK   13  A    between atoms: _32  and  _34
REMARK   14  A    between atoms: _34  and  _36
REMARK                            x       y       z     vdW  Elec       q    Type
REMARK                         _______ _______ _______ _____ _____    ______ ____
ROOT
ATOM      1  C   UNL     1      27.656  17.538  -1.581  0.00  0.00    +0.400 C 
ATOM      2  N   UNL     1      28.042  16.439  -0.849  0.00  0.00    -0.278 N 
ATOM      3  H   UNL     1      28.289  16.853   0.105  0.00  0.00    +0.152 HD
ATOM      4  O   UNL     1      27.509  18.605  -0.991  0.00  0.00    -0.226 OA
ENDROOT
BRANCH   2   5
ATOM      5  C   UNL     1      28.247  14.995  -0.788  0.00  0.00    +0.152 C 
BRANCH   5   6
ATOM      6  C   UNL     1      29.292  14.499   0.232  0.00  0.00    +0.193 C 
ATOM      7  O   UNL     1      29.052  13.087   0.420  0.00  0.00    -0.219 OA
BRANCH   6   8
ATOM      8  C   UNL     1      30.781  14.587  -0.170  0.00  0.00    +0.212 C 
ATOM      9  O   UNL     1      31.210  15.958  -0.211  0.00  0.00    -0.218 OA
BRANCH   8  10
ATOM     10  C   UNL     1      31.737  13.788   0.796  0.00  0.00    +0.171 C 
ATOM     11  O   UNL     1      31.760  14.329   2.113  0.00  0.00    -0.343 OA
ATOM     12  C   UNL     1      32.690  13.976   3.094  0.00  0.00    +0.220 C 
ATOM     13  C   UNL     1      34.134  14.064   2.569  0.00  0.00    +0.076 C 
ATOM     14  C   UNL     1      34.208  13.233   1.277  0.00  0.00    +0.177 C 
ATOM     15  O   UNL     1      35.535  13.248   0.770  0.00  0.00    -0.221 OA
ATOM     16  C   UNL     1      33.193  13.781   0.226  0.00  0.00    +0.155 C 
BRANCH  16  17
ATOM     17  N   UNL     1      33.265  12.999  -1.005  0.00  0.00    -0.202 NA
ATOM     18  C   UNL     1      33.479  13.407  -2.282  0.00  0.00    +0.242 C 
ATOM     19  C   UNL     1      33.799  12.365  -3.322  0.00  0.00    +0.096 C 
ATOM     20  O   UNL     1      33.409  14.603  -2.557  0.00  0.00    -0.273 OA
ENDBRANCH  16  17
BRANCH  12  21
ATOM     21  C   UNL     1      32.391  12.534   3.780  0.00  0.00    +0.391 C 
ATOM     22  O   UNL     1      31.186  12.166   3.305  0.00  0.00    -0.243 OA
ATOM     23  O   UNL     1      33.554  12.125   4.302  0.00  0.00    -0.243 OA
ENDBRANCH  12  21
ENDBRANCH   8  10
ENDBRANCH   6   8
ENDBRANCH   5   6
ENDBRANCH   2   5
BRANCH   1  24
ATOM     24  O   UNL     1      27.512  17.342  -2.851  0.00  0.00    -0.450 OA
BRANCH  24  25
ATOM     25  C   UNL     1      26.487  17.309  -3.817  0.00  0.00    +0.240 C 
BRANCH  25  26
ATOM     26  C   UNL     1      26.266  15.985  -4.573  0.00  0.00    +0.100 C 
BRANCH  26  28
ATOM     27  N   UNL     1      26.485  13.689  -3.661  0.00  0.00    -0.134 NA
ATOM     28  C   UNL     1      25.873  14.917  -3.638  0.00  0.00    +0.086 A 
ATOM     29  C   UNL     1      24.910  14.917  -2.656  0.00  0.00    +0.133 A 
ATOM     30  N   UNL     1      24.989  13.668  -2.114  0.00  0.00    -0.249 N 
ATOM     31  N   UNL     1      25.929  12.929  -2.728  0.00  0.00    -0.065 NA
BRANCH  30  32
ATOM     32  C   UNL     1      24.143  13.089  -1.093  0.00  0.00    +0.181 C 
BRANCH  32  33
ATOM     33  C   UNL     1      24.894  12.068  -0.229  0.00  0.00    +0.166 C 
BRANCH  33  34
ATOM     34  C   UNL     1      24.043  11.410   0.848  0.00  0.00    -0.017 A 
ATOM     35  C   UNL     1      24.675  10.912   2.002  0.00  0.00    +0.006 A 
ATOM     36  C   UNL     1      23.930  10.324   3.027  0.00  0.00    +0.000 A 
ATOM     37  C   UNL     1      22.546  10.230   2.918  0.00  0.00    +0.000 A 
ATOM     38  C   UNL     1      21.903  10.734   1.793  0.00  0.00    +0.000 A 
ATOM     39  C   UNL     1      22.646  11.325   0.766  0.00  0.00    +0.006 A 
ENDBRANCH  33  34
BRANCH  33  40
ATOM     40  O   UNL     1      25.994  12.721   0.416  0.00  0.00    -0.385 OA
ATOM     41  H   UNL     1      26.200  12.234   1.231  0.00  0.00    +0.210 HD
ENDBRANCH  33  40
ENDBRANCH  32  33
ENDBRANCH  30  32
ENDBRANCH  26  28
ENDBRANCH  25  26
ENDBRANCH  24  25
ENDBRANCH   1  24
TORSDOF 14
