REMARK VINA RESULT:    -7.575      1.662      2.250
REMARK INTER + INTRA:         -14.044
REMARK INTER:                 -12.962
REMARK INTRA:                  -1.082
REMARK UNBOUND:                -1.598
REMARK  Name = lig_assembled_80.pdb
REMARK  11 active torsions:
REMARK  status: ('A' for Active; 'I' for Inactive)
REMARK    1  A    between atoms: _2  and  _9
REMARK    2  A    between atoms: _6  and  _7
REMARK    3  A    between atoms: _6  and  _19
REMARK    4  A    between atoms: _19  and  _21
REMARK    5  A    between atoms: _20  and  _25
REMARK    6  A    between atoms: _21  and  _24
REMARK    7  A    between atoms: _29  and  _39
REMARK    8  A    between atoms: _31  and  _32
REMARK    9  A    between atoms: _33  and  _35
REMARK   10  A    between atoms: _35  and  _37
REMARK   11  A    between atoms: _37  and  _39
REMARK                            x       y       z     vdW  Elec       q    Type
REMARK                         _______ _______ _______ _____ _____    ______ ____
ROOT
ATOM      1  C   UNL     1      28.792  17.085  -0.524  0.00  0.00    +0.400 C 
ATOM      2  N   UNL     1      29.406  15.937  -0.081  0.00  0.00    -0.278 N 
ATOM      3  H   UNL     1      29.979  16.271   0.758  0.00  0.00    +0.152 HD
ATOM      4  O   UNL     1      28.872  18.092   0.176  0.00  0.00    -0.226 OA
ENDROOT
BRANCH   1   5
ATOM      5  O   UNL     1      28.205  16.998  -1.672  0.00  0.00    -0.450 OA
BRANCH   5   6
ATOM      6  C   UNL     1      27.161  17.615  -2.388  0.00  0.00    +0.240 C 
BRANCH   6   7
ATOM      7  C   UNL     1      26.899  17.129  -3.826  0.00  0.00    +0.100 C 
BRANCH   7   9
ATOM      8  N   UNL     1      25.658  15.351  -4.994  0.00  0.00    -0.134 NA
ATOM      9  C   UNL     1      25.981  15.972  -3.820  0.00  0.00    +0.086 A 
ATOM     10  C   UNL     1      25.343  15.343  -2.775  0.00  0.00    +0.134 A 
ATOM     11  N   UNL     1      24.593  14.375  -3.389  0.00  0.00    -0.240 N 
ATOM     12  N   UNL     1      24.818  14.362  -4.720  0.00  0.00    -0.065 NA
BRANCH  11  13
ATOM     13  C   UNL     1      23.777  13.307  -2.800  0.00  0.00    +0.195 C 
ATOM     14  C   UNL     1      24.666  12.462  -1.898  0.00  0.00    +0.041 C 
ATOM     15  C   UNL     1      23.969  11.182  -1.490  0.00  0.00    +0.039 C 
ATOM     16  C   UNL     1      23.107  11.432  -0.291  0.00  0.00    -0.026 A 
ATOM     17  C   UNL     1      22.001  12.284  -0.325  0.00  0.00    +0.037 A 
ATOM     18  C   UNL     1      21.171  12.374   0.804  0.00  0.00    +0.023 A 
ATOM     19  C   UNL     1      21.497  11.722   1.992  0.00  0.00    +0.002 A 
ATOM     20  C   UNL     1      22.638  10.934   2.051  0.00  0.00    +0.000 A 
ATOM     21  N   UNL     1      21.666  13.150  -1.379  0.00  0.00    -0.284 N 
ATOM     22  H   UNL     1      20.809  13.676  -1.240  0.00  0.00    +0.155 HD
ATOM     23  C   UNL     1      23.421  10.769   0.910  0.00  0.00    +0.005 A 
ATOM     24  C   UNL     1      22.477  13.854  -2.224  0.00  0.00    +0.242 C 
ATOM     25  O   UNL     1      22.021  14.946  -2.584  0.00  0.00    -0.273 OA
ENDBRANCH  11  13
ENDBRANCH   7   9
ENDBRANCH   6   7
ENDBRANCH   5   6
ENDBRANCH   1   5
BRANCH   2  26
ATOM     26  C   UNL     1      29.610  14.498  -0.229  0.00  0.00    +0.152 C 
BRANCH  26  27
ATOM     27  C   UNL     1      31.035  13.981   0.059  0.00  0.00    +0.193 C 
ATOM     28  O   UNL     1      31.853  14.371  -1.066  0.00  0.00    -0.219 OA
BRANCH  27  29
ATOM     29  C   UNL     1      31.770  14.558   1.289  0.00  0.00    +0.212 C 
ATOM     30  O   UNL     1      30.836  15.175   2.189  0.00  0.00    -0.218 OA
BRANCH  29  31
ATOM     31  C   UNL     1      32.598  13.477   2.085  0.00  0.00    +0.171 C 
ATOM     32  O   UNL     1      32.091  13.257   3.397  0.00  0.00    -0.343 OA
ATOM     33  C   UNL     1      32.764  12.544   4.392  0.00  0.00    +0.220 C 
ATOM     34  C   UNL     1      34.210  13.040   4.569  0.00  0.00    +0.076 C 
ATOM     35  C   UNL     1      34.881  13.011   3.186  0.00  0.00    +0.177 C 
ATOM     36  O   UNL     1      36.236  13.423   3.299  0.00  0.00    -0.221 OA
ATOM     37  C   UNL     1      34.095  13.917   2.188  0.00  0.00    +0.155 C 
BRANCH  37  38
ATOM     38  N   UNL     1      34.734  13.897   0.874  0.00  0.00    -0.202 NA
ATOM     39  C   UNL     1      34.826  12.890  -0.031  0.00  0.00    +0.242 C 
ATOM     40  C   UNL     1      35.281  13.224  -1.428  0.00  0.00    +0.096 C 
ATOM     41  O   UNL     1      34.539  11.743   0.305  0.00  0.00    -0.273 OA
ENDBRANCH  37  38
BRANCH  33  42
ATOM     42  C   UNL     1      32.706  10.934   4.188  0.00  0.00    +0.391 C 
ATOM     43  O   UNL     1      31.901  10.748   3.123  0.00  0.00    -0.243 OA
ATOM     44  O   UNL     1      33.691  10.429   4.940  0.00  0.00    -0.243 OA
ENDBRANCH  33  42
ENDBRANCH  29  31
ENDBRANCH  27  29
ENDBRANCH  26  27
ENDBRANCH   2  26
TORSDOF 11
