REMARK VINA RESULT:    -6.242      1.434      1.812
REMARK INTER + INTRA:         -13.304
REMARK INTER:                 -11.874
REMARK INTRA:                  -1.429
REMARK UNBOUND:                -1.953
REMARK  Name = lig_assembled_13.pdb
REMARK  15 active torsions:
REMARK  status: ('A' for Active; 'I' for Inactive)
REMARK    1  A    between atoms: _2  and  _8
REMARK    2  A    between atoms: _4  and  _10
REMARK    3  A    between atoms: _5  and  _6
REMARK    4  A    between atoms: _5  and  _13
REMARK    5  A    between atoms: _8  and  _9
REMARK    6  A    between atoms: _9  and  _11
REMARK    7  A    between atoms: _10  and  _11
REMARK    8  A    between atoms: _13  and  _15
REMARK    9  A    between atoms: _14  and  _19
REMARK   10  A    between atoms: _15  and  _18
REMARK   11  A    between atoms: _23  and  _33
REMARK   12  A    between atoms: _25  and  _26
REMARK   13  A    between atoms: _27  and  _29
REMARK   14  A    between atoms: _29  and  _31
REMARK   15  A    between atoms: _31  and  _33
REMARK                            x       y       z     vdW  Elec       q    Type
REMARK                         _______ _______ _______ _____ _____    ______ ____
ROOT
ATOM      1  C   UNL     1      28.617  14.668   0.288  0.00  0.00    +0.152 C 
ENDROOT
BRANCH   1   3
ATOM      2  C   UNL     1      29.105  17.252  -0.441  0.00  0.00    +0.400 C 
ATOM      3  N   UNL     1      29.126  16.034   0.197  0.00  0.00    -0.278 N 
ATOM      4  H   UNL     1      29.832  16.180   0.986  0.00  0.00    +0.152 HD
ATOM      5  O   UNL     1      29.687  18.194   0.090  0.00  0.00    -0.226 OA
BRANCH   2   6
ATOM      6  O   UNL     1      28.487  17.278  -1.576  0.00  0.00    -0.450 OA
BRANCH   6   7
ATOM      7  C   UNL     1      27.171  17.345  -2.075  0.00  0.00    +0.240 C 
BRANCH   7   8
ATOM      8  C   UNL     1      26.986  17.286  -3.603  0.00  0.00    +0.100 C 
BRANCH   8  10
ATOM      9  N   UNL     1      25.939  15.719  -5.207  0.00  0.00    -0.134 NA
ATOM     10  C   UNL     1      25.971  16.279  -3.959  0.00  0.00    +0.086 A 
ATOM     11  C   UNL     1      24.950  15.754  -3.203  0.00  0.00    +0.134 A 
ATOM     12  N   UNL     1      24.291  14.930  -4.068  0.00  0.00    -0.241 N 
ATOM     13  N   UNL     1      24.915  14.876  -5.256  0.00  0.00    -0.065 NA
BRANCH  12  14
ATOM     14  C   UNL     1      23.138  14.097  -3.811  0.00  0.00    +0.265 C 
BRANCH  14  15
ATOM     15  C   UNL     1      22.126  14.789  -2.943  0.00  0.00    +0.329 C 
ATOM     16  O   UNL     1      21.519  15.815  -3.209  0.00  0.00    -0.249 OA
BRANCH  15  17
ATOM     17  O   UNL     1      22.060  14.142  -1.739  0.00  0.00    -0.464 OA
BRANCH  17  18
ATOM     18  C   UNL     1      21.085  13.090  -1.672  0.00  0.00    +0.229 C 
ATOM     19  C   UNL     1      20.911  12.711  -0.211  0.00  0.00    +0.048 C 
ENDBRANCH  17  18
ENDBRANCH  15  17
ENDBRANCH  14  15
ENDBRANCH  12  14
ENDBRANCH   8  10
ENDBRANCH   7   8
ENDBRANCH   6   7
ENDBRANCH   2   6
ENDBRANCH   1   3
BRANCH   1  20
ATOM     20  C   UNL     1      29.044  13.865   1.534  0.00  0.00    +0.193 C 
ATOM     21  O   UNL     1      27.872  13.742   2.370  0.00  0.00    -0.219 OA
BRANCH  20  22
ATOM     22  C   UNL     1      29.519  12.411   1.320  0.00  0.00    +0.212 C 
ATOM     23  O   UNL     1      29.584  12.106  -0.082  0.00  0.00    -0.218 OA
BRANCH  22  24
ATOM     24  C   UNL     1      30.925  12.112   1.967  0.00  0.00    +0.171 C 
ATOM     25  O   UNL     1      30.879  12.082   3.390  0.00  0.00    -0.343 OA
ATOM     26  C   UNL     1      32.005  12.082   4.215  0.00  0.00    +0.220 C 
ATOM     27  C   UNL     1      32.987  13.207   3.842  0.00  0.00    +0.076 C 
ATOM     28  C   UNL     1      33.285  13.080   2.339  0.00  0.00    +0.177 C 
ATOM     29  O   UNL     1      34.221  14.075   1.948  0.00  0.00    -0.221 OA
ATOM     30  C   UNL     1      31.964  13.191   1.517  0.00  0.00    +0.155 C 
BRANCH  30  31
ATOM     31  N   UNL     1      32.244  13.078   0.088  0.00  0.00    -0.202 NA
ATOM     32  C   UNL     1      32.356  14.049  -0.854  0.00  0.00    +0.242 C 
ATOM     33  C   UNL     1      32.941  13.683  -2.193  0.00  0.00    +0.096 C 
ATOM     34  O   UNL     1      31.983  15.192  -0.596  0.00  0.00    -0.273 OA
ENDBRANCH  30  31
BRANCH  26  35
ATOM     35  C   UNL     1      32.751  10.641   4.292  0.00  0.00    +0.391 C 
ATOM     36  O   UNL     1      33.965  10.905   4.811  0.00  0.00    -0.243 OA
ATOM     37  O   UNL     1      31.797   9.720   4.103  0.00  0.00    -0.243 OA
ENDBRANCH  26  35
ENDBRANCH  22  24
ENDBRANCH  20  22
ENDBRANCH   1  20
TORSDOF 14
