REMARK VINA RESULT:    -6.912      2.158      4.130
REMARK INTER + INTRA:         -14.357
REMARK INTER:                 -12.797
REMARK INTRA:                  -1.560
REMARK UNBOUND:                -2.596
REMARK  Name = lig_assembled_4.pdb
REMARK  14 active torsions:
REMARK  status: ('A' for Active; 'I' for Inactive)
REMARK    1  A    between atoms: _2  and  _8
REMARK    2  A    between atoms: _5  and  _6
REMARK    3  A    between atoms: _5  and  _16
REMARK    4  A    between atoms: _9  and  _10
REMARK    5  A    between atoms: _10  and  _11
REMARK    6  A    between atoms: _10  and  _12
REMARK    7  A    between atoms: _16  and  _18
REMARK    8  A    between atoms: _17  and  _22
REMARK    9  A    between atoms: _18  and  _21
REMARK   10  A    between atoms: _26  and  _36
REMARK   11  A    between atoms: _28  and  _29
REMARK   12  A    between atoms: _30  and  _32
REMARK   13  A    between atoms: _32  and  _34
REMARK   14  A    between atoms: _34  and  _36
REMARK                            x       y       z     vdW  Elec       q    Type
REMARK                         _______ _______ _______ _____ _____    ______ ____
ROOT
ATOM      1  C   UNL     1      28.289  17.603  -0.577  0.00  0.00    +0.400 C 
ATOM      2  N   UNL     1      29.515  17.527   0.042  0.00  0.00    -0.278 N 
ATOM      3  H   UNL     1      29.497  18.349   0.726  0.00  0.00    +0.152 HD
ATOM      4  O   UNL     1      27.459  18.388  -0.125  0.00  0.00    -0.226 OA
ENDROOT
BRANCH   2   5
ATOM      5  C   UNL     1      30.793  16.836   0.192  0.00  0.00    +0.152 C 
BRANCH   5   6
ATOM      6  C   UNL     1      30.757  15.302   0.041  0.00  0.00    +0.193 C 
ATOM      7  O   UNL     1      31.713  14.963  -0.988  0.00  0.00    -0.219 OA
BRANCH   6   8
ATOM      8  C   UNL     1      31.185  14.454   1.259  0.00  0.00    +0.212 C 
ATOM      9  O   UNL     1      31.481  15.301   2.382  0.00  0.00    -0.218 OA
BRANCH   8  10
ATOM     10  C   UNL     1      30.100  13.398   1.697  0.00  0.00    +0.171 C 
ATOM     11  O   UNL     1      28.784  13.941   1.720  0.00  0.00    -0.343 OA
ATOM     12  C   UNL     1      27.680  13.309   2.296  0.00  0.00    +0.220 C 
ATOM     13  C   UNL     1      27.975  12.842   3.732  0.00  0.00    +0.076 C 
ATOM     14  C   UNL     1      29.256  11.993   3.688  0.00  0.00    +0.177 C 
ATOM     15  O   UNL     1      29.553  11.502   4.987  0.00  0.00    -0.221 OA
ATOM     16  C   UNL     1      30.439  12.836   3.117  0.00  0.00    +0.155 C 
BRANCH  16  17
ATOM     17  N   UNL     1      31.660  12.035   3.080  0.00  0.00    -0.202 NA
ATOM     18  C   UNL     1      32.811  12.175   3.785  0.00  0.00    +0.242 C 
ATOM     19  C   UNL     1      33.802  11.040   3.771  0.00  0.00    +0.096 C 
ATOM     20  O   UNL     1      33.016  13.212   4.414  0.00  0.00    -0.273 OA
ENDBRANCH  16  17
BRANCH  12  21
ATOM     21  C   UNL     1      27.077  12.104   1.388  0.00  0.00    +0.391 C 
ATOM     22  O   UNL     1      26.295  11.396   2.225  0.00  0.00    -0.243 OA
ATOM     23  O   UNL     1      27.333  12.436   0.116  0.00  0.00    -0.243 OA
ENDBRANCH  12  21
ENDBRANCH   8  10
ENDBRANCH   6   8
ENDBRANCH   5   6
ENDBRANCH   2   5
BRANCH   1  24
ATOM     24  O   UNL     1      28.138  16.846  -1.614  0.00  0.00    -0.450 OA
BRANCH  24  25
ATOM     25  C   UNL     1      27.281  15.830  -2.079  0.00  0.00    +0.240 C 
BRANCH  25  26
ATOM     26  C   UNL     1      26.299  16.191  -3.210  0.00  0.00    +0.100 C 
BRANCH  26  28
ATOM     27  N   UNL     1      25.033  14.077  -3.329  0.00  0.00    -0.134 NA
ATOM     28  C   UNL     1      25.052  15.415  -3.085  0.00  0.00    +0.086 A 
ATOM     29  C   UNL     1      23.779  15.835  -2.773  0.00  0.00    +0.139 A 
ATOM     30  N   UNL     1      22.981  14.724  -2.969  0.00  0.00    -0.220 N 
ATOM     31  N   UNL     1      23.775  13.664  -3.230  0.00  0.00    -0.061 NA
BRANCH  30  32
ATOM     32  C   UNL     1      21.555  14.663  -2.940  0.00  0.00    +0.070 A 
ATOM     33  C   UNL     1      20.829  13.707  -2.179  0.00  0.00    -0.019 A 
ATOM     34  C   UNL     1      19.419  13.739  -2.265  0.00  0.00    +0.006 A 
ATOM     35  C   UNL     1      18.746  14.658  -3.073  0.00  0.00    +0.000 A 
ATOM     36  C   UNL     1      19.464  15.591  -3.804  0.00  0.00    +0.002 A 
ATOM     37  C   UNL     1      20.856  15.594  -3.741  0.00  0.00    +0.028 A 
BRANCH  33  38
ATOM     38  C   UNL     1      21.476  12.646  -1.286  0.00  0.00    +0.015 C 
ATOM     39  C   UNL     1      21.409  11.210  -1.829  0.00  0.00    +0.012 C 
ATOM     40  C   UNL     1      20.865  12.699   0.116  0.00  0.00    +0.012 C 
ENDBRANCH  33  38
ENDBRANCH  30  32
ENDBRANCH  26  28
ENDBRANCH  25  26
ENDBRANCH  24  25
ENDBRANCH   1  24
TORSDOF 12
