REMARK VINA RESULT:    -6.497      2.171      4.144
REMARK INTER + INTRA:         -14.695
REMARK INTER:                 -12.004
REMARK INTRA:                  -2.691
REMARK UNBOUND:                -2.880
REMARK  Name = lig_assembled_21.pdb
REMARK  15 active torsions:
REMARK  status: ('A' for Active; 'I' for Inactive)
REMARK    1  A    between atoms: _2  and  _8
REMARK    2  A    between atoms: _5  and  _6
REMARK    3  A    between atoms: _5  and  _18
REMARK    4  A    between atoms: _8  and  _9
REMARK    5  A    between atoms: _10  and  _17
REMARK    6  A    between atoms: _11  and  _12
REMARK    7  A    between atoms: _11  and  _17
REMARK    8  A    between atoms: _18  and  _20
REMARK    9  A    between atoms: _19  and  _24
REMARK   10  A    between atoms: _20  and  _23
REMARK   11  A    between atoms: _28  and  _38
REMARK   12  A    between atoms: _30  and  _31
REMARK   13  A    between atoms: _32  and  _34
REMARK   14  A    between atoms: _34  and  _36
REMARK   15  A    between atoms: _36  and  _38
REMARK                            x       y       z     vdW  Elec       q    Type
REMARK                         _______ _______ _______ _____ _____    ______ ____
ROOT
ATOM      1  C   UNL     1      27.991  17.095  -1.092  0.00  0.00    +0.400 C 
ATOM      2  N   UNL     1      28.258  15.839  -0.600  0.00  0.00    -0.278 N 
ATOM      3  H   UNL     1      28.580  16.029   0.401  0.00  0.00    +0.152 HD
ATOM      4  O   UNL     1      27.993  18.038  -0.304  0.00  0.00    -0.226 OA
ENDROOT
BRANCH   2   5
ATOM      5  C   UNL     1      28.284  14.396  -0.823  0.00  0.00    +0.152 C 
BRANCH   5   6
ATOM      6  C   UNL     1      29.619  13.686  -0.518  0.00  0.00    +0.193 C 
ATOM      7  O   UNL     1      30.635  14.361  -1.291  0.00  0.00    -0.219 OA
BRANCH   6   8
ATOM      8  C   UNL     1      30.142  13.739   0.935  0.00  0.00    +0.212 C 
ATOM      9  O   UNL     1      29.791  14.989   1.549  0.00  0.00    -0.218 OA
BRANCH   8  10
ATOM     10  C   UNL     1      29.600  12.565   1.837  0.00  0.00    +0.171 C 
ATOM     11  O   UNL     1      28.187  12.614   2.008  0.00  0.00    -0.343 OA
ATOM     12  C   UNL     1      27.480  11.854   2.943  0.00  0.00    +0.220 C 
ATOM     13  C   UNL     1      28.087  11.972   4.352  0.00  0.00    +0.076 C 
ATOM     14  C   UNL     1      29.583  11.634   4.241  0.00  0.00    +0.177 C 
ATOM     15  O   UNL     1      30.186  11.690   5.525  0.00  0.00    -0.221 OA
ATOM     16  C   UNL     1      30.282  12.609   3.243  0.00  0.00    +0.155 C 
BRANCH  16  17
ATOM     17  N   UNL     1      31.705  12.295   3.140  0.00  0.00    -0.202 NA
ATOM     18  C   UNL     1      32.783  13.114   3.233  0.00  0.00    +0.242 C 
ATOM     19  C   UNL     1      34.145  12.489   3.384  0.00  0.00    +0.096 C 
ATOM     20  O   UNL     1      32.626  14.333   3.194  0.00  0.00    -0.273 OA
ENDBRANCH  16  17
BRANCH  12  21
ATOM     21  C   UNL     1      27.290  10.301   2.503  0.00  0.00    +0.391 C 
ATOM     22  O   UNL     1      26.717   9.706   3.568  0.00  0.00    -0.243 OA
ATOM     23  O   UNL     1      27.486  10.265   1.180  0.00  0.00    -0.243 OA
ENDBRANCH  12  21
ENDBRANCH   8  10
ENDBRANCH   6   8
ENDBRANCH   5   6
ENDBRANCH   2   5
BRANCH   1  24
ATOM     24  O   UNL     1      27.790  17.167  -2.367  0.00  0.00    -0.450 OA
BRANCH  24  25
ATOM     25  C   UNL     1      26.718  17.272  -3.275  0.00  0.00    +0.240 C 
BRANCH  25  26
ATOM     26  C   UNL     1      26.360  16.022  -4.101  0.00  0.00    +0.100 C 
BRANCH  26  28
ATOM     27  N   UNL     1      24.520  15.635  -2.497  0.00  0.00    -0.134 NA
ATOM     28  C   UNL     1      25.488  15.126  -3.318  0.00  0.00    +0.086 A 
ATOM     29  C   UNL     1      25.438  13.751  -3.275  0.00  0.00    +0.134 A 
ATOM     30  N   UNL     1      24.357  13.484  -2.479  0.00  0.00    -0.247 N 
ATOM     31  N   UNL     1      23.836  14.622  -1.987  0.00  0.00    -0.065 NA
BRANCH  30  32
ATOM     32  C   UNL     1      23.766  12.169  -2.249  0.00  0.00    +0.184 C 
BRANCH  32  33
ATOM     33  C   UNL     1      23.349  11.877  -0.828  0.00  0.00    +0.016 A 
ATOM     34  C   UNL     1      21.998  11.876  -0.435  0.00  0.00    +0.137 A 
ATOM     35  C   UNL     1      21.632  11.600   0.882  0.00  0.00    +0.047 A 
ATOM     36  C   UNL     1      22.617  11.304   1.825  0.00  0.00    +0.004 A 
ATOM     37  C   UNL     1      23.961  11.313   1.459  0.00  0.00    +0.001 A 
ATOM     38  C   UNL     1      24.325  11.595   0.142  0.00  0.00    +0.009 A 
BRANCH  34  39
ATOM     39  O   UNL     1      21.048  12.251  -1.415  0.00  0.00    -0.426 OA
BRANCH  39  40
ATOM     40  C   UNL     1      20.397  13.486  -1.398  0.00  0.00    +0.309 C 
ATOM     41  O   UNL     1      19.973  14.086  -0.419  0.00  0.00    -0.251 OA
ATOM     42  C   UNL     1      20.357  14.035  -2.794  0.00  0.00    +0.136 C 
ENDBRANCH  39  40
ENDBRANCH  34  39
ENDBRANCH  32  33
ENDBRANCH  30  32
ENDBRANCH  26  28
ENDBRANCH  25  26
ENDBRANCH  24  25
ENDBRANCH   1  24
TORSDOF 14
