REMARK VINA RESULT:    -6.460     21.152     24.923
REMARK INTER + INTRA:         -12.238
REMARK INTER:                 -10.614
REMARK INTRA:                  -1.624
REMARK UNBOUND:                -1.624
REMARK  Name = lig_assembled_3.pdb
REMARK  11 active torsions:
REMARK  status: ('A' for Active; 'I' for Inactive)
REMARK    1  A    between atoms: _2  and  _8
REMARK    2  A    between atoms: _5  and  _6
REMARK    3  A    between atoms: _5  and  _13
REMARK    4  A    between atoms: _13  and  _15
REMARK    5  A    between atoms: _14  and  _19
REMARK    6  A    between atoms: _15  and  _18
REMARK    7  A    between atoms: _23  and  _33
REMARK    8  A    between atoms: _25  and  _26
REMARK    9  A    between atoms: _27  and  _29
REMARK   10  A    between atoms: _29  and  _31
REMARK   11  A    between atoms: _31  and  _33
REMARK                            x       y       z     vdW  Elec       q    Type
REMARK                         _______ _______ _______ _____ _____    ______ ____
ROOT
ATOM      1  C   UNL     1      45.047  23.720  10.846  0.00  0.00    +0.152 C 
ENDROOT
BRANCH   1   3
ATOM      2  C   UNL     1      44.373  26.359  11.014  0.00  0.00    +0.400 C 
ATOM      3  N   UNL     1      44.417  25.027  10.676  0.00  0.00    -0.278 N 
ATOM      4  H   UNL     1      43.634  24.929   9.955  0.00  0.00    +0.152 HD
ATOM      5  O   UNL     1      43.657  27.102  10.347  0.00  0.00    -0.226 OA
BRANCH   2   6
ATOM      6  O   UNL     1      45.081  26.700  12.040  0.00  0.00    -0.450 OA
BRANCH   6   7
ATOM      7  C   UNL     1      46.420  26.998  12.363  0.00  0.00    +0.240 C 
BRANCH   7   8
ATOM      8  C   UNL     1      46.994  26.380  13.652  0.00  0.00    +0.100 C 
BRANCH   8  10
ATOM      9  N   UNL     1      45.586  28.076  14.775  0.00  0.00    -0.134 NA
ATOM     10  C   UNL     1      46.281  26.903  14.832  0.00  0.00    +0.086 A 
ATOM     11  C   UNL     1      46.170  26.375  16.098  0.00  0.00    +0.139 A 
ATOM     12  N   UNL     1      45.365  27.257  16.783  0.00  0.00    -0.220 N 
ATOM     13  N   UNL     1      45.037  28.288  15.964  0.00  0.00    -0.061 NA
BRANCH  12  14
ATOM     14  C   UNL     1      44.888  27.173  18.117  0.00  0.00    +0.067 A 
ATOM     15  C   UNL     1      45.265  28.124  19.077  0.00  0.00    +0.028 A 
ATOM     16  C   UNL     1      44.808  28.007  20.393  0.00  0.00    +0.002 A 
ATOM     17  C   UNL     1      43.976  26.950  20.756  0.00  0.00    +0.000 A 
ATOM     18  C   UNL     1      43.592  26.007  19.804  0.00  0.00    +0.002 A 
ATOM     19  C   UNL     1      44.043  26.116  18.486  0.00  0.00    +0.028 A 
ENDBRANCH  12  14
ENDBRANCH   8  10
ENDBRANCH   7   8
ENDBRANCH   6   7
ENDBRANCH   2   6
ENDBRANCH   1   3
BRANCH   1  20
ATOM     20  C   UNL     1      46.362  23.494  10.072  0.00  0.00    +0.193 C 
ATOM     21  O   UNL     1      46.770  24.783   9.562  0.00  0.00    -0.219 OA
BRANCH  20  22
ATOM     22  C   UNL     1      47.585  22.991  10.871  0.00  0.00    +0.212 C 
ATOM     23  O   UNL     1      48.396  24.098  11.297  0.00  0.00    -0.218 OA
BRANCH  22  24
ATOM     24  C   UNL     1      47.195  22.136  12.136  0.00  0.00    +0.171 C 
ATOM     25  O   UNL     1      47.846  22.582  13.321  0.00  0.00    -0.343 OA
ATOM     26  C   UNL     1      47.874  21.869  14.522  0.00  0.00    +0.220 C 
ATOM     27  C   UNL     1      48.322  20.413  14.309  0.00  0.00    +0.076 C 
ATOM     28  C   UNL     1      47.425  19.807  13.217  0.00  0.00    +0.177 C 
ATOM     29  O   UNL     1      47.772  18.445  13.009  0.00  0.00    -0.221 OA
ATOM     30  C   UNL     1      47.552  20.632  11.899  0.00  0.00    +0.155 C 
BRANCH  30  31
ATOM     31  N   UNL     1      46.706  20.055  10.857  0.00  0.00    -0.202 NA
ATOM     32  C   UNL     1      47.054  19.452   9.692  0.00  0.00    +0.242 C 
ATOM     33  C   UNL     1      45.998  18.685   8.940  0.00  0.00    +0.096 C 
ATOM     34  O   UNL     1      48.210  19.544   9.282  0.00  0.00    -0.273 OA
ENDBRANCH  30  31
BRANCH  26  35
ATOM     35  C   UNL     1      46.482  21.950  15.355  0.00  0.00    +0.391 C 
ATOM     36  O   UNL     1      46.608  21.030  16.332  0.00  0.00    -0.243 OA
ATOM     37  O   UNL     1      45.878  23.076  14.958  0.00  0.00    -0.243 OA
ENDBRANCH  26  35
ENDBRANCH  22  24
ENDBRANCH  20  22
ENDBRANCH   1  20
TORSDOF 11
