REMARK VINA RESULT:    -7.280      1.534      2.015
REMARK INTER + INTRA:         -15.062
REMARK INTER:                 -13.769
REMARK INTRA:                  -1.293
REMARK UNBOUND:                -1.823
REMARK  Name = lig_assembled_12.pdb
REMARK  14 active torsions:
REMARK  status: ('A' for Active; 'I' for Inactive)
REMARK    1  A    between atoms: _2  and  _8
REMARK    2  A    between atoms: _5  and  _6
REMARK    3  A    between atoms: _5  and  _16
REMARK    4  A    between atoms: _8  and  _15
REMARK    5  A    between atoms: _9  and  _10
REMARK    6  A    between atoms: _9  and  _15
REMARK    7  A    between atoms: _16  and  _18
REMARK    8  A    between atoms: _17  and  _22
REMARK    9  A    between atoms: _18  and  _21
REMARK   10  A    between atoms: _26  and  _36
REMARK   11  A    between atoms: _28  and  _29
REMARK   12  A    between atoms: _30  and  _32
REMARK   13  A    between atoms: _32  and  _34
REMARK   14  A    between atoms: _34  and  _36
REMARK                            x       y       z     vdW  Elec       q    Type
REMARK                         _______ _______ _______ _____ _____    ______ ____
ROOT
ATOM      1  C   UNL     1      27.982  17.270  -0.905  0.00  0.00    +0.400 C 
ATOM      2  N   UNL     1      28.404  16.248  -0.087  0.00  0.00    -0.278 N 
ATOM      3  H   UNL     1      28.720  16.755   0.799  0.00  0.00    +0.152 HD
ATOM      4  O   UNL     1      27.888  18.396  -0.423  0.00  0.00    -0.226 OA
ENDROOT
BRANCH   2   5
ATOM      5  C   UNL     1      28.595  14.814   0.115  0.00  0.00    +0.152 C 
BRANCH   5   6
ATOM      6  C   UNL     1      30.021  14.366   0.497  0.00  0.00    +0.193 C 
ATOM      7  O   UNL     1      29.963  12.939   0.715  0.00  0.00    -0.219 OA
BRANCH   6   8
ATOM      8  C   UNL     1      31.135  14.550  -0.557  0.00  0.00    +0.212 C 
ATOM      9  O   UNL     1      31.589  15.913  -0.574  0.00  0.00    -0.218 OA
BRANCH   8  10
ATOM     10  C   UNL     1      32.377  13.607  -0.323  0.00  0.00    +0.171 C 
ATOM     11  O   UNL     1      33.177  14.019   0.780  0.00  0.00    -0.343 OA
ATOM     12  C   UNL     1      34.451  13.519   1.059  0.00  0.00    +0.220 C 
ATOM     13  C   UNL     1      35.367  13.569  -0.176  0.00  0.00    +0.076 C 
ATOM     14  C   UNL     1      34.631  12.860  -1.326  0.00  0.00    +0.177 C 
ATOM     15  O   UNL     1      35.453  12.842  -2.484  0.00  0.00    -0.221 OA
ATOM     16  C   UNL     1      33.268  13.566  -1.607  0.00  0.00    +0.155 C 
BRANCH  16  17
ATOM     17  N   UNL     1      32.570  12.900  -2.704  0.00  0.00    -0.202 NA
ATOM     18  C   UNL     1      32.613  13.146  -4.038  0.00  0.00    +0.242 C 
ATOM     19  C   UNL     1      32.025  12.123  -4.974  0.00  0.00    +0.096 C 
ATOM     20  O   UNL     1      33.126  14.186  -4.447  0.00  0.00    -0.273 OA
ENDBRANCH  16  17
BRANCH  12  21
ATOM     21  C   UNL     1      34.433  12.040   1.731  0.00  0.00    +0.391 C 
ATOM     22  O   UNL     1      33.129  11.756   1.912  0.00  0.00    -0.243 OA
ATOM     23  O   UNL     1      35.669  11.548   1.574  0.00  0.00    -0.243 OA
ENDBRANCH  12  21
ENDBRANCH   8  10
ENDBRANCH   6   8
ENDBRANCH   5   6
ENDBRANCH   2   5
BRANCH   1  24
ATOM     24  O   UNL     1      27.751  16.944  -2.134  0.00  0.00    -0.450 OA
BRANCH  24  25
ATOM     25  C   UNL     1      26.897  17.309  -3.193  0.00  0.00    +0.240 C 
BRANCH  25  26
ATOM     26  C   UNL     1      26.561  16.229  -4.240  0.00  0.00    +0.100 C 
BRANCH  26  28
ATOM     27  N   UNL     1      24.561  14.912  -4.881  0.00  0.00    -0.134 NA
ATOM     28  C   UNL     1      25.274  15.585  -3.922  0.00  0.00    +0.086 A 
ATOM     29  C   UNL     1      24.589  15.527  -2.731  0.00  0.00    +0.136 A 
ATOM     30  N   UNL     1      23.455  14.835  -3.034  0.00  0.00    -0.226 N 
ATOM     31  N   UNL     1      23.451  14.445  -4.323  0.00  0.00    -0.063 NA
BRANCH  30  32
ATOM     32  C   UNL     1      22.359  14.460  -2.156  0.00  0.00    +0.305 C 
BRANCH  32  33
ATOM     33  O   UNL     1      21.853  13.189  -2.556  0.00  0.00    -0.353 OA
BRANCH  33  34
ATOM     34  C   UNL     1      20.699  12.824  -1.812  0.00  0.00    +0.197 C 
BRANCH  34  35
ATOM     35  C   UNL     1      21.157  12.000  -0.641  0.00  0.00    -0.022 A 
ATOM     36  C   UNL     1      21.050  12.498   0.666  0.00  0.00    +0.006 A 
ATOM     37  C   UNL     1      21.512  11.748   1.750  0.00  0.00    +0.000 A 
ATOM     38  C   UNL     1      22.091  10.500   1.539  0.00  0.00    +0.000 A 
ATOM     39  C   UNL     1      22.214   9.999   0.243  0.00  0.00    +0.000 A 
ATOM     40  C   UNL     1      21.753  10.747  -0.842  0.00  0.00    +0.006 A 
ENDBRANCH  34  35
ENDBRANCH  33  34
ENDBRANCH  32  33
ENDBRANCH  30  32
ENDBRANCH  26  28
ENDBRANCH  25  26
ENDBRANCH  24  25
ENDBRANCH   1  24
TORSDOF 14
