REMARK VINA RESULT:    -6.016      1.353      3.600
REMARK INTER + INTRA:         -12.876
REMARK INTER:                 -11.419
REMARK INTRA:                  -1.456
REMARK UNBOUND:                -2.287
REMARK  Name = lig_assembled_67.pdb
REMARK  13 active torsions:
REMARK  status: ('A' for Active; 'I' for Inactive)
REMARK    1  A    between atoms: _2  and  _8
REMARK    2  A    between atoms: _5  and  _6
REMARK    3  A    between atoms: _5  and  _14
REMARK    4  A    between atoms: _8  and  _9
REMARK    5  A    between atoms: _9  and  _10
REMARK    6  A    between atoms: _14  and  _16
REMARK    7  A    between atoms: _15  and  _20
REMARK    8  A    between atoms: _16  and  _19
REMARK    9  A    between atoms: _24  and  _34
REMARK   10  A    between atoms: _26  and  _27
REMARK   11  A    between atoms: _28  and  _30
REMARK   12  A    between atoms: _30  and  _32
REMARK   13  A    between atoms: _32  and  _34
REMARK                            x       y       z     vdW  Elec       q    Type
REMARK                         _______ _______ _______ _____ _____    ______ ____
ROOT
ATOM      1  C   UNL     1      27.840  17.405  -0.762  0.00  0.00    +0.400 C 
ATOM      2  N   UNL     1      28.476  16.468   0.017  0.00  0.00    -0.278 N 
ATOM      3  H   UNL     1      28.650  16.986   0.935  0.00  0.00    +0.152 HD
ATOM      4  O   UNL     1      27.476  18.450  -0.230  0.00  0.00    -0.226 OA
ENDROOT
BRANCH   2   5
ATOM      5  C   UNL     1      28.996  15.109   0.155  0.00  0.00    +0.152 C 
BRANCH   5   6
ATOM      6  C   UNL     1      30.354  14.830  -0.520  0.00  0.00    +0.193 C 
ATOM      7  O   UNL     1      31.080  16.080  -0.526  0.00  0.00    -0.219 OA
BRANCH   6   8
ATOM      8  C   UNL     1      31.308  13.835   0.178  0.00  0.00    +0.212 C 
ATOM      9  O   UNL     1      30.649  12.575   0.391  0.00  0.00    -0.218 OA
BRANCH   8  10
ATOM     10  C   UNL     1      32.639  13.577  -0.626  0.00  0.00    +0.171 C 
ATOM     11  O   UNL     1      32.417  12.866  -1.839  0.00  0.00    -0.343 OA
ATOM     12  C   UNL     1      33.430  12.297  -2.616  0.00  0.00    +0.220 C 
ATOM     13  C   UNL     1      34.374  11.423  -1.772  0.00  0.00    +0.076 C 
ATOM     14  C   UNL     1      34.865  12.278  -0.592  0.00  0.00    +0.177 C 
ATOM     15  O   UNL     1      35.774  11.528   0.201  0.00  0.00    -0.221 OA
ATOM     16  C   UNL     1      33.652  12.774   0.254  0.00  0.00    +0.155 C 
BRANCH  16  17
ATOM     17  N   UNL     1      34.115  13.581   1.380  0.00  0.00    -0.202 NA
ATOM     18  C   UNL     1      33.883  13.431   2.709  0.00  0.00    +0.242 C 
ATOM     19  C   UNL     1      34.720  14.228   3.676  0.00  0.00    +0.096 C 
ATOM     20  O   UNL     1      33.006  12.657   3.089  0.00  0.00    -0.273 OA
ENDBRANCH  16  17
BRANCH  12  21
ATOM     21  C   UNL     1      34.254  13.383  -3.500  0.00  0.00    +0.391 C 
ATOM     22  O   UNL     1      35.397  12.757  -3.842  0.00  0.00    -0.243 OA
ATOM     23  O   UNL     1      33.381  14.351  -3.804  0.00  0.00    -0.243 OA
ENDBRANCH  12  21
ENDBRANCH   8  10
ENDBRANCH   6   8
ENDBRANCH   5   6
ENDBRANCH   2   5
BRANCH   1  24
ATOM     24  O   UNL     1      27.711  17.100  -2.012  0.00  0.00    -0.450 OA
BRANCH  24  25
ATOM     25  C   UNL     1      26.865  17.388  -3.100  0.00  0.00    +0.240 C 
BRANCH  25  26
ATOM     26  C   UNL     1      26.349  16.200  -3.933  0.00  0.00    +0.100 C 
BRANCH  26  28
ATOM     27  N   UNL     1      25.729  14.327  -2.439  0.00  0.00    -0.134 NA
ATOM     28  C   UNL     1      25.354  15.427  -3.166  0.00  0.00    +0.086 A 
ATOM     29  C   UNL     1      23.997  15.616  -3.029  0.00  0.00    +0.133 A 
ATOM     30  N   UNL     1      23.606  14.598  -2.212  0.00  0.00    -0.251 N 
ATOM     31  N   UNL     1      24.645  13.824  -1.861  0.00  0.00    -0.065 NA
BRANCH  30  32
ATOM     32  C   UNL     1      22.279  14.308  -1.717  0.00  0.00    +0.150 C 
BRANCH  32  33
ATOM     33  C   UNL     1      21.727  12.966  -2.192  0.00  0.00    +0.084 C 
BRANCH  33  34
ATOM     34  C   UNL     1      21.412  12.025  -1.037  0.00  0.00    +0.252 C 
ATOM     35  O   UNL     1      21.682  10.671  -1.416  0.00  0.00    -0.349 OA
ATOM     36  C   UNL     1      22.028  10.051  -0.180  0.00  0.00    +0.191 C 
ATOM     37  C   UNL     1      22.781  11.132   0.553  0.00  0.00    +0.191 C 
ATOM     38  O   UNL     1      22.201  12.359   0.110  0.00  0.00    -0.349 OA
ENDBRANCH  33  34
ENDBRANCH  32  33
ENDBRANCH  30  32
ENDBRANCH  26  28
ENDBRANCH  25  26
ENDBRANCH  24  25
ENDBRANCH   1  24
TORSDOF 13
