REMARK VINA RESULT:    -7.071      3.598      9.000
REMARK INTER + INTRA:         -12.936
REMARK INTER:                 -11.617
REMARK INTRA:                  -1.319
REMARK UNBOUND:                -1.318
REMARK  Name = lig_assembled_40.pdb
REMARK  12 active torsions:
REMARK  status: ('A' for Active; 'I' for Inactive)
REMARK    1  A    between atoms: _2  and  _8
REMARK    2  A    between atoms: _5  and  _6
REMARK    3  A    between atoms: _5  and  _14
REMARK    4  A    between atoms: _11  and  _12
REMARK    5  A    between atoms: _14  and  _16
REMARK    6  A    between atoms: _15  and  _20
REMARK    7  A    between atoms: _16  and  _19
REMARK    8  A    between atoms: _24  and  _34
REMARK    9  A    between atoms: _26  and  _27
REMARK   10  A    between atoms: _28  and  _30
REMARK   11  A    between atoms: _30  and  _32
REMARK   12  A    between atoms: _32  and  _34
REMARK                            x       y       z     vdW  Elec       q    Type
REMARK                         _______ _______ _______ _____ _____    ______ ____
ROOT
ATOM      1  C   UNL     1      27.888  17.670  -1.169  0.00  0.00    +0.400 C 
ATOM      2  N   UNL     1      27.165  17.589  -2.336  0.00  0.00    -0.278 N 
ATOM      3  H   UNL     1      26.287  18.159  -2.123  0.00  0.00    +0.152 HD
ATOM      4  O   UNL     1      27.503  18.451  -0.302  0.00  0.00    -0.226 OA
ENDROOT
BRANCH   1   5
ATOM      5  O   UNL     1      28.905  16.877  -1.085  0.00  0.00    -0.450 OA
BRANCH   5   6
ATOM      6  C   UNL     1      29.337  15.770  -0.328  0.00  0.00    +0.240 C 
BRANCH   6   7
ATOM      7  C   UNL     1      30.767  15.816   0.245  0.00  0.00    +0.100 C 
BRANCH   7   9
ATOM      8  N   UNL     1      32.065  14.765   2.073  0.00  0.00    -0.134 NA
ATOM      9  C   UNL     1      30.894  14.885   1.383  0.00  0.00    +0.086 A 
ATOM     10  C   UNL     1      29.958  14.045   1.938  0.00  0.00    +0.139 A 
ATOM     11  N   UNL     1      30.599  13.447   2.998  0.00  0.00    -0.220 N 
ATOM     12  N   UNL     1      31.882  13.884   3.046  0.00  0.00    -0.061 NA
BRANCH  11  13
ATOM     13  C   UNL     1      30.069  12.546   3.958  0.00  0.00    +0.067 A 
ATOM     14  C   UNL     1      30.894  11.969   4.932  0.00  0.00    +0.028 A 
ATOM     15  C   UNL     1      30.372  11.029   5.827  0.00  0.00    +0.005 A 
ATOM     16  C   UNL     1      29.026  10.655   5.763  0.00  0.00    -0.050 A 
ATOM     17  C   UNL     1      28.196  11.260   4.811  0.00  0.00    +0.005 A 
ATOM     18  C   UNL     1      28.474   9.613   6.689  0.00  0.00    +0.044 C 
ATOM     19  C   UNL     1      28.712  12.200   3.913  0.00  0.00    +0.028 A 
ENDBRANCH  11  13
ENDBRANCH   7   9
ENDBRANCH   6   7
ENDBRANCH   5   6
ENDBRANCH   1   5
BRANCH   2  20
ATOM     20  C   UNL     1      27.068  17.097  -3.708  0.00  0.00    +0.152 C 
BRANCH  20  21
ATOM     21  C   UNL     1      25.864  16.185  -4.019  0.00  0.00    +0.193 C 
ATOM     22  O   UNL     1      25.959  15.834  -5.418  0.00  0.00    -0.219 OA
BRANCH  21  23
ATOM     23  C   UNL     1      25.787  14.828  -3.286  0.00  0.00    +0.212 C 
ATOM     24  O   UNL     1      26.310  14.947  -1.953  0.00  0.00    -0.218 OA
BRANCH  23  25
ATOM     25  C   UNL     1      24.324  14.245  -3.204  0.00  0.00    +0.171 C 
ATOM     26  O   UNL     1      23.326  15.255  -3.309  0.00  0.00    -0.343 OA
ATOM     27  C   UNL     1      21.972  15.057  -3.028  0.00  0.00    +0.220 C 
ATOM     28  C   UNL     1      21.766  14.392  -1.656  0.00  0.00    +0.076 C 
ATOM     29  C   UNL     1      22.626  13.118  -1.625  0.00  0.00    +0.177 C 
ATOM     30  O   UNL     1      22.442  12.442  -0.389  0.00  0.00    -0.221 OA
ATOM     31  C   UNL     1      24.127  13.478  -1.855  0.00  0.00    +0.155 C 
BRANCH  31  32
ATOM     32  N   UNL     1      24.949  12.271  -1.820  0.00  0.00    -0.202 NA
ATOM     33  C   UNL     1      25.672  11.743  -0.799  0.00  0.00    +0.242 C 
ATOM     34  C   UNL     1      26.189  10.335  -0.942  0.00  0.00    +0.096 C 
ATOM     35  O   UNL     1      25.886  12.418   0.206  0.00  0.00    -0.273 OA
ENDBRANCH  31  32
BRANCH  27  36
ATOM     36  C   UNL     1      21.176  14.263  -4.201  0.00  0.00    +0.391 C 
ATOM     37  O   UNL     1      20.171  13.627  -3.570  0.00  0.00    -0.243 OA
ATOM     38  O   UNL     1      21.621  14.770  -5.358  0.00  0.00    -0.243 OA
ENDBRANCH  27  36
ENDBRANCH  23  25
ENDBRANCH  21  23
ENDBRANCH  20  21
ENDBRANCH   2  20
TORSDOF 11
