REMARK VINA RESULT:    -6.721      2.523      5.939
REMARK INTER + INTRA:         -13.611
REMARK INTER:                 -11.538
REMARK INTRA:                  -2.073
REMARK UNBOUND:                -1.585
REMARK  Name = lig_assembled_16.pdb
REMARK  14 active torsions:
REMARK  status: ('A' for Active; 'I' for Inactive)
REMARK    1  A    between atoms: _2  and  _8
REMARK    2  A    between atoms: _5  and  _6
REMARK    3  A    between atoms: _5  and  _17
REMARK    4  A    between atoms: _8  and  _9
REMARK    5  A    between atoms: _12  and  _13
REMARK    6  A    between atoms: _13  and  _15
REMARK    7  A    between atoms: _17  and  _19
REMARK    8  A    between atoms: _18  and  _23
REMARK    9  A    between atoms: _19  and  _22
REMARK   10  A    between atoms: _27  and  _37
REMARK   11  A    between atoms: _29  and  _30
REMARK   12  A    between atoms: _31  and  _33
REMARK   13  A    between atoms: _33  and  _35
REMARK   14  A    between atoms: _35  and  _37
REMARK                            x       y       z     vdW  Elec       q    Type
REMARK                         _______ _______ _______ _____ _____    ______ ____
ROOT
ATOM      1  C   UNL     1      27.135  12.499   2.187  0.00  0.00    +0.400 C 
ATOM      2  N   UNL     1      28.262  13.055   1.630  0.00  0.00    -0.278 N 
ATOM      3  H   UNL     1      28.444  13.913   2.242  0.00  0.00    +0.152 HD
ATOM      4  O   UNL     1      26.739  12.946   3.261  0.00  0.00    -0.226 OA
ENDROOT
BRANCH   2   5
ATOM      5  C   UNL     1      29.307  12.993   0.611  0.00  0.00    +0.152 C 
BRANCH   5   6
ATOM      6  C   UNL     1      29.634  14.318  -0.109  0.00  0.00    +0.193 C 
ATOM      7  O   UNL     1      28.651  15.282   0.329  0.00  0.00    -0.219 OA
BRANCH   6   8
ATOM      8  C   UNL     1      30.992  14.984   0.203  0.00  0.00    +0.212 C 
ATOM      9  O   UNL     1      30.793  16.235   0.882  0.00  0.00    -0.218 OA
BRANCH   8  10
ATOM     10  C   UNL     1      31.944  14.082   1.078  0.00  0.00    +0.171 C 
ATOM     11  O   UNL     1      32.210  14.647   2.358  0.00  0.00    -0.343 OA
ATOM     12  C   UNL     1      33.200  14.189   3.230  0.00  0.00    +0.220 C 
ATOM     13  C   UNL     1      34.563  14.058   2.529  0.00  0.00    +0.076 C 
ATOM     14  C   UNL     1      34.355  13.192   1.274  0.00  0.00    +0.177 C 
ATOM     15  O   UNL     1      35.596  13.005   0.608  0.00  0.00    -0.221 OA
ATOM     16  C   UNL     1      33.300  13.853   0.334  0.00  0.00    +0.155 C 
BRANCH  16  17
ATOM     17  N   UNL     1      33.105  13.038  -0.862  0.00  0.00    -0.202 NA
ATOM     18  C   UNL     1      33.215  13.378  -2.172  0.00  0.00    +0.242 C 
ATOM     19  C   UNL     1      33.251  12.275  -3.197  0.00  0.00    +0.096 C 
ATOM     20  O   UNL     1      33.283  14.564  -2.488  0.00  0.00    -0.273 OA
ENDBRANCH  16  17
BRANCH  12  21
ATOM     21  C   UNL     1      32.795  12.822   4.009  0.00  0.00    +0.391 C 
ATOM     22  O   UNL     1      33.933  12.407   4.598  0.00  0.00    -0.243 OA
ATOM     23  O   UNL     1      31.457  12.789   4.026  0.00  0.00    -0.243 OA
ENDBRANCH  12  21
ENDBRANCH   8  10
ENDBRANCH   6   8
ENDBRANCH   5   6
ENDBRANCH   2   5
BRANCH   1  24
ATOM     24  O   UNL     1      26.573  11.562   1.497  0.00  0.00    -0.450 OA
BRANCH  24  25
ATOM     25  C   UNL     1      26.230  10.202   1.622  0.00  0.00    +0.240 C 
BRANCH  25  26
ATOM     26  C   UNL     1      24.784   9.798   1.280  0.00  0.00    +0.100 C 
BRANCH  26  28
ATOM     27  N   UNL     1      23.381  11.731   0.619  0.00  0.00    -0.134 NA
ATOM     28  C   UNL     1      24.226  10.711   0.266  0.00  0.00    +0.086 A 
ATOM     29  C   UNL     1      24.433  10.750  -1.095  0.00  0.00    +0.134 A 
ATOM     30  N   UNL     1      23.766  11.869  -1.493  0.00  0.00    -0.247 N 
ATOM     31  N   UNL     1      23.091  12.427  -0.471  0.00  0.00    -0.065 NA
BRANCH  30  32
ATOM     32  C   UNL     1      23.746  12.475  -2.809  0.00  0.00    +0.180 C 
BRANCH  32  33
ATOM     33  C   UNL     1      24.619  13.708  -2.860  0.00  0.00    -0.026 A 
ATOM     34  C   UNL     1      24.070  14.961  -3.167  0.00  0.00    +0.006 A 
ATOM     35  C   UNL     1      24.875  16.104  -3.175  0.00  0.00    +0.015 A 
ATOM     36  C   UNL     1      26.239  16.009  -2.891  0.00  0.00    +0.059 A 
ATOM     37  C   UNL     1      26.804  14.757  -2.603  0.00  0.00    +0.015 A 
ATOM     38  C   UNL     1      25.997  13.615  -2.602  0.00  0.00    +0.006 A 
BRANCH  36  39
ATOM     39  C   UNL     1      27.034  17.266  -2.841  0.00  0.00    +0.337 C 
ATOM     40  O   UNL     1      27.311  17.824  -1.794  0.00  0.00    -0.245 OA
BRANCH  39  41
ATOM     41  O   UNL     1      27.386  17.744  -4.050  0.00  0.00    -0.477 OA
ATOM     42  H   UNL     1      26.703  17.670  -4.741  0.00  0.00    +0.295 HD
ENDBRANCH  39  41
ENDBRANCH  36  39
ENDBRANCH  32  33
ENDBRANCH  30  32
ENDBRANCH  26  28
ENDBRANCH  25  26
ENDBRANCH  24  25
ENDBRANCH   1  24
TORSDOF 14
