REMARK VINA RESULT:    -5.831      2.421      5.067
REMARK INTER + INTRA:         -12.838
REMARK INTER:                 -10.429
REMARK INTRA:                  -2.408
REMARK UNBOUND:                -2.235
REMARK  Name = lig_assembled_50.pdb
REMARK  15 active torsions:
REMARK  status: ('A' for Active; 'I' for Inactive)
REMARK    1  A    between atoms: _2  and  _8
REMARK    2  A    between atoms: _4  and  _9
REMARK    3  A    between atoms: _4  and  _10
REMARK    4  A    between atoms: _5  and  _6
REMARK    5  A    between atoms: _5  and  _12
REMARK    6  A    between atoms: _8  and  _9
REMARK    7  A    between atoms: _9  and  _11
REMARK    8  A    between atoms: _12  and  _14
REMARK    9  A    between atoms: _13  and  _18
REMARK   10  A    between atoms: _14  and  _17
REMARK   11  A    between atoms: _22  and  _32
REMARK   12  A    between atoms: _24  and  _25
REMARK   13  A    between atoms: _26  and  _28
REMARK   14  A    between atoms: _28  and  _30
REMARK   15  A    between atoms: _30  and  _32
REMARK                            x       y       z     vdW  Elec       q    Type
REMARK                         _______ _______ _______ _____ _____    ______ ____
ROOT
ATOM      1  C   UNL     1      26.925  11.698  -0.031  0.00  0.00    +0.400 C 
ATOM      2  N   UNL     1      27.926  12.633  -0.151  0.00  0.00    -0.278 N 
ATOM      3  H   UNL     1      28.788  12.045  -0.381  0.00  0.00    +0.152 HD
ATOM      4  O   UNL     1      27.169  10.542  -0.367  0.00  0.00    -0.226 OA
ENDROOT
BRANCH   2   5
ATOM      5  C   UNL     1      28.326  14.037  -0.119  0.00  0.00    +0.152 C 
BRANCH   5   6
ATOM      6  C   UNL     1      29.791  14.335  -0.502  0.00  0.00    +0.193 C 
ATOM      7  O   UNL     1      29.937  15.772  -0.497  0.00  0.00    -0.219 OA
BRANCH   6   8
ATOM      8  C   UNL     1      30.896  13.832   0.452  0.00  0.00    +0.212 C 
ATOM      9  O   UNL     1      30.511  12.584   1.052  0.00  0.00    -0.218 OA
BRANCH   8  10
ATOM     10  C   UNL     1      32.292  13.641  -0.255  0.00  0.00    +0.171 C 
ATOM     11  O   UNL     1      32.200  12.877  -1.453  0.00  0.00    -0.343 OA
ATOM     12  C   UNL     1      33.298  12.356  -2.142  0.00  0.00    +0.220 C 
ATOM     13  C   UNL     1      34.239  11.576  -1.207  0.00  0.00    +0.076 C 
ATOM     14  C   UNL     1      34.593  12.500  -0.030  0.00  0.00    +0.177 C 
ATOM     15  O   UNL     1      35.495  11.840   0.846  0.00  0.00    -0.221 OA
ATOM     16  C   UNL     1      33.295  12.939   0.717  0.00  0.00    +0.155 C 
BRANCH  16  17
ATOM     17  N   UNL     1      33.627  13.811   1.841  0.00  0.00    -0.202 NA
ATOM     18  C   UNL     1      33.462  13.612   3.173  0.00  0.00    +0.242 C 
ATOM     19  C   UNL     1      34.160  14.545   4.128  0.00  0.00    +0.096 C 
ATOM     20  O   UNL     1      32.758  12.684   3.566  0.00  0.00    -0.273 OA
ENDBRANCH  16  17
BRANCH  12  21
ATOM     21  C   UNL     1      34.104  13.467  -3.010  0.00  0.00    +0.391 C 
ATOM     22  O   UNL     1      35.287  12.890  -3.300  0.00  0.00    -0.243 OA
ATOM     23  O   UNL     1      33.200  14.390  -3.361  0.00  0.00    -0.243 OA
ENDBRANCH  12  21
ENDBRANCH   8  10
ENDBRANCH   6   8
ENDBRANCH   5   6
ENDBRANCH   2   5
BRANCH   1  24
ATOM     24  O   UNL     1      25.812  12.130   0.464  0.00  0.00    -0.450 OA
BRANCH  24  25
ATOM     25  C   UNL     1      24.488  12.385   0.054  0.00  0.00    +0.240 C 
BRANCH  25  26
ATOM     26  C   UNL     1      24.156  12.189  -1.437  0.00  0.00    +0.100 C 
BRANCH  26  28
ATOM     27  N   UNL     1      23.588  14.445  -2.291  0.00  0.00    -0.134 NA
ATOM     28  C   UNL     1      24.483  13.409  -2.202  0.00  0.00    +0.086 A 
ATOM     29  C   UNL     1      25.625  13.740  -2.902  0.00  0.00    +0.133 A 
ATOM     30  N   UNL     1      25.359  14.978  -3.395  0.00  0.00    -0.249 N 
ATOM     31  N   UNL     1      24.141  15.407  -3.013  0.00  0.00    -0.065 NA
BRANCH  30  32
ATOM     32  C   UNL     1      26.192  15.807  -4.234  0.00  0.00    +0.178 C 
BRANCH  32  33
ATOM     33  C   UNL     1      26.621  17.125  -3.579  0.00  0.00    +0.161 C 
BRANCH  33  34
ATOM     34  O   UNL     1      25.556  18.077  -3.504  0.00  0.00    -0.388 OA
ATOM     35  H   UNL     1      25.180  18.195  -4.400  0.00  0.00    +0.210 HD
ENDBRANCH  33  34
BRANCH  33  36
ATOM     36  C   UNL     1      27.254  16.945  -2.193  0.00  0.00    +0.189 C 
BRANCH  36  37
ATOM     37  O   UNL     1      28.421  17.753  -2.046  0.00  0.00    -0.392 OA
ATOM     38  H   UNL     1      29.204  17.177  -2.137  0.00  0.00    +0.210 HD
ENDBRANCH  36  37
ENDBRANCH  33  36
ENDBRANCH  32  33
ENDBRANCH  30  32
ENDBRANCH  26  28
ENDBRANCH  25  26
ENDBRANCH  24  25
ENDBRANCH   1  24
TORSDOF 15
