REMARK VINA RESULT:    -6.690      1.466      1.961
REMARK INTER + INTRA:         -14.040
REMARK INTER:                 -12.459
REMARK INTRA:                  -1.581
REMARK UNBOUND:                -2.657
REMARK  Name = lig_assembled_46.pdb
REMARK  12 active torsions:
REMARK  status: ('A' for Active; 'I' for Inactive)
REMARK    1  A    between atoms: _2  and  _8
REMARK    2  A    between atoms: _5  and  _6
REMARK    3  A    between atoms: _5  and  _14
REMARK    4  A    between atoms: _8  and  _9
REMARK    5  A    between atoms: _14  and  _16
REMARK    6  A    between atoms: _15  and  _20
REMARK    7  A    between atoms: _16  and  _19
REMARK    8  A    between atoms: _24  and  _34
REMARK    9  A    between atoms: _26  and  _27
REMARK   10  A    between atoms: _28  and  _30
REMARK   11  A    between atoms: _30  and  _32
REMARK   12  A    between atoms: _32  and  _34
REMARK                            x       y       z     vdW  Elec       q    Type
REMARK                         _______ _______ _______ _____ _____    ______ ____
ROOT
ATOM      1  C   UNL     1      28.823  17.070  -0.546  0.00  0.00    +0.400 C 
ATOM      2  N   UNL     1      29.006  15.931   0.202  0.00  0.00    -0.278 N 
ATOM      3  H   UNL     1      29.685  16.243   0.966  0.00  0.00    +0.152 HD
ATOM      4  O   UNL     1      29.274  18.127  -0.111  0.00  0.00    -0.226 OA
ENDROOT
BRANCH   2   5
ATOM      5  C   UNL     1      28.684  14.523   0.424  0.00  0.00    +0.152 C 
BRANCH   5   6
ATOM      6  C   UNL     1      29.797  13.664   1.058  0.00  0.00    +0.193 C 
ATOM      7  O   UNL     1      29.948  12.496   0.220  0.00  0.00    -0.219 OA
BRANCH   6   8
ATOM      8  C   UNL     1      31.216  14.271   1.130  0.00  0.00    +0.212 C 
ATOM      9  O   UNL     1      31.273  15.293   2.139  0.00  0.00    -0.218 OA
BRANCH   8  10
ATOM     10  C   UNL     1      32.337  13.204   1.429  0.00  0.00    +0.171 C 
ATOM     11  O   UNL     1      32.670  13.132   2.811  0.00  0.00    -0.343 OA
ATOM     12  C   UNL     1      33.784  12.459   3.319  0.00  0.00    +0.220 C 
ATOM     13  C   UNL     1      35.076  12.861   2.588  0.00  0.00    +0.076 C 
ATOM     14  C   UNL     1      34.835  12.667   1.082  0.00  0.00    +0.177 C 
ATOM     15  O   UNL     1      36.015  12.987   0.359  0.00  0.00    -0.221 OA
ATOM     16  C   UNL     1      33.629  13.540   0.614  0.00  0.00    +0.155 C 
BRANCH  16  17
ATOM     17  N   UNL     1      33.401  13.365  -0.818  0.00  0.00    -0.202 NA
ATOM     18  C   UNL     1      33.434  14.279  -1.821  0.00  0.00    +0.242 C 
ATOM     19  C   UNL     1      33.453  13.781  -3.242  0.00  0.00    +0.096 C 
ATOM     20  O   UNL     1      33.449  15.478  -1.549  0.00  0.00    -0.273 OA
ENDBRANCH  16  17
BRANCH  12  21
ATOM     21  C   UNL     1      33.600  10.845   3.364  0.00  0.00    +0.391 C 
ATOM     22  O   UNL     1      34.824  10.364   3.653  0.00  0.00    -0.243 OA
ATOM     23  O   UNL     1      32.280  10.624   3.398  0.00  0.00    -0.243 OA
ENDBRANCH  12  21
ENDBRANCH   8  10
ENDBRANCH   6   8
ENDBRANCH   5   6
ENDBRANCH   2   5
BRANCH   1  24
ATOM     24  O   UNL     1      28.208  16.908  -1.671  0.00  0.00    -0.450 OA
BRANCH  24  25
ATOM     25  C   UNL     1      27.105  17.435  -2.372  0.00  0.00    +0.240 C 
BRANCH  25  26
ATOM     26  C   UNL     1      26.869  16.932  -3.808  0.00  0.00    +0.100 C 
BRANCH  26  28
ATOM     27  N   UNL     1      25.381  15.340  -4.985  0.00  0.00    -0.134 NA
ATOM     28  C   UNL     1      25.895  15.825  -3.811  0.00  0.00    +0.086 A 
ATOM     29  C   UNL     1      25.384  15.093  -2.761  0.00  0.00    +0.134 A 
ATOM     30  N   UNL     1      24.611  14.143  -3.364  0.00  0.00    -0.247 N 
ATOM     31  N   UNL     1      24.602  14.305  -4.702  0.00  0.00    -0.065 NA
BRANCH  30  32
ATOM     32  C   UNL     1      24.074  12.931  -2.769  0.00  0.00    +0.180 C 
BRANCH  32  33
ATOM     33  C   UNL     1      22.819  13.154  -1.963  0.00  0.00    -0.026 A 
ATOM     34  C   UNL     1      21.855  14.090  -2.370  0.00  0.00    +0.005 A 
ATOM     35  C   UNL     1      20.653  14.221  -1.669  0.00  0.00    +0.000 A 
ATOM     36  C   UNL     1      20.400  13.419  -0.558  0.00  0.00    +0.000 A 
ATOM     37  C   UNL     1      21.351  12.492  -0.139  0.00  0.00    +0.000 A 
ATOM     38  C   UNL     1      22.554  12.360  -0.837  0.00  0.00    +0.005 A 
ENDBRANCH  32  33
ENDBRANCH  30  32
ENDBRANCH  26  28
ENDBRANCH  25  26
ENDBRANCH  24  25
ENDBRANCH   1  24
TORSDOF 12
