REMARK VINA RESULT:    -7.184      1.869      3.893
REMARK INTER + INTRA:         -14.221
REMARK INTER:                 -12.597
REMARK INTRA:                  -1.624
REMARK UNBOUND:                -1.577
REMARK  Name = lig_assembled_66.pdb
REMARK  13 active torsions:
REMARK  status: ('A' for Active; 'I' for Inactive)
REMARK    1  A    between atoms: _2  and  _9
REMARK    2  A    between atoms: _6  and  _7
REMARK    3  A    between atoms: _6  and  _16
REMARK    4  A    between atoms: _9  and  _10
REMARK    5  A    between atoms: _14  and  _15
REMARK    6  A    between atoms: _16  and  _18
REMARK    7  A    between atoms: _17  and  _22
REMARK    8  A    between atoms: _18  and  _21
REMARK    9  A    between atoms: _26  and  _36
REMARK   10  A    between atoms: _28  and  _29
REMARK   11  A    between atoms: _30  and  _32
REMARK   12  A    between atoms: _32  and  _34
REMARK   13  A    between atoms: _34  and  _36
REMARK                            x       y       z     vdW  Elec       q    Type
REMARK                         _______ _______ _______ _____ _____    ______ ____
ROOT
ATOM      1  C   UNL     1      27.518  14.418  -2.017  0.00  0.00    +0.400 C 
ATOM      2  N   UNL     1      28.117  15.124  -1.000  0.00  0.00    -0.278 N 
ATOM      3  H   UNL     1      28.454  14.360  -0.333  0.00  0.00    +0.152 HD
ATOM      4  O   UNL     1      27.655  13.198  -2.033  0.00  0.00    -0.226 OA
ENDROOT
BRANCH   1   5
ATOM      5  O   UNL     1      26.830  15.120  -2.856  0.00  0.00    -0.450 OA
BRANCH   5   6
ATOM      6  C   UNL     1      25.569  15.742  -2.947  0.00  0.00    +0.240 C 
BRANCH   6   7
ATOM      7  C   UNL     1      24.570  15.177  -3.975  0.00  0.00    +0.100 C 
BRANCH   7   9
ATOM      8  N   UNL     1      22.098  15.050  -4.085  0.00  0.00    -0.134 NA
ATOM      9  C   UNL     1      23.250  14.973  -3.348  0.00  0.00    +0.086 A 
ATOM     10  C   UNL     1      22.931  14.651  -2.047  0.00  0.00    +0.134 A 
ATOM     11  N   UNL     1      21.575  14.491  -2.070  0.00  0.00    -0.247 N 
ATOM     12  N   UNL     1      21.076  14.750  -3.292  0.00  0.00    -0.065 NA
BRANCH  11  13
ATOM     13  C   UNL     1      20.746  13.858  -1.061  0.00  0.00    +0.180 C 
BRANCH  13  14
ATOM     14  C   UNL     1      21.111  12.418  -0.805  0.00  0.00    -0.025 A 
ATOM     15  C   UNL     1      21.164  11.501  -1.865  0.00  0.00    +0.005 A 
ATOM     16  C   UNL     1      21.582  10.186  -1.650  0.00  0.00    +0.002 A 
ATOM     17  C   UNL     1      21.934   9.766  -0.368  0.00  0.00    +0.019 A 
ATOM     18  C   UNL     1      21.853  10.656   0.707  0.00  0.00    +0.052 A 
ATOM     19  C   UNL     1      21.444  11.978   0.487  0.00  0.00    +0.024 A 
BRANCH  18  20
ATOM     20  C   UNL     1      22.198  10.221   2.028  0.00  0.00    +0.099 C 
ATOM     21  N   UNL     1      22.468   9.866   3.100  0.00  0.00    -0.191 NA
ENDBRANCH  18  20
ENDBRANCH  13  14
ENDBRANCH  11  13
ENDBRANCH   7   9
ENDBRANCH   6   7
ENDBRANCH   5   6
ENDBRANCH   1   5
BRANCH   2  22
ATOM     22  C   UNL     1      28.504  16.418  -0.444  0.00  0.00    +0.152 C 
BRANCH  22  23
ATOM     23  C   UNL     1      30.010  16.624  -0.183  0.00  0.00    +0.193 C 
ATOM     24  O   UNL     1      30.143  17.883   0.512  0.00  0.00    -0.219 OA
BRANCH  23  25
ATOM     25  C   UNL     1      30.724  15.602   0.729  0.00  0.00    +0.212 C 
ATOM     26  O   UNL     1      29.763  14.769   1.398  0.00  0.00    -0.218 OA
BRANCH  25  27
ATOM     27  C   UNL     1      31.740  14.678  -0.044  0.00  0.00    +0.171 C 
ATOM     28  O   UNL     1      31.165  14.079  -1.201  0.00  0.00    -0.343 OA
ATOM     29  C   UNL     1      31.753  13.039  -1.925  0.00  0.00    +0.220 C 
ATOM     30  C   UNL     1      32.184  11.879  -1.010  0.00  0.00    +0.076 C 
ATOM     31  C   UNL     1      33.063  12.470   0.104  0.00  0.00    +0.177 C 
ATOM     32  O   UNL     1      33.521  11.431   0.958  0.00  0.00    -0.221 OA
ATOM     33  C   UNL     1      32.266  13.549   0.902  0.00  0.00    +0.155 C 
BRANCH  33  34
ATOM     34  N   UNL     1      33.096  14.108   1.966  0.00  0.00    -0.202 NA
ATOM     35  C   UNL     1      33.082  13.857   3.300  0.00  0.00    +0.242 C 
ATOM     36  C   UNL     1      34.238  14.347   4.132  0.00  0.00    +0.096 C 
ATOM     37  O   UNL     1      32.138  13.242   3.793  0.00  0.00    -0.273 OA
ENDBRANCH  33  34
BRANCH  29  38
ATOM     38  C   UNL     1      32.971  13.526  -2.884  0.00  0.00    +0.391 C 
ATOM     39  O   UNL     1      32.990  12.641  -3.899  0.00  0.00    -0.243 OA
ATOM     40  O   UNL     1      33.290  14.762  -2.478  0.00  0.00    -0.243 OA
ENDBRANCH  29  38
ENDBRANCH  25  27
ENDBRANCH  23  25
ENDBRANCH  22  23
ENDBRANCH   2  22
TORSDOF 13
