REMARK VINA RESULT:    -6.350      2.195      3.823
REMARK INTER + INTRA:         -14.150
REMARK INTER:                 -11.418
REMARK INTRA:                  -2.732
REMARK UNBOUND:                -1.675
REMARK  Name = lig_assembled_33.pdb
REMARK  17 active torsions:
REMARK  status: ('A' for Active; 'I' for Inactive)
REMARK    1  A    between atoms: _2  and  _8
REMARK    2  A    between atoms: _4  and  _12
REMARK    3  A    between atoms: _4  and  _13
REMARK    4  A    between atoms: _5  and  _6
REMARK    5  A    between atoms: _5  and  _15
REMARK    6  A    between atoms: _8  and  _9
REMARK    7  A    between atoms: _9  and  _10
REMARK    8  A    between atoms: _10  and  _11
REMARK    9  A    between atoms: _11  and  _12
REMARK   10  A    between atoms: _15  and  _17
REMARK   11  A    between atoms: _16  and  _21
REMARK   12  A    between atoms: _17  and  _20
REMARK   13  A    between atoms: _25  and  _35
REMARK   14  A    between atoms: _27  and  _28
REMARK   15  A    between atoms: _29  and  _31
REMARK   16  A    between atoms: _31  and  _33
REMARK   17  A    between atoms: _33  and  _35
REMARK                            x       y       z     vdW  Elec       q    Type
REMARK                         _______ _______ _______ _____ _____    ______ ____
ROOT
ATOM      1  C   UNL     1      26.895  13.481  -1.559  0.00  0.00    +0.400 C 
ATOM      2  N   UNL     1      27.828  13.705  -0.574  0.00  0.00    -0.278 N 
ATOM      3  H   UNL     1      28.115  12.720  -0.277  0.00  0.00    +0.152 HD
ATOM      4  O   UNL     1      26.754  12.333  -1.973  0.00  0.00    -0.226 OA
ENDROOT
BRANCH   1   5
ATOM      5  O   UNL     1      26.223  14.517  -1.940  0.00  0.00    -0.450 OA
BRANCH   5   6
ATOM      6  C   UNL     1      26.345  15.601  -2.831  0.00  0.00    +0.240 C 
BRANCH   6   7
ATOM      7  C   UNL     1      25.447  15.597  -4.083  0.00  0.00    +0.100 C 
BRANCH   7   9
ATOM      8  N   UNL     1      23.831  13.725  -4.033  0.00  0.00    -0.134 NA
ATOM      9  C   UNL     1      24.120  15.037  -3.763  0.00  0.00    +0.086 A 
ATOM     10  C   UNL     1      23.016  15.635  -3.197  0.00  0.00    +0.133 A 
ATOM     11  N   UNL     1      22.095  14.634  -3.144  0.00  0.00    -0.251 N 
ATOM     12  N   UNL     1      22.580  13.493  -3.663  0.00  0.00    -0.065 NA
BRANCH  11  13
ATOM     13  C   UNL     1      20.740  14.688  -2.633  0.00  0.00    +0.145 C 
BRANCH  13  14
ATOM     14  C   UNL     1      20.357  13.411  -1.888  0.00  0.00    +0.023 C 
BRANCH  14  15
ATOM     15  C   UNL     1      20.378  13.587  -0.367  0.00  0.00    +0.002 C 
BRANCH  15  16
ATOM     16  C   UNL     1      21.007  12.356   0.291  0.00  0.00    +0.011 C 
BRANCH  16  17
ATOM     17  C   UNL     1      21.996  11.636  -0.622  0.00  0.00    +0.120 C 
BRANCH  17  18
ATOM     18  C   UNL     1      23.425  11.960  -0.247  0.00  0.00    +0.305 C 
ATOM     19  O   UNL     1      24.115  11.318   0.528  0.00  0.00    -0.251 OA
BRANCH  18  20
ATOM     20  O   UNL     1      23.886  13.066  -0.877  0.00  0.00    -0.481 OA
ATOM     21  H   UNL     1      23.210  13.532  -1.401  0.00  0.00    +0.295 HD
ENDBRANCH  18  20
ENDBRANCH  17  18
ENDBRANCH  16  17
ENDBRANCH  15  16
ENDBRANCH  14  15
ENDBRANCH  13  14
ENDBRANCH  11  13
ENDBRANCH   7   9
ENDBRANCH   6   7
ENDBRANCH   5   6
ENDBRANCH   1   5
BRANCH   2  22
ATOM     22  C   UNL     1      28.594  14.663   0.219  0.00  0.00    +0.152 C 
BRANCH  22  23
ATOM     23  C   UNL     1      29.658  15.479  -0.542  0.00  0.00    +0.193 C 
ATOM     24  O   UNL     1      29.109  16.802  -0.731  0.00  0.00    -0.219 OA
BRANCH  23  25
ATOM     25  C   UNL     1      31.012  15.720   0.160  0.00  0.00    +0.212 C 
ATOM     26  O   UNL     1      30.912  16.818   1.081  0.00  0.00    -0.218 OA
BRANCH  25  27
ATOM     27  C   UNL     1      31.545  14.457   0.938  0.00  0.00    +0.171 C 
ATOM     28  O   UNL     1      31.931  14.760   2.275  0.00  0.00    -0.343 OA
ATOM     29  C   UNL     1      32.656  13.897   3.101  0.00  0.00    +0.220 C 
ATOM     30  C   UNL     1      33.918  13.364   2.401  0.00  0.00    +0.076 C 
ATOM     31  C   UNL     1      33.480  12.758   1.057  0.00  0.00    +0.177 C 
ATOM     32  O   UNL     1      34.607  12.212   0.385  0.00  0.00    -0.221 OA
ATOM     33  C   UNL     1      32.769  13.840   0.186  0.00  0.00    +0.155 C 
BRANCH  33  34
ATOM     34  N   UNL     1      32.358  13.270  -1.095  0.00  0.00    -0.202 NA
ATOM     35  C   UNL     1      32.759  13.583  -2.353  0.00  0.00    +0.242 C 
ATOM     36  C   UNL     1      32.399  12.643  -3.474  0.00  0.00    +0.096 C 
ATOM     37  O   UNL     1      33.401  14.614  -2.547  0.00  0.00    -0.273 OA
ENDBRANCH  33  34
BRANCH  29  38
ATOM     38  C   UNL     1      31.761  12.691   3.720  0.00  0.00    +0.391 C 
ATOM     39  O   UNL     1      32.651  11.857   4.293  0.00  0.00    -0.243 OA
ATOM     40  O   UNL     1      30.493  13.121   3.696  0.00  0.00    -0.243 OA
ENDBRANCH  29  38
ENDBRANCH  25  27
ENDBRANCH  23  25
ENDBRANCH  22  23
ENDBRANCH   2  22
TORSDOF 17
