REMARK VINA RESULT:    -6.449      3.438      8.245
REMARK INTER + INTRA:         -14.644
REMARK INTER:                 -11.915
REMARK INTRA:                  -2.729
REMARK UNBOUND:                -2.540
REMARK  Name = lig_assembled_31.pdb
REMARK  15 active torsions:
REMARK  status: ('A' for Active; 'I' for Inactive)
REMARK    1  A    between atoms: _2  and  _10
REMARK    2  A    between atoms: _3  and  _11
REMARK    3  A    between atoms: _4  and  _13
REMARK    4  A    between atoms: _7  and  _8
REMARK    5  A    between atoms: _7  and  _19
REMARK    6  A    between atoms: _10  and  _11
REMARK    7  A    between atoms: _13  and  _14
REMARK    8  A    between atoms: _19  and  _21
REMARK    9  A    between atoms: _20  and  _25
REMARK   10  A    between atoms: _21  and  _24
REMARK   11  A    between atoms: _29  and  _39
REMARK   12  A    between atoms: _31  and  _32
REMARK   13  A    between atoms: _33  and  _35
REMARK   14  A    between atoms: _35  and  _37
REMARK   15  A    between atoms: _37  and  _39
REMARK                            x       y       z     vdW  Elec       q    Type
REMARK                         _______ _______ _______ _____ _____    ______ ____
ROOT
ATOM      1  C   UNL     1      27.641  13.164   2.348  0.00  0.00    +0.400 C 
ATOM      2  N   UNL     1      28.460  14.171   1.893  0.00  0.00    -0.278 N 
ATOM      3  H   UNL     1      28.298  14.958   2.597  0.00  0.00    +0.152 HD
ATOM      4  O   UNL     1      27.112  13.301   3.448  0.00  0.00    -0.226 OA
ENDROOT
BRANCH   2   5
ATOM      5  C   UNL     1      29.438  14.632   0.910  0.00  0.00    +0.152 C 
BRANCH   5   6
ATOM      6  C   UNL     1      30.712  13.774   0.767  0.00  0.00    +0.193 C 
ATOM      7  O   UNL     1      31.367  14.204  -0.447  0.00  0.00    -0.219 OA
BRANCH   6   8
ATOM      8  C   UNL     1      31.795  13.914   1.859  0.00  0.00    +0.212 C 
ATOM      9  O   UNL     1      31.678  15.184   2.522  0.00  0.00    -0.218 OA
BRANCH   8  10
ATOM     10  C   UNL     1      31.739  12.772   2.944  0.00  0.00    +0.171 C 
ATOM     11  O   UNL     1      30.527  12.784   3.690  0.00  0.00    -0.343 OA
ATOM     12  C   UNL     1      30.314  12.051   4.860  0.00  0.00    +0.220 C 
ATOM     13  C   UNL     1      31.446  12.262   5.879  0.00  0.00    +0.076 C 
ATOM     14  C   UNL     1      32.774  11.967   5.163  0.00  0.00    +0.177 C 
ATOM     15  O   UNL     1      33.855  12.108   6.075  0.00  0.00    -0.221 OA
ATOM     16  C   UNL     1      32.943  12.911   3.933  0.00  0.00    +0.155 C 
BRANCH  16  17
ATOM     17  N   UNL     1      34.207  12.639   3.253  0.00  0.00    -0.202 NA
ATOM     18  C   UNL     1      35.273  13.452   3.046  0.00  0.00    +0.242 C 
ATOM     19  C   UNL     1      36.565  12.833   2.578  0.00  0.00    +0.096 C 
ATOM     20  O   UNL     1      35.163  14.661   3.243  0.00  0.00    -0.273 OA
ENDBRANCH  16  17
BRANCH  12  21
ATOM     21  C   UNL     1      30.037  10.472   4.593  0.00  0.00    +0.391 C 
ATOM     22  O   UNL     1      30.033   9.908   5.816  0.00  0.00    -0.243 OA
ATOM     23  O   UNL     1      29.626  10.379   3.322  0.00  0.00    -0.243 OA
ENDBRANCH  12  21
ENDBRANCH   8  10
ENDBRANCH   6   8
ENDBRANCH   5   6
ENDBRANCH   2   5
BRANCH   1  24
ATOM     24  O   UNL     1      27.482  12.166   1.543  0.00  0.00    -0.450 OA
BRANCH  24  25
ATOM     25  C   UNL     1      26.797  11.851   0.353  0.00  0.00    +0.240 C 
BRANCH  25  26
ATOM     26  C   UNL     1      27.637  11.680  -0.927  0.00  0.00    +0.100 C 
BRANCH  26  28
ATOM     27  N   UNL     1      27.527  12.660  -3.199  0.00  0.00    -0.134 NA
ATOM     28  C   UNL     1      27.418  12.818  -1.843  0.00  0.00    +0.086 A 
ATOM     29  C   UNL     1      27.095  14.128  -1.568  0.00  0.00    +0.133 A 
ATOM     30  N   UNL     1      27.033  14.715  -2.797  0.00  0.00    -0.250 N 
ATOM     31  N   UNL     1      27.286  13.830  -3.775  0.00  0.00    -0.065 NA
BRANCH  30  32
ATOM     32  C   UNL     1      26.744  16.098  -3.115  0.00  0.00    +0.164 C 
BRANCH  32  33
ATOM     33  C   UNL     1      25.524  16.217  -4.016  0.00  0.00    +0.129 C 
BRANCH  33  34
ATOM     34  N   UNL     1      24.260  16.375  -3.308  0.00  0.00    -0.298 N 
ATOM     35  H   UNL     1      24.187  16.992  -2.512  0.00  0.00    +0.150 HD
ATOM     36  C   UNL     1      23.315  15.392  -3.441  0.00  0.00    +0.300 C 
ATOM     37  O   UNL     1      23.449  14.439  -4.207  0.00  0.00    -0.253 OA
ATOM     38  N   UNL     1      22.203  15.572  -2.677  0.00  0.00    -0.292 N 
ATOM     39  H   UNL     1      22.112  16.331  -2.018  0.00  0.00    +0.151 HD
BRANCH  38  40
ATOM     40  C   UNL     1      21.146  14.592  -2.752  0.00  0.00    +0.180 C 
BRANCH  40  41
ATOM     41  C   UNL     1      21.181  13.603  -1.646  0.00  0.00    +0.122 A 
ATOM     42  O   UNL     1      20.544  13.897  -0.473  0.00  0.00    -0.466 OA
ATOM     43  C   UNL     1      20.733  12.831   0.354  0.00  0.00    +0.195 A 
ATOM     44  C   UNL     1      21.482  11.859  -0.268  0.00  0.00    +0.041 A 
ATOM     45  C   UNL     1      21.772  12.357  -1.559  0.00  0.00    +0.046 A 
ENDBRANCH  40  41
ENDBRANCH  38  40
ENDBRANCH  33  34
ENDBRANCH  32  33
ENDBRANCH  30  32
ENDBRANCH  26  28
ENDBRANCH  25  26
ENDBRANCH  24  25
ENDBRANCH   1  24
TORSDOF 15
