REMARK VINA RESULT:    -6.539      1.813      2.308
REMARK INTER + INTRA:         -13.077
REMARK INTER:                 -12.018
REMARK INTRA:                  -1.059
REMARK UNBOUND:                -1.952
REMARK  Name = lig_assembled_44.pdb
REMARK  12 active torsions:
REMARK  status: ('A' for Active; 'I' for Inactive)
REMARK    1  A    between atoms: _2  and  _8
REMARK    2  A    between atoms: _5  and  _6
REMARK    3  A    between atoms: _5  and  _14
REMARK    4  A    between atoms: _8  and  _9
REMARK    5  A    between atoms: _14  and  _16
REMARK    6  A    between atoms: _15  and  _20
REMARK    7  A    between atoms: _16  and  _19
REMARK    8  A    between atoms: _24  and  _34
REMARK    9  A    between atoms: _26  and  _27
REMARK   10  A    between atoms: _28  and  _30
REMARK   11  A    between atoms: _30  and  _32
REMARK   12  A    between atoms: _32  and  _34
REMARK                            x       y       z     vdW  Elec       q    Type
REMARK                         _______ _______ _______ _____ _____    ______ ____
ROOT
ATOM      1  C   UNL     1      27.869  17.359  -1.195  0.00  0.00    +0.400 C 
ATOM      2  N   UNL     1      28.778  16.581  -0.518  0.00  0.00    -0.278 N 
ATOM      3  H   UNL     1      29.163  17.244   0.228  0.00  0.00    +0.152 HD
ATOM      4  O   UNL     1      27.586  18.459  -0.728  0.00  0.00    -0.226 OA
ENDROOT
BRANCH   2   5
ATOM      5  C   UNL     1      29.428  15.284  -0.355  0.00  0.00    +0.152 C 
BRANCH   5   6
ATOM      6  C   UNL     1      30.676  15.258   0.551  0.00  0.00    +0.193 C 
ATOM      7  O   UNL     1      30.873  16.608   1.026  0.00  0.00    -0.219 OA
BRANCH   6   8
ATOM      8  C   UNL     1      30.609  14.404   1.837  0.00  0.00    +0.212 C 
ATOM      9  O   UNL     1      29.612  13.377   1.705  0.00  0.00    -0.218 OA
BRANCH   8  10
ATOM     10  C   UNL     1      31.983  13.728   2.210  0.00  0.00    +0.171 C 
ATOM     11  O   UNL     1      32.647  14.392   3.281  0.00  0.00    -0.343 OA
ATOM     12  C   UNL     1      33.974  14.160   3.650  0.00  0.00    +0.220 C 
ATOM     13  C   UNL     1      34.924  14.237   2.443  0.00  0.00    +0.076 C 
ATOM     14  C   UNL     1      34.377  13.289   1.362  0.00  0.00    +0.177 C 
ATOM     15  O   UNL     1      35.243  13.293   0.236  0.00  0.00    -0.221 OA
ATOM     16  C   UNL     1      32.928  13.707   0.964  0.00  0.00    +0.155 C 
BRANCH  16  17
ATOM     17  N   UNL     1      32.407  12.813  -0.067  0.00  0.00    -0.202 NA
ATOM     18  C   UNL     1      32.400  12.956  -1.417  0.00  0.00    +0.242 C 
ATOM     19  C   UNL     1      32.069  11.754  -2.262  0.00  0.00    +0.096 C 
ATOM     20  O   UNL     1      32.662  14.050  -1.913  0.00  0.00    -0.273 OA
ENDBRANCH  16  17
BRANCH  12  21
ATOM     21  C   UNL     1      34.181  12.782   4.486  0.00  0.00    +0.391 C 
ATOM     22  O   UNL     1      35.493  12.499   4.368  0.00  0.00    -0.243 OA
ATOM     23  O   UNL     1      33.067  12.617   5.210  0.00  0.00    -0.243 OA
ENDBRANCH  12  21
ENDBRANCH   8  10
ENDBRANCH   6   8
ENDBRANCH   5   6
ENDBRANCH   2   5
BRANCH   1  24
ATOM     24  O   UNL     1      27.414  16.858  -2.297  0.00  0.00    -0.450 OA
BRANCH  24  25
ATOM     25  C   UNL     1      26.791  17.283  -3.486  0.00  0.00    +0.240 C 
BRANCH  25  26
ATOM     26  C   UNL     1      26.157  16.202  -4.382  0.00  0.00    +0.100 C 
BRANCH  26  28
ATOM     27  N   UNL     1      26.108  13.938  -3.374  0.00  0.00    -0.134 NA
ATOM     28  C   UNL     1      25.516  15.160  -3.557  0.00  0.00    +0.086 A 
ATOM     29  C   UNL     1      24.332  15.196  -2.858  0.00  0.00    +0.134 A 
ATOM     30  N   UNL     1      24.298  13.997  -2.209  0.00  0.00    -0.247 N 
ATOM     31  N   UNL     1      25.346  13.227  -2.554  0.00  0.00    -0.065 NA
BRANCH  30  32
ATOM     32  C   UNL     1      23.314  13.518  -1.257  0.00  0.00    +0.180 C 
BRANCH  32  33
ATOM     33  C   UNL     1      21.970  13.306  -1.914  0.00  0.00    -0.026 A 
ATOM     34  C   UNL     1      20.893  14.161  -1.633  0.00  0.00    +0.006 A 
ATOM     35  C   UNL     1      19.648  13.953  -2.230  0.00  0.00    +0.015 A 
ATOM     36  C   UNL     1      19.473  12.889  -3.112  0.00  0.00    +0.018 A 
ATOM     37 BR   UNL     1      17.792  12.619  -3.934  0.00  0.00    -0.050 Br
ATOM     38  C   UNL     1      20.527  12.023  -3.394  0.00  0.00    +0.015 A 
ATOM     39  C   UNL     1      21.771  12.228  -2.791  0.00  0.00    +0.006 A 
ENDBRANCH  32  33
ENDBRANCH  30  32
ENDBRANCH  26  28
ENDBRANCH  25  26
ENDBRANCH  24  25
ENDBRANCH   1  24
TORSDOF 12
