REMARK VINA RESULT:    -6.419      1.374      3.356
REMARK INTER + INTRA:         -14.790
REMARK INTER:                 -12.915
REMARK INTRA:                  -1.875
REMARK UNBOUND:                -3.117
REMARK  Name = lig_assembled_9.pdb
REMARK  15 active torsions:
REMARK  status: ('A' for Active; 'I' for Inactive)
REMARK    1  A    between atoms: _2  and  _8
REMARK    2  A    between atoms: _5  and  _6
REMARK    3  A    between atoms: _5  and  _18
REMARK    4  A    between atoms: _10  and  _11
REMARK    5  A    between atoms: _11  and  _16
REMARK    6  A    between atoms: _12  and  _13
REMARK    7  A    between atoms: _12  and  _16
REMARK    8  A    between atoms: _18  and  _20
REMARK    9  A    between atoms: _19  and  _24
REMARK   10  A    between atoms: _20  and  _23
REMARK   11  A    between atoms: _28  and  _38
REMARK   12  A    between atoms: _30  and  _31
REMARK   13  A    between atoms: _32  and  _34
REMARK   14  A    between atoms: _34  and  _36
REMARK   15  A    between atoms: _36  and  _38
REMARK                            x       y       z     vdW  Elec       q    Type
REMARK                         _______ _______ _______ _____ _____    ______ ____
ROOT
ATOM      1  C   UNL     1      27.679  17.517  -1.112  0.00  0.00    +0.400 C 
ATOM      2  N   UNL     1      28.297  16.716  -0.181  0.00  0.00    -0.278 N 
ATOM      3  H   UNL     1      28.543  17.397   0.606  0.00  0.00    +0.152 HD
ATOM      4  O   UNL     1      27.400  18.669  -0.791  0.00  0.00    -0.226 OA
ENDROOT
BRANCH   2   5
ATOM      5  C   UNL     1      28.746  15.383   0.212  0.00  0.00    +0.152 C 
BRANCH   5   6
ATOM      6  C   UNL     1      30.170  14.987  -0.229  0.00  0.00    +0.193 C 
ATOM      7  O   UNL     1      30.886  16.218  -0.472  0.00  0.00    -0.219 OA
BRANCH   6   8
ATOM      8  C   UNL     1      31.048  14.226   0.789  0.00  0.00    +0.212 C 
ATOM      9  O   UNL     1      30.357  13.065   1.278  0.00  0.00    -0.218 OA
BRANCH   8  10
ATOM     10  C   UNL     1      32.438  13.773   0.199  0.00  0.00    +0.171 C 
ATOM     11  O   UNL     1      32.304  13.032  -1.010  0.00  0.00    -0.343 OA
ATOM     12  C   UNL     1      33.339  12.310  -1.610  0.00  0.00    +0.220 C 
ATOM     13  C   UNL     1      34.036  11.374  -0.608  0.00  0.00    +0.076 C 
ATOM     14  C   UNL     1      34.457  12.223   0.603  0.00  0.00    +0.177 C 
ATOM     15  O   UNL     1      35.144  11.411   1.545  0.00  0.00    -0.221 OA
ATOM     16  C   UNL     1      33.207  12.901   1.244  0.00  0.00    +0.155 C 
BRANCH  16  17
ATOM     17  N   UNL     1      33.602  13.703   2.399  0.00  0.00    -0.202 NA
ATOM     18  C   UNL     1      33.417  13.468   3.723  0.00  0.00    +0.242 C 
ATOM     19  C   UNL     1      34.181  14.309   4.713  0.00  0.00    +0.096 C 
ATOM     20  O   UNL     1      32.641  12.584   4.081  0.00  0.00    -0.273 OA
ENDBRANCH  16  17
BRANCH  12  21
ATOM     21  C   UNL     1      34.408  13.245  -2.398  0.00  0.00    +0.391 C 
ATOM     22  O   UNL     1      35.520  12.491  -2.501  0.00  0.00    -0.243 OA
ATOM     23  O   UNL     1      33.705  14.266  -2.903  0.00  0.00    -0.243 OA
ENDBRANCH  12  21
ENDBRANCH   8  10
ENDBRANCH   6   8
ENDBRANCH   5   6
ENDBRANCH   2   5
BRANCH   1  24
ATOM     24  O   UNL     1      27.475  16.976  -2.268  0.00  0.00    -0.450 OA
BRANCH  24  25
ATOM     25  C   UNL     1      26.696  17.184  -3.423  0.00  0.00    +0.240 C 
BRANCH  25  26
ATOM     26  C   UNL     1      26.108  15.942  -4.119  0.00  0.00    +0.100 C 
BRANCH  26  28
ATOM     27  N   UNL     1      23.715  15.920  -3.489  0.00  0.00    -0.134 NA
ATOM     28  C   UNL     1      24.972  15.412  -3.342  0.00  0.00    +0.086 A 
ATOM     29  C   UNL     1      24.941  14.397  -2.414  0.00  0.00    +0.139 A 
ATOM     30  N   UNL     1      23.619  14.294  -2.045  0.00  0.00    -0.220 N 
ATOM     31  N   UNL     1      22.899  15.241  -2.692  0.00  0.00    -0.061 NA
BRANCH  30  32
ATOM     32  C   UNL     1      23.015  13.359  -1.166  0.00  0.00    +0.068 A 
ATOM     33  C   UNL     1      23.802  12.479  -0.413  0.00  0.00    +0.042 A 
ATOM     34  C   UNL     1      23.199  11.533   0.432  0.00  0.00    +0.061 A 
ATOM     35  C   UNL     1      21.803  11.477   0.522  0.00  0.00    +0.015 A 
ATOM     36  C   UNL     1      21.016  12.361  -0.217  0.00  0.00    +0.003 A 
ATOM     37  C   UNL     1      21.617  13.301  -1.058  0.00  0.00    +0.028 A 
BRANCH  34  38
ATOM     38  C   UNL     1      23.999  10.623   1.292  0.00  0.00    +0.339 C 
ATOM     39  O   UNL     1      24.202   9.448   1.032  0.00  0.00    -0.245 OA
BRANCH  38  40
ATOM     40  O   UNL     1      24.366  11.269   2.427  0.00  0.00    -0.461 OA
BRANCH  40  41
ATOM     41  C   UNL     1      25.743  11.126   2.801  0.00  0.00    +0.229 C 
ATOM     42  C   UNL     1      26.569  12.028   1.902  0.00  0.00    +0.048 C 
ENDBRANCH  40  41
ENDBRANCH  38  40
ENDBRANCH  34  38
ENDBRANCH  30  32
ENDBRANCH  26  28
ENDBRANCH  25  26
ENDBRANCH  24  25
ENDBRANCH   1  24
TORSDOF 14
