REMARK VINA RESULT:    -5.757      3.116      6.056
REMARK INTER + INTRA:         -12.703
REMARK INTER:                 -10.468
REMARK INTRA:                  -2.235
REMARK UNBOUND:                -2.235
REMARK  Name = lig_assembled_50.pdb
REMARK  15 active torsions:
REMARK  status: ('A' for Active; 'I' for Inactive)
REMARK    1  A    between atoms: _2  and  _8
REMARK    2  A    between atoms: _4  and  _9
REMARK    3  A    between atoms: _4  and  _10
REMARK    4  A    between atoms: _5  and  _6
REMARK    5  A    between atoms: _5  and  _12
REMARK    6  A    between atoms: _8  and  _9
REMARK    7  A    between atoms: _9  and  _11
REMARK    8  A    between atoms: _12  and  _14
REMARK    9  A    between atoms: _13  and  _18
REMARK   10  A    between atoms: _14  and  _17
REMARK   11  A    between atoms: _22  and  _32
REMARK   12  A    between atoms: _24  and  _25
REMARK   13  A    between atoms: _26  and  _28
REMARK   14  A    between atoms: _28  and  _30
REMARK   15  A    between atoms: _30  and  _32
REMARK                            x       y       z     vdW  Elec       q    Type
REMARK                         _______ _______ _______ _____ _____    ______ ____
ROOT
ATOM      1  C   UNL     1      31.027  11.721   2.078  0.00  0.00    +0.400 C 
ATOM      2  N   UNL     1      32.093  12.074   2.872  0.00  0.00    -0.278 N 
ATOM      3  H   UNL     1      32.689  11.187   2.895  0.00  0.00    +0.152 HD
ATOM      4  O   UNL     1      31.082  10.650   1.477  0.00  0.00    -0.226 OA
ENDROOT
BRANCH   2   5
ATOM      5  C   UNL     1      32.767  13.098   3.666  0.00  0.00    +0.152 C 
BRANCH   5   6
ATOM      6  C   UNL     1      33.787  13.978   2.916  0.00  0.00    +0.193 C 
ATOM      7  O   UNL     1      34.497  14.738   3.919  0.00  0.00    -0.219 OA
BRANCH   6   8
ATOM      8  C   UNL     1      34.898  13.262   2.117  0.00  0.00    +0.212 C 
ATOM      9  O   UNL     1      34.956  11.871   2.474  0.00  0.00    -0.218 OA
BRANCH   8  10
ATOM     10  C   UNL     1      34.716  13.374   0.555  0.00  0.00    +0.171 C 
ATOM     11  O   UNL     1      33.380  13.109   0.140  0.00  0.00    -0.343 OA
ATOM     12  C   UNL     1      32.994  12.901  -1.187  0.00  0.00    +0.220 C 
ATOM     13  C   UNL     1      33.876  11.848  -1.879  0.00  0.00    +0.076 C 
ATOM     14  C   UNL     1      35.341  12.275  -1.691  0.00  0.00    +0.177 C 
ATOM     15  O   UNL     1      36.200  11.354  -2.348  0.00  0.00    -0.221 OA
ATOM     16  C   UNL     1      35.679  12.380  -0.171  0.00  0.00    +0.155 C 
BRANCH  16  17
ATOM     17  N   UNL     1      37.072  12.779   0.012  0.00  0.00    -0.202 NA
ATOM     18  C   UNL     1      38.109  12.089   0.553  0.00  0.00    +0.242 C 
ATOM     19  C   UNL     1      39.504  12.620   0.352  0.00  0.00    +0.096 C 
ATOM     20  O   UNL     1      37.888  11.058   1.185  0.00  0.00    -0.273 OA
ENDBRANCH  16  17
BRANCH  12  21
ATOM     21  C   UNL     1      32.905  14.270  -2.057  0.00  0.00    +0.391 C 
ATOM     22  O   UNL     1      33.070  15.263  -1.161  0.00  0.00    -0.243 OA
ATOM     23  O   UNL     1      33.005  13.901  -3.339  0.00  0.00    -0.243 OA
ENDBRANCH  12  21
ENDBRANCH   8  10
ENDBRANCH   6   8
ENDBRANCH   5   6
ENDBRANCH   2   5
BRANCH   1  24
ATOM     24  O   UNL     1      30.038  12.553   2.064  0.00  0.00    -0.450 OA
BRANCH  24  25
ATOM     25  C   UNL     1      29.805  13.937   2.189  0.00  0.00    +0.240 C 
BRANCH  25  26
ATOM     26  C   UNL     1      30.442  14.863   1.136  0.00  0.00    +0.100 C 
BRANCH  26  28
ATOM     27  N   UNL     1      29.368  16.347  -0.532  0.00  0.00    -0.134 NA
ATOM     28  C   UNL     1      29.502  15.100   0.023  0.00  0.00    +0.086 A 
ATOM     29  C   UNL     1      28.661  14.223  -0.632  0.00  0.00    +0.133 A 
ATOM     30  N   UNL     1      28.043  14.997  -1.562  0.00  0.00    -0.249 N 
ATOM     31  N   UNL     1      28.481  16.269  -1.512  0.00  0.00    -0.065 NA
BRANCH  30  32
ATOM     32  C   UNL     1      27.031  14.614  -2.518  0.00  0.00    +0.178 C 
BRANCH  32  33
ATOM     33  C   UNL     1      26.121  15.766  -2.960  0.00  0.00    +0.161 C 
BRANCH  33  34
ATOM     34  O   UNL     1      25.924  16.740  -1.931  0.00  0.00    -0.388 OA
ATOM     35  H   UNL     1      25.867  16.276  -1.071  0.00  0.00    +0.210 HD
ENDBRANCH  33  34
BRANCH  33  36
ATOM     36  C   UNL     1      26.588  16.458  -4.247  0.00  0.00    +0.189 C 
BRANCH  36  37
ATOM     37  O   UNL     1      27.318  17.651  -3.959  0.00  0.00    -0.392 OA
ATOM     38  H   UNL     1      28.063  17.711  -4.587  0.00  0.00    +0.210 HD
ENDBRANCH  36  37
ENDBRANCH  33  36
ENDBRANCH  32  33
ENDBRANCH  30  32
ENDBRANCH  26  28
ENDBRANCH  25  26
ENDBRANCH  24  25
ENDBRANCH   1  24
TORSDOF 15
