REMARK VINA RESULT:    -6.821      2.366      4.066
REMARK INTER + INTRA:         -14.337
REMARK INTER:                 -11.509
REMARK INTRA:                  -2.828
REMARK UNBOUND:                -2.732
REMARK  Name = lig_assembled_85.pdb
REMARK  14 active torsions:
REMARK  status: ('A' for Active; 'I' for Inactive)
REMARK    1  A    between atoms: _2  and  _9
REMARK    2  A    between atoms: _3  and  _5
REMARK    3  A    between atoms: _3  and  _16
REMARK    4  A    between atoms: _6  and  _7
REMARK    5  A    between atoms: _6  and  _18
REMARK    6  A    between atoms: _14  and  _15
REMARK    7  A    between atoms: _18  and  _20
REMARK    8  A    between atoms: _19  and  _24
REMARK    9  A    between atoms: _20  and  _23
REMARK   10  A    between atoms: _28  and  _38
REMARK   11  A    between atoms: _30  and  _31
REMARK   12  A    between atoms: _32  and  _34
REMARK   13  A    between atoms: _34  and  _36
REMARK   14  A    between atoms: _36  and  _38
REMARK                            x       y       z     vdW  Elec       q    Type
REMARK                         _______ _______ _______ _____ _____    ______ ____
ROOT
ATOM      1  C   UNL     1      28.483  14.389  -0.826  0.00  0.00    +0.400 C 
ATOM      2  N   UNL     1      29.688  13.741  -0.685  0.00  0.00    -0.278 N 
ATOM      3  H   UNL     1      29.467  12.957   0.008  0.00  0.00    +0.152 HD
ATOM      4  O   UNL     1      27.484  13.869  -0.335  0.00  0.00    -0.226 OA
ENDROOT
BRANCH   2   5
ATOM      5  C   UNL     1      31.096  13.637  -1.058  0.00  0.00    +0.152 C 
BRANCH   5   6
ATOM      6  C   UNL     1      32.076  14.529  -0.268  0.00  0.00    +0.193 C 
ATOM      7  O   UNL     1      31.948  15.864  -0.806  0.00  0.00    -0.219 OA
BRANCH   6   8
ATOM      8  C   UNL     1      31.827  14.698   1.247  0.00  0.00    +0.212 C 
ATOM      9  O   UNL     1      30.816  15.693   1.481  0.00  0.00    -0.218 OA
BRANCH   8  10
ATOM     10  C   UNL     1      31.393  13.362   1.962  0.00  0.00    +0.171 C 
ATOM     11  O   UNL     1      29.999  13.320   2.247  0.00  0.00    -0.343 OA
ATOM     12  C   UNL     1      29.392  12.378   3.080  0.00  0.00    +0.220 C 
ATOM     13  C   UNL     1      30.110  12.270   4.437  0.00  0.00    +0.076 C 
ATOM     14  C   UNL     1      31.600  12.019   4.153  0.00  0.00    +0.177 C 
ATOM     15  O   UNL     1      32.306  11.871   5.377  0.00  0.00    -0.221 OA
ATOM     16  C   UNL     1      32.188  13.184   3.297  0.00  0.00    +0.155 C 
BRANCH  16  17
ATOM     17  N   UNL     1      33.605  12.953   3.031  0.00  0.00    -0.202 NA
ATOM     18  C   UNL     1      34.695  13.620   3.491  0.00  0.00    +0.242 C 
ATOM     19  C   UNL     1      36.051  12.993   3.297  0.00  0.00    +0.096 C 
ATOM     20  O   UNL     1      34.551  14.705   4.050  0.00  0.00    -0.273 OA
ENDBRANCH  16  17
BRANCH  12  21
ATOM     21  C   UNL     1      29.209  10.921   2.384  0.00  0.00    +0.391 C 
ATOM     22  O   UNL     1      28.915  10.085   3.399  0.00  0.00    -0.243 OA
ATOM     23  O   UNL     1      29.119  11.149   1.068  0.00  0.00    -0.243 OA
ENDBRANCH  12  21
ENDBRANCH   8  10
ENDBRANCH   6   8
ENDBRANCH   5   6
ENDBRANCH   2   5
BRANCH   1  24
ATOM     24  O   UNL     1      28.526  15.521  -1.449  0.00  0.00    -0.450 OA
BRANCH  24  25
ATOM     25  C   UNL     1      27.709  16.644  -1.682  0.00  0.00    +0.240 C 
BRANCH  25  26
ATOM     26  C   UNL     1      26.860  16.652  -2.968  0.00  0.00    +0.100 C 
BRANCH  26  28
ATOM     27  N   UNL     1      25.929  14.477  -3.674  0.00  0.00    -0.134 NA
ATOM     28  C   UNL     1      25.830  15.601  -2.905  0.00  0.00    +0.086 A 
ATOM     29  C   UNL     1      24.711  15.510  -2.107  0.00  0.00    +0.139 A 
ATOM     30  N   UNL     1      24.156  14.294  -2.426  0.00  0.00    -0.219 N 
ATOM     31  N   UNL     1      24.923  13.676  -3.356  0.00  0.00    -0.061 NA
BRANCH  30  32
ATOM     32  C   UNL     1      23.036  13.644  -1.866  0.00  0.00    +0.080 A 
ATOM     33  C   UNL     1      21.705  13.911  -2.227  0.00  0.00    +0.062 A 
ATOM     34  C   UNL     1      20.684  13.370  -1.413  0.00  0.00    +0.016 A 
ATOM     35  C   UNL     1      20.967  12.574  -0.298  0.00  0.00    +0.021 A 
ATOM     36  C   UNL     1      22.286  12.261  -0.002  0.00  0.00    +0.043 A 
ATOM     37 CL   UNL     1      22.655  11.313   1.383  0.00  0.00    -0.083 Cl
ATOM     38  C   UNL     1      23.315  12.766  -0.792  0.00  0.00    +0.048 A 
BRANCH  33  39
ATOM     39  C   UNL     1      21.197  14.772  -3.334  0.00  0.00    +0.248 C 
ATOM     40  O   UNL     1      21.073  15.967  -3.051  0.00  0.00    -0.270 OA
ATOM     41  N   UNL     1      20.814  14.286  -4.589  0.00  0.00    -0.304 N 
ATOM     42  C   UNL     1      21.012  12.946  -5.126  0.00  0.00    +0.132 C 
ATOM     43  C   UNL     1      20.329  15.273  -5.548  0.00  0.00    +0.132 C 
ENDBRANCH  33  39
ENDBRANCH  30  32
ENDBRANCH  26  28
ENDBRANCH  25  26
ENDBRANCH  24  25
ENDBRANCH   1  24
TORSDOF 12
