REMARK VINA RESULT:    -7.415      3.141      9.260
REMARK INTER + INTRA:         -15.243
REMARK INTER:                 -13.193
REMARK INTRA:                  -2.049
REMARK UNBOUND:                -1.975
REMARK  Name = lig_assembled_77.pdb
REMARK  14 active torsions:
REMARK  status: ('A' for Active; 'I' for Inactive)
REMARK    1  A    between atoms: _2  and  _9
REMARK    2  A    between atoms: _3  and  _16
REMARK    3  A    between atoms: _6  and  _7
REMARK    4  A    between atoms: _6  and  _22
REMARK    5  A    between atoms: _12  and  _50
REMARK    6  A    between atoms: _13  and  _50
REMARK    7  A    between atoms: _22  and  _24
REMARK    8  A    between atoms: _23  and  _28
REMARK    9  A    between atoms: _24  and  _27
REMARK   10  A    between atoms: _32  and  _42
REMARK   11  A    between atoms: _34  and  _35
REMARK   12  A    between atoms: _36  and  _38
REMARK   13  A    between atoms: _38  and  _40
REMARK   14  A    between atoms: _40  and  _42
REMARK                            x       y       z     vdW  Elec       q    Type
REMARK                         _______ _______ _______ _____ _____    ______ ____
ROOT
ATOM      1  C   UNL     1      27.031  16.392  -3.314  0.00  0.00    +0.240 C 
ENDROOT
BRANCH   1   2
ATOM      2  C   UNL     1      25.598  16.529  -3.863  0.00  0.00    +0.100 C 
BRANCH   2   4
ATOM      3  N   UNL     1      23.325  15.898  -3.121  0.00  0.00    -0.134 NA
ATOM      4  C   UNL     1      24.670  15.670  -3.103  0.00  0.00    +0.086 A 
ATOM      5  C   UNL     1      24.931  14.579  -2.307  0.00  0.00    +0.139 A 
ATOM      6  N   UNL     1      23.697  14.160  -1.862  0.00  0.00    -0.220 N 
ATOM      7  N   UNL     1      22.742  14.984  -2.358  0.00  0.00    -0.061 NA
BRANCH   6   8
ATOM      8  C   UNL     1      23.373  13.027  -1.070  0.00  0.00    +0.067 A 
ATOM      9  C   UNL     1      22.036  12.653  -0.859  0.00  0.00    +0.030 A 
ATOM     10  C   UNL     1      21.731  11.610   0.020  0.00  0.00    +0.029 A 
ATOM     11  C   UNL     1      22.761  10.940   0.684  0.00  0.00    +0.094 A 
ATOM     12  C   UNL     1      24.097  11.242   0.412  0.00  0.00    +0.029 A 
ATOM     13  C   UNL     1      24.403  12.294  -0.455  0.00  0.00    +0.030 A 
BRANCH  11  14
ATOM     14  S   UNL     1      22.366   9.658   1.857  0.00  0.00    +0.025 S 
ATOM     15  O   UNL     1      21.785  10.328   3.008  0.00  0.00    -0.164 OA
ATOM     16  O   UNL     1      21.625   8.634   1.146  0.00  0.00    -0.164 OA
BRANCH  14  17
ATOM     17  C   UNL     1      23.878   8.894   2.406  0.00  0.00    +0.094 A 
ATOM     18  C   UNL     1      24.429   7.813   1.717  0.00  0.00    +0.029 A 
ATOM     19  C   UNL     1      25.584   7.198   2.212  0.00  0.00    +0.024 A 
ATOM     20  C   UNL     1      26.223   7.678   3.363  0.00  0.00    +0.025 A 
ATOM     21  C   UNL     1      25.640   8.742   4.056  0.00  0.00    +0.024 A 
ATOM     22  C   UNL     1      24.485   9.365   3.574  0.00  0.00    +0.029 A 
BRANCH  20  23
ATOM     23  N   UNL     1      27.270   6.954   3.940  0.00  0.00    -0.358 N 
ATOM     24  H   UNL     1      27.185   5.946   3.862  0.00  0.00    +0.142 HD
ATOM     25  H   UNL     1      28.196   7.287   3.691  0.00  0.00    +0.142 HD
ENDBRANCH  20  23
ENDBRANCH  14  17
ENDBRANCH  11  14
ENDBRANCH   6   8
ENDBRANCH   2   4
ENDBRANCH   1   2
BRANCH   1  26
ATOM     26  O   UNL     1      27.460  17.348  -2.373  0.00  0.00    -0.450 OA
BRANCH  26  27
ATOM     27  C   UNL     1      27.671  17.446  -1.101  0.00  0.00    +0.400 C 
ATOM     28  N   UNL     1      28.173  16.320  -0.493  0.00  0.00    -0.278 N 
ATOM     29  H   UNL     1      28.453  16.667   0.478  0.00  0.00    +0.152 HD
ATOM     30  O   UNL     1      27.493  18.446  -0.411  0.00  0.00    -0.226 OA
BRANCH  28  31
ATOM     31  C   UNL     1      28.475  14.893  -0.571  0.00  0.00    +0.152 C 
BRANCH  31  32
ATOM     32  C   UNL     1      29.466  14.349   0.479  0.00  0.00    +0.193 C 
ATOM     33  O   UNL     1      29.615  12.936   0.217  0.00  0.00    -0.219 OA
BRANCH  32  34
ATOM     34  C   UNL     1      30.909  14.900   0.454  0.00  0.00    +0.212 C 
ATOM     35  O   UNL     1      30.943  16.239   0.972  0.00  0.00    -0.218 OA
BRANCH  34  36
ATOM     36  C   UNL     1      31.928  14.017   1.269  0.00  0.00    +0.171 C 
ATOM     37  O   UNL     1      32.192  14.542   2.566  0.00  0.00    -0.343 OA
ATOM     38  C   UNL     1      33.226  14.105   3.398  0.00  0.00    +0.220 C 
ATOM     39  C   UNL     1      34.577  14.078   2.664  0.00  0.00    +0.076 C 
ATOM     40  C   UNL     1      34.389  13.256   1.378  0.00  0.00    +0.177 C 
ATOM     41  O   UNL     1      35.622  13.166   0.679  0.00  0.00    -0.221 OA
ATOM     42  C   UNL     1      33.278  13.895   0.489  0.00  0.00    +0.155 C 
BRANCH  42  43
ATOM     43  N   UNL     1      33.101  13.120  -0.737  0.00  0.00    -0.202 NA
ATOM     44  C   UNL     1      33.255  13.497  -2.032  0.00  0.00    +0.242 C 
ATOM     45  C   UNL     1      33.297  12.424  -3.089  0.00  0.00    +0.096 C 
ATOM     46  O   UNL     1      33.357  14.690  -2.309  0.00  0.00    -0.273 OA
ENDBRANCH  42  43
BRANCH  38  47
ATOM     47  C   UNL     1      32.914  12.686   4.126  0.00  0.00    +0.391 C 
ATOM     48  O   UNL     1      34.095  12.294   4.643  0.00  0.00    -0.243 OA
ATOM     49  O   UNL     1      31.581  12.594   4.201  0.00  0.00    -0.243 OA
ENDBRANCH  38  47
ENDBRANCH  34  36
ENDBRANCH  32  34
ENDBRANCH  31  32
ENDBRANCH  28  31
ENDBRANCH  26  27
ENDBRANCH   1  26
TORSDOF 14
