REMARK VINA RESULT:    -6.689      2.004      3.780
REMARK INTER + INTRA:         -12.765
REMARK INTER:                 -11.347
REMARK INTRA:                  -1.418
REMARK UNBOUND:                -1.188
REMARK  Name = lig_assembled_35.pdb
REMARK  14 active torsions:
REMARK  status: ('A' for Active; 'I' for Inactive)
REMARK    1  A    between atoms: _2  and  _8
REMARK    2  A    between atoms: _4  and  _8
REMARK    3  A    between atoms: _4  and  _10
REMARK    4  A    between atoms: _5  and  _6
REMARK    5  A    between atoms: _5  and  _12
REMARK    6  A    between atoms: _8  and  _9
REMARK    7  A    between atoms: _12  and  _14
REMARK    8  A    between atoms: _13  and  _18
REMARK    9  A    between atoms: _14  and  _17
REMARK   10  A    between atoms: _22  and  _32
REMARK   11  A    between atoms: _24  and  _25
REMARK   12  A    between atoms: _26  and  _28
REMARK   13  A    between atoms: _28  and  _30
REMARK   14  A    between atoms: _30  and  _32
REMARK                            x       y       z     vdW  Elec       q    Type
REMARK                         _______ _______ _______ _____ _____    ______ ____
ROOT
ATOM      1  C   UNL     1      28.397  14.496   0.698  0.00  0.00    +0.152 C 
ENDROOT
BRANCH   1   3
ATOM      2  C   UNL     1      28.887  16.941  -0.410  0.00  0.00    +0.400 C 
ATOM      3  N   UNL     1      28.921  15.824   0.392  0.00  0.00    -0.278 N 
ATOM      4  H   UNL     1      29.669  16.063   1.117  0.00  0.00    +0.152 HD
ATOM      5  O   UNL     1      29.511  17.934  -0.046  0.00  0.00    -0.226 OA
BRANCH   2   6
ATOM      6  O   UNL     1      28.212  16.822  -1.506  0.00  0.00    -0.450 OA
BRANCH   6   7
ATOM      7  C   UNL     1      27.122  17.429  -2.160  0.00  0.00    +0.240 C 
BRANCH   7   8
ATOM      8  C   UNL     1      27.034  17.273  -3.690  0.00  0.00    +0.100 C 
BRANCH   8  10
ATOM      9  N   UNL     1      26.044  15.612  -5.235  0.00  0.00    -0.134 NA
ATOM     10  C   UNL     1      25.993  16.290  -4.045  0.00  0.00    +0.086 A 
ATOM     11  C   UNL     1      24.876  15.890  -3.348  0.00  0.00    +0.134 A 
ATOM     12  N   UNL     1      24.297  14.958  -4.158  0.00  0.00    -0.238 N 
ATOM     13  N   UNL     1      24.991  14.811  -5.299  0.00  0.00    -0.065 NA
BRANCH  12  14
ATOM     14  C   UNL     1      23.086  14.183  -3.962  0.00  0.00    +0.214 C 
ATOM     15  C   UNL     1      23.403  12.694  -3.855  0.00  0.00    +0.045 C 
BRANCH  14  16
ATOM     16  C   UNL     1      22.293  14.685  -2.773  0.00  0.00    +0.329 C 
ATOM     17  O   UNL     1      21.379  15.495  -2.845  0.00  0.00    -0.249 OA
BRANCH  16  18
ATOM     18  O   UNL     1      22.694  14.181  -1.580  0.00  0.00    -0.479 OA
ATOM     19  H   UNL     1      22.239  14.541  -0.791  0.00  0.00    +0.295 HD
ENDBRANCH  16  18
ENDBRANCH  14  16
ENDBRANCH  12  14
ENDBRANCH   8  10
ENDBRANCH   7   8
ENDBRANCH   6   7
ENDBRANCH   2   6
ENDBRANCH   1   3
BRANCH   1  20
ATOM     20  C   UNL     1      28.783  13.912   2.073  0.00  0.00    +0.193 C 
ATOM     21  O   UNL     1      27.588  13.314   2.621  0.00  0.00    -0.219 OA
BRANCH  20  22
ATOM     22  C   UNL     1      29.830  12.776   2.099  0.00  0.00    +0.212 C 
ATOM     23  O   UNL     1      29.360  11.644   1.349  0.00  0.00    -0.218 OA
BRANCH  22  24
ATOM     24  C   UNL     1      31.235  13.209   1.530  0.00  0.00    +0.171 C 
ATOM     25  O   UNL     1      31.335  13.030   0.121  0.00  0.00    -0.343 OA
ATOM     26  C   UNL     1      32.529  13.099  -0.600  0.00  0.00    +0.220 C 
ATOM     27  C   UNL     1      33.624  12.216   0.023  0.00  0.00    +0.076 C 
ATOM     28  C   UNL     1      33.740  12.600   1.507  0.00  0.00    +0.177 C 
ATOM     29  O   UNL     1      34.769  11.838   2.123  0.00  0.00    -0.221 OA
ATOM     30  C   UNL     1      32.371  12.390   2.226  0.00  0.00    +0.155 C 
BRANCH  30  31
ATOM     31  N   UNL     1      32.479  12.747   3.638  0.00  0.00    -0.202 NA
ATOM     32  C   UNL     1      32.284  11.985   4.744  0.00  0.00    +0.242 C 
ATOM     33  C   UNL     1      32.748  12.520   6.073  0.00  0.00    +0.096 C 
ATOM     34  O   UNL     1      31.741  10.887   4.637  0.00  0.00    -0.273 OA
ENDBRANCH  30  31
BRANCH  26  35
ATOM     35  C   UNL     1      33.053  14.619  -0.839  0.00  0.00    +0.391 C 
ATOM     36  O   UNL     1      34.341  14.488  -1.211  0.00  0.00    -0.243 OA
ATOM     37  O   UNL     1      31.957  15.387  -0.873  0.00  0.00    -0.243 OA
ENDBRANCH  26  35
ENDBRANCH  22  24
ENDBRANCH  20  22
ENDBRANCH   1  20
TORSDOF 13
