REMARK VINA RESULT:    -7.572      2.414      3.521
REMARK INTER + INTRA:         -14.085
REMARK INTER:                 -12.656
REMARK INTRA:                  -1.430
REMARK UNBOUND:                -1.202
REMARK  Name = lig_assembled_38.pdb
REMARK  12 active torsions:
REMARK  status: ('A' for Active; 'I' for Inactive)
REMARK    1  A    between atoms: _2  and  _8
REMARK    2  A    between atoms: _5  and  _6
REMARK    3  A    between atoms: _5  and  _14
REMARK    4  A    between atoms: _8  and  _9
REMARK    5  A    between atoms: _14  and  _16
REMARK    6  A    between atoms: _15  and  _20
REMARK    7  A    between atoms: _16  and  _19
REMARK    8  A    between atoms: _24  and  _34
REMARK    9  A    between atoms: _26  and  _27
REMARK   10  A    between atoms: _28  and  _30
REMARK   11  A    between atoms: _30  and  _32
REMARK   12  A    between atoms: _32  and  _34
REMARK                            x       y       z     vdW  Elec       q    Type
REMARK                         _______ _______ _______ _____ _____    ______ ____
ROOT
ATOM      1  C   UNL     1      28.315  17.661  -0.483  0.00  0.00    +0.400 C 
ATOM      2  N   UNL     1      29.470  17.626   0.263  0.00  0.00    -0.278 N 
ATOM      3  H   UNL     1      29.356  18.452   0.932  0.00  0.00    +0.152 HD
ATOM      4  O   UNL     1      27.420  18.424  -0.129  0.00  0.00    -0.226 OA
ENDROOT
BRANCH   2   5
ATOM      5  C   UNL     1      30.744  16.975   0.554  0.00  0.00    +0.152 C 
BRANCH   5   6
ATOM      6  C   UNL     1      30.837  15.476   0.201  0.00  0.00    +0.193 C 
ATOM      7  O   UNL     1      31.865  15.350  -0.807  0.00  0.00    -0.219 OA
BRANCH   6   8
ATOM      8  C   UNL     1      31.273  14.504   1.319  0.00  0.00    +0.212 C 
ATOM      9  O   UNL     1      31.616  15.230   2.510  0.00  0.00    -0.218 OA
BRANCH   8  10
ATOM     10  C   UNL     1      30.172  13.435   1.681  0.00  0.00    +0.171 C 
ATOM     11  O   UNL     1      29.956  13.325   3.084  0.00  0.00    -0.343 OA
ATOM     12  C   UNL     1      29.225  12.300   3.691  0.00  0.00    +0.220 C 
ATOM     13  C   UNL     1      29.690  10.911   3.218  0.00  0.00    +0.076 C 
ATOM     14  C   UNL     1      29.654  10.910   1.681  0.00  0.00    +0.177 C 
ATOM     15  O   UNL     1      30.037   9.632   1.192  0.00  0.00    -0.221 OA
ATOM     16  C   UNL     1      30.580  12.033   1.120  0.00  0.00    +0.155 C 
BRANCH  16  17
ATOM     17  N   UNL     1      30.554  12.030  -0.340  0.00  0.00    -0.202 NA
ATOM     18  C   UNL     1      31.562  11.829  -1.226  0.00  0.00    +0.242 C 
ATOM     19  C   UNL     1      31.208  11.586  -2.670  0.00  0.00    +0.096 C 
ATOM     20  O   UNL     1      32.727  11.848  -0.835  0.00  0.00    -0.273 OA
ENDBRANCH  16  17
BRANCH  12  21
ATOM     21  C   UNL     1      27.617  12.475   3.540  0.00  0.00    +0.391 C 
ATOM     22  O   UNL     1      27.116  11.236   3.709  0.00  0.00    -0.243 OA
ATOM     23  O   UNL     1      27.380  13.791   3.608  0.00  0.00    -0.243 OA
ENDBRANCH  12  21
ENDBRANCH   8  10
ENDBRANCH   6   8
ENDBRANCH   5   6
ENDBRANCH   2   5
BRANCH   1  24
ATOM     24  O   UNL     1      28.297  16.892  -1.522  0.00  0.00    -0.450 OA
BRANCH  24  25
ATOM     25  C   UNL     1      27.377  16.143  -2.280  0.00  0.00    +0.240 C 
BRANCH  25  26
ATOM     26  C   UNL     1      26.438  16.916  -3.226  0.00  0.00    +0.100 C 
BRANCH  26  28
ATOM     27  N   UNL     1      25.707  15.552  -5.159  0.00  0.00    -0.134 NA
ATOM     28  C   UNL     1      25.491  15.991  -3.880  0.00  0.00    +0.086 A 
ATOM     29  C   UNL     1      24.344  15.408  -3.391  0.00  0.00    +0.134 A 
ATOM     30  N   UNL     1      23.938  14.580  -4.399  0.00  0.00    -0.247 N 
ATOM     31  N   UNL     1      24.754  14.682  -5.465  0.00  0.00    -0.065 NA
BRANCH  30  32
ATOM     32  C   UNL     1      22.951  13.519  -4.329  0.00  0.00    +0.180 C 
BRANCH  32  33
ATOM     33  C   UNL     1      22.034  13.627  -3.136  0.00  0.00    -0.025 A 
ATOM     34  C   UNL     1      20.918  14.477  -3.159  0.00  0.00    +0.005 A 
ATOM     35  C   UNL     1      20.022  14.505  -2.086  0.00  0.00    +0.001 A 
ATOM     36  C   UNL     1      20.231  13.686  -0.978  0.00  0.00    +0.015 A 
ATOM     37  C   UNL     1      21.342  12.848  -0.942  0.00  0.00    +0.018 A 
ATOM     38 BR   UNL     1      21.625  11.727   0.555  0.00  0.00    -0.050 Br
ATOM     39  C   UNL     1      22.241  12.813  -2.010  0.00  0.00    +0.020 A 
ENDBRANCH  32  33
ENDBRANCH  30  32
ENDBRANCH  26  28
ENDBRANCH  25  26
ENDBRANCH  24  25
ENDBRANCH   1  24
TORSDOF 12
