REMARK VINA RESULT:    -7.358      1.998      3.882
REMARK INTER + INTRA:         -14.471
REMARK INTER:                 -12.840
REMARK INTRA:                  -1.631
REMARK UNBOUND:                -1.952
REMARK  Name = lig_assembled_44.pdb
REMARK  12 active torsions:
REMARK  status: ('A' for Active; 'I' for Inactive)
REMARK    1  A    between atoms: _2  and  _8
REMARK    2  A    between atoms: _5  and  _6
REMARK    3  A    between atoms: _5  and  _14
REMARK    4  A    between atoms: _8  and  _9
REMARK    5  A    between atoms: _14  and  _16
REMARK    6  A    between atoms: _15  and  _20
REMARK    7  A    between atoms: _16  and  _19
REMARK    8  A    between atoms: _24  and  _34
REMARK    9  A    between atoms: _26  and  _27
REMARK   10  A    between atoms: _28  and  _30
REMARK   11  A    between atoms: _30  and  _32
REMARK   12  A    between atoms: _32  and  _34
REMARK                            x       y       z     vdW  Elec       q    Type
REMARK                         _______ _______ _______ _____ _____    ______ ____
ROOT
ATOM      1  C   UNL     1      28.290  17.541  -0.559  0.00  0.00    +0.400 C 
ATOM      2  N   UNL     1      29.497  17.423   0.089  0.00  0.00    -0.278 N 
ATOM      3  H   UNL     1      29.471  18.215   0.805  0.00  0.00    +0.152 HD
ATOM      4  O   UNL     1      27.458  18.318  -0.098  0.00  0.00    -0.226 OA
ENDROOT
BRANCH   2   5
ATOM      5  C   UNL     1      30.761  16.708   0.243  0.00  0.00    +0.152 C 
BRANCH   5   6
ATOM      6  C   UNL     1      30.692  15.172   0.130  0.00  0.00    +0.193 C 
ATOM      7  O   UNL     1      31.652  14.786  -0.879  0.00  0.00    -0.219 OA
BRANCH   6   8
ATOM      8  C   UNL     1      31.086  14.344   1.373  0.00  0.00    +0.212 C 
ATOM      9  O   UNL     1      31.364  15.211   2.485  0.00  0.00    -0.218 OA
BRANCH   8  10
ATOM     10  C   UNL     1      29.982  13.306   1.807  0.00  0.00    +0.171 C 
ATOM     11  O   UNL     1      28.674  13.866   1.811  0.00  0.00    -0.343 OA
ATOM     12  C   UNL     1      27.555  13.253   2.380  0.00  0.00    +0.220 C 
ATOM     13  C   UNL     1      27.828  12.793   3.822  0.00  0.00    +0.076 C 
ATOM     14  C   UNL     1      29.099  11.928   3.799  0.00  0.00    +0.177 C 
ATOM     15  O   UNL     1      29.375  11.443   5.106  0.00  0.00    -0.221 OA
ATOM     16  C   UNL     1      30.299  12.751   3.235  0.00  0.00    +0.155 C 
BRANCH  16  17
ATOM     17  N   UNL     1      31.510  11.934   3.218  0.00  0.00    -0.202 NA
ATOM     18  C   UNL     1      32.650  12.058   3.944  0.00  0.00    +0.242 C 
ATOM     19  C   UNL     1      33.627  10.911   3.944  0.00  0.00    +0.096 C 
ATOM     20  O   UNL     1      32.858  13.091   4.578  0.00  0.00    -0.273 OA
ENDBRANCH  16  17
BRANCH  12  21
ATOM     21  C   UNL     1      26.947  12.048   1.475  0.00  0.00    +0.391 C 
ATOM     22  O   UNL     1      26.039  11.444   2.265  0.00  0.00    -0.243 OA
ATOM     23  O   UNL     1      27.343  12.293   0.219  0.00  0.00    -0.243 OA
ENDBRANCH  12  21
ENDBRANCH   8  10
ENDBRANCH   6   8
ENDBRANCH   5   6
ENDBRANCH   2   5
BRANCH   1  24
ATOM     24  O   UNL     1      28.158  16.830  -1.631  0.00  0.00    -0.450 OA
BRANCH  24  25
ATOM     25  C   UNL     1      27.182  16.049  -2.281  0.00  0.00    +0.240 C 
BRANCH  25  26
ATOM     26  C   UNL     1      26.307  16.743  -3.342  0.00  0.00    +0.100 C 
BRANCH  26  28
ATOM     27  N   UNL     1      25.167  15.054  -4.752  0.00  0.00    -0.134 NA
ATOM     28  C   UNL     1      25.141  15.904  -3.678  0.00  0.00    +0.086 A 
ATOM     29  C   UNL     1      23.926  15.793  -3.044  0.00  0.00    +0.134 A 
ATOM     30  N   UNL     1      23.287  14.804  -3.733  0.00  0.00    -0.247 N 
ATOM     31  N   UNL     1      24.018  14.391  -4.784  0.00  0.00    -0.065 NA
BRANCH  30  32
ATOM     32  C   UNL     1      21.994  14.208  -3.454  0.00  0.00    +0.180 C 
BRANCH  32  33
ATOM     33  C   UNL     1      22.010  13.439  -2.153  0.00  0.00    -0.026 A 
ATOM     34  C   UNL     1      20.888  13.436  -1.311  0.00  0.00    +0.006 A 
ATOM     35  C   UNL     1      20.911  12.737  -0.102  0.00  0.00    +0.015 A 
ATOM     36  C   UNL     1      22.056  12.036   0.270  0.00  0.00    +0.018 A 
ATOM     37 BR   UNL     1      22.080  11.076   1.898  0.00  0.00    -0.050 Br
ATOM     38  C   UNL     1      23.183  12.039  -0.548  0.00  0.00    +0.015 A 
ATOM     39  C   UNL     1      23.162  12.743  -1.755  0.00  0.00    +0.006 A 
ENDBRANCH  32  33
ENDBRANCH  30  32
ENDBRANCH  26  28
ENDBRANCH  25  26
ENDBRANCH  24  25
ENDBRANCH   1  24
TORSDOF 12
