REMARK VINA RESULT:    -6.852      1.970      2.684
REMARK INTER + INTRA:         -13.499
REMARK INTER:                 -11.886
REMARK INTRA:                  -1.612
REMARK UNBOUND:                -1.841
REMARK  Name = lig_assembled_39.pdb
REMARK  12 active torsions:
REMARK  status: ('A' for Active; 'I' for Inactive)
REMARK    1  A    between atoms: _2  and  _8
REMARK    2  A    between atoms: _5  and  _6
REMARK    3  A    between atoms: _5  and  _14
REMARK    4  A    between atoms: _8  and  _9
REMARK    5  A    between atoms: _14  and  _16
REMARK    6  A    between atoms: _15  and  _20
REMARK    7  A    between atoms: _16  and  _19
REMARK    8  A    between atoms: _24  and  _34
REMARK    9  A    between atoms: _26  and  _27
REMARK   10  A    between atoms: _28  and  _30
REMARK   11  A    between atoms: _30  and  _32
REMARK   12  A    between atoms: _32  and  _34
REMARK                            x       y       z     vdW  Elec       q    Type
REMARK                         _______ _______ _______ _____ _____    ______ ____
ROOT
ATOM      1  C   UNL     1      28.224  17.043  -0.487  0.00  0.00    +0.400 C 
ATOM      2  N   UNL     1      28.789  16.008   0.219  0.00  0.00    -0.278 N 
ATOM      3  H   UNL     1      29.078  16.466   1.141  0.00  0.00    +0.152 HD
ATOM      4  O   UNL     1      28.021  18.102   0.100  0.00  0.00    -0.226 OA
ENDROOT
BRANCH   2   5
ATOM      5  C   UNL     1      29.150  14.594   0.280  0.00  0.00    +0.152 C 
BRANCH   5   6
ATOM      6  C   UNL     1      30.649  14.267   0.116  0.00  0.00    +0.193 C 
ATOM      7  O   UNL     1      31.192  15.252  -0.791  0.00  0.00    -0.219 OA
BRANCH   6   8
ATOM      8  C   UNL     1      31.544  14.365   1.371  0.00  0.00    +0.212 C 
ATOM      9  O   UNL     1      31.208  15.534   2.137  0.00  0.00    -0.218 OA
BRANCH   8  10
ATOM     10  C   UNL     1      31.443  13.102   2.309  0.00  0.00    +0.171 C 
ATOM     11  O   UNL     1      30.293  13.133   3.148  0.00  0.00    -0.343 OA
ATOM     12  C   UNL     1      30.086  12.278   4.233  0.00  0.00    +0.220 C 
ATOM     13  C   UNL     1      31.302  12.245   5.175  0.00  0.00    +0.076 C 
ATOM     14  C   UNL     1      32.539  11.920   4.321  0.00  0.00    +0.177 C 
ATOM     15  O   UNL     1      33.689  11.839   5.151  0.00  0.00    -0.221 OA
ATOM     16  C   UNL     1      32.721  12.996   3.206  0.00  0.00    +0.155 C 
BRANCH  16  17
ATOM     17  N   UNL     1      33.899  12.694   2.397  0.00  0.00    -0.202 NA
ATOM     18  C   UNL     1      35.134  13.256   2.420  0.00  0.00    +0.242 C 
ATOM     19  C   UNL     1      36.251  12.560   1.687  0.00  0.00    +0.096 C 
ATOM     20  O   UNL     1      35.313  14.306   3.033  0.00  0.00    -0.273 OA
ENDBRANCH  16  17
BRANCH  12  21
ATOM     21  C   UNL     1      29.627  10.781   3.799  0.00  0.00    +0.391 C 
ATOM     22  O   UNL     1      29.911  10.008   4.865  0.00  0.00    -0.243 OA
ATOM     23  O   UNL     1      28.881  10.928   2.697  0.00  0.00    -0.243 OA
ENDBRANCH  12  21
ENDBRANCH   8  10
ENDBRANCH   6   8
ENDBRANCH   5   6
ENDBRANCH   2   5
BRANCH   1  24
ATOM     24  O   UNL     1      27.987  16.805  -1.735  0.00  0.00    -0.450 OA
BRANCH  24  25
ATOM     25  C   UNL     1      26.961  16.280  -2.546  0.00  0.00    +0.240 C 
BRANCH  25  26
ATOM     26  C   UNL     1      26.955  14.758  -2.788  0.00  0.00    +0.100 C 
BRANCH  26  28
ATOM     27  N   UNL     1      24.535  14.885  -3.294  0.00  0.00    -0.134 NA
ATOM     28  C   UNL     1      25.581  14.230  -2.699  0.00  0.00    +0.086 A 
ATOM     29  C   UNL     1      25.112  13.087  -2.090  0.00  0.00    +0.134 A 
ATOM     30  N   UNL     1      23.789  13.063  -2.421  0.00  0.00    -0.247 N 
ATOM     31  N   UNL     1      23.433  14.175  -3.092  0.00  0.00    -0.065 NA
BRANCH  30  32
ATOM     32  C   UNL     1      22.829  11.992  -2.196  0.00  0.00    +0.181 C 
BRANCH  32  33
ATOM     33  C   UNL     1      22.470  11.806  -0.733  0.00  0.00    -0.012 A 
ATOM     34  C   UNL     1      23.162  10.877   0.072  0.00  0.00    +0.006 A 
ATOM     35  C   UNL     1      22.839  10.693   1.419  0.00  0.00    +0.000 A 
ATOM     36  C   UNL     1      21.798  11.415   1.988  0.00  0.00    +0.001 A 
ATOM     37  C   UNL     1      21.069  12.307   1.206  0.00  0.00    +0.015 A 
ATOM     38  C   UNL     1      21.393  12.494  -0.145  0.00  0.00    +0.023 A 
ATOM     39 BR   UNL     1      20.290  13.693  -1.127  0.00  0.00    -0.050 Br
ENDBRANCH  32  33
ENDBRANCH  30  32
ENDBRANCH  26  28
ENDBRANCH  25  26
ENDBRANCH  24  25
ENDBRANCH   1  24
TORSDOF 12
