REMARK VINA RESULT:    -7.243      2.817      8.742
REMARK INTER + INTRA:         -13.827
REMARK INTER:                 -11.865
REMARK INTRA:                  -1.962
REMARK UNBOUND:                -1.503
REMARK  Name = lig_assembled_89.pdb
REMARK  14 active torsions:
REMARK  status: ('A' for Active; 'I' for Inactive)
REMARK    1  A    between atoms: _2  and  _11
REMARK    2  A    between atoms: _5  and  _19
REMARK    3  A    between atoms: _8  and  _9
REMARK    4  A    between atoms: _8  and  _24
REMARK    5  A    between atoms: _19  and  _20
REMARK    6  A    between atoms: _19  and  _21
REMARK    7  A    between atoms: _24  and  _26
REMARK    8  A    between atoms: _25  and  _30
REMARK    9  A    between atoms: _26  and  _29
REMARK   10  A    between atoms: _34  and  _44
REMARK   11  A    between atoms: _36  and  _37
REMARK   12  A    between atoms: _38  and  _40
REMARK   13  A    between atoms: _40  and  _42
REMARK   14  A    between atoms: _42  and  _44
REMARK                            x       y       z     vdW  Elec       q    Type
REMARK                         _______ _______ _______ _____ _____    ______ ____
ROOT
ATOM      1  C   UNL     1      28.628  16.435  -0.484  0.00  0.00    +0.240 C 
ENDROOT
BRANCH   1   2
ATOM      2  C   UNL     1      30.010  17.012  -0.119  0.00  0.00    +0.100 C 
BRANCH   2   4
ATOM      3  N   UNL     1      31.559  15.117  -0.418  0.00  0.00    -0.134 NA
ATOM      4  C   UNL     1      30.878  15.950   0.418  0.00  0.00    +0.087 A 
ATOM      5  C   UNL     1      31.175  15.620   1.719  0.00  0.00    +0.141 A 
ATOM      6  N   UNL     1      32.078  14.579   1.631  0.00  0.00    -0.200 N 
ATOM      7  N   UNL     1      32.288  14.296   0.324  0.00  0.00    -0.059 NA
BRANCH   6   8
ATOM      8  C   UNL     1      32.754  13.968   2.728  0.00  0.00    +0.186 A 
ATOM      9  C   UNL     1      32.304  13.018   3.623  0.00  0.00    +0.158 A 
ATOM     10  C   UNL     1      31.025  12.422   3.858  0.00  0.00    +0.280 A 
ATOM     11  O   UNL     1      29.982  12.937   3.479  0.00  0.00    -0.265 OA
ATOM     12  N   UNL     1      31.050  11.216   4.588  0.00  0.00    -0.302 N 
ATOM     13  C   UNL     1      32.193  10.887   5.410  0.00  0.00    +0.069 A 
ATOM     14  C   UNL     1      32.171   9.858   6.362  0.00  0.00    +0.028 A 
ATOM     15  C   UNL     1      33.280   9.600   7.179  0.00  0.00    +0.002 A 
ATOM     16  C   UNL     1      34.441  10.355   7.052  0.00  0.00    +0.002 A 
ATOM     17  C   UNL     1      34.503  11.376   6.108  0.00  0.00    +0.028 A 
ATOM     18  C   UNL     1      33.384  11.640   5.305  0.00  0.00    +0.072 A 
ATOM     19  N   UNL     1      33.410  12.667   4.348  0.00  0.00    -0.291 N 
ATOM     20  C   UNL     1      34.438  13.482   3.949  0.00  0.00    +0.207 A 
ATOM     21  N   UNL     1      34.081  14.275   2.961  0.00  0.00    -0.216 NA
BRANCH  12  22
ATOM     22  C   UNL     1      29.803  10.416   4.647  0.00  0.00    +0.085 C 
ATOM     23  C   UNL     1      29.214  10.083   3.263  0.00  0.00    +0.030 C 
ATOM     24  C   UNL     1      28.747  11.077   5.534  0.00  0.00    +0.030 C 
ENDBRANCH  12  22
ENDBRANCH   6   8
ENDBRANCH   2   4
ENDBRANCH   1   2
BRANCH   1  25
ATOM     25  O   UNL     1      28.099  16.765  -1.747  0.00  0.00    -0.450 OA
BRANCH  25  26
ATOM     26  C   UNL     1      27.311  17.639  -2.282  0.00  0.00    +0.400 C 
ATOM     27  N   UNL     1      26.543  17.187  -3.329  0.00  0.00    -0.278 N 
ATOM     28  H   UNL     1      25.846  17.982  -3.485  0.00  0.00    +0.152 HD
ATOM     29  O   UNL     1      27.170  18.805  -1.921  0.00  0.00    -0.226 OA
BRANCH  27  30
ATOM     30  C   UNL     1      26.270  16.140  -4.310  0.00  0.00    +0.152 C 
BRANCH  30  31
ATOM     31  C   UNL     1      25.911  14.752  -3.740  0.00  0.00    +0.193 C 
ATOM     32  O   UNL     1      27.154  14.036  -3.577  0.00  0.00    -0.219 OA
BRANCH  31  33
ATOM     33  C   UNL     1      25.250  14.701  -2.345  0.00  0.00    +0.212 C 
ATOM     34  O   UNL     1      24.138  15.608  -2.283  0.00  0.00    -0.218 OA
BRANCH  33  35
ATOM     35  C   UNL     1      24.750  13.261  -1.943  0.00  0.00    +0.171 C 
ATOM     36  O   UNL     1      23.330  13.171  -1.887  0.00  0.00    -0.343 OA
ATOM     37  C   UNL     1      22.630  12.099  -1.329  0.00  0.00    +0.220 C 
ATOM     38  C   UNL     1      23.137  11.759   0.083  0.00  0.00    +0.076 C 
ATOM     39  C   UNL     1      24.659  11.561  -0.007  0.00  0.00    +0.177 C 
ATOM     40  O   UNL     1      25.175  11.205   1.267  0.00  0.00    -0.221 OA
ATOM     41  C   UNL     1      25.338  12.857  -0.552  0.00  0.00    +0.155 C 
BRANCH  41  42
ATOM     42  N   UNL     1      26.785  12.675  -0.633  0.00  0.00    -0.202 NA
ATOM     43  C   UNL     1      27.744  12.925   0.295  0.00  0.00    +0.242 C 
ATOM     44  C   UNL     1      29.126  12.373   0.061  0.00  0.00    +0.096 C 
ATOM     45  O   UNL     1      27.466  13.587   1.293  0.00  0.00    -0.273 OA
ENDBRANCH  41  42
BRANCH  37  46
ATOM     46  C   UNL     1      22.593  10.784  -2.283  0.00  0.00    +0.391 C 
ATOM     47  O   UNL     1      23.100  11.195  -3.461  0.00  0.00    -0.243 OA
ATOM     48  O   UNL     1      22.366   9.744  -1.471  0.00  0.00    -0.243 OA
ENDBRANCH  37  46
ENDBRANCH  33  35
ENDBRANCH  31  33
ENDBRANCH  30  31
ENDBRANCH  27  30
ENDBRANCH  25  26
ENDBRANCH   1  25
TORSDOF 12
