REMARK VINA RESULT:    -6.520      1.746      2.321
REMARK INTER + INTRA:         -14.973
REMARK INTER:                 -13.398
REMARK INTRA:                  -1.575
REMARK UNBOUND:                -3.117
REMARK  Name = lig_assembled_9.pdb
REMARK  15 active torsions:
REMARK  status: ('A' for Active; 'I' for Inactive)
REMARK    1  A    between atoms: _2  and  _8
REMARK    2  A    between atoms: _5  and  _6
REMARK    3  A    between atoms: _5  and  _18
REMARK    4  A    between atoms: _10  and  _11
REMARK    5  A    between atoms: _11  and  _16
REMARK    6  A    between atoms: _12  and  _13
REMARK    7  A    between atoms: _12  and  _16
REMARK    8  A    between atoms: _18  and  _20
REMARK    9  A    between atoms: _19  and  _24
REMARK   10  A    between atoms: _20  and  _23
REMARK   11  A    between atoms: _28  and  _38
REMARK   12  A    between atoms: _30  and  _31
REMARK   13  A    between atoms: _32  and  _34
REMARK   14  A    between atoms: _34  and  _36
REMARK   15  A    between atoms: _36  and  _38
REMARK                            x       y       z     vdW  Elec       q    Type
REMARK                         _______ _______ _______ _____ _____    ______ ____
ROOT
ATOM      1  C   UNL     1      28.535  17.233  -0.859  0.00  0.00    +0.400 C 
ATOM      2  N   UNL     1      29.044  16.198  -0.110  0.00  0.00    -0.278 N 
ATOM      3  H   UNL     1      29.664  16.692   0.606  0.00  0.00    +0.152 HD
ATOM      4  O   UNL     1      28.727  18.381  -0.465  0.00  0.00    -0.226 OA
ENDROOT
BRANCH   2   5
ATOM      5  C   UNL     1      29.103  14.761   0.147  0.00  0.00    +0.152 C 
BRANCH   5   6
ATOM      6  C   UNL     1      30.513  14.161   0.325  0.00  0.00    +0.193 C 
ATOM      7  O   UNL     1      30.352  12.726   0.363  0.00  0.00    -0.219 OA
BRANCH   6   8
ATOM      8  C   UNL     1      31.541  14.404  -0.802  0.00  0.00    +0.212 C 
ATOM      9  O   UNL     1      31.964  15.777  -0.809  0.00  0.00    -0.218 OA
BRANCH   8  10
ATOM     10  C   UNL     1      32.817  13.484  -0.693  0.00  0.00    +0.171 C 
ATOM     11  O   UNL     1      33.687  13.878   0.362  0.00  0.00    -0.343 OA
ATOM     12  C   UNL     1      34.989  13.400   0.531  0.00  0.00    +0.220 C 
ATOM     13  C   UNL     1      35.809  13.512  -0.766  0.00  0.00    +0.076 C 
ATOM     14  C   UNL     1      35.006  12.824  -1.883  0.00  0.00    +0.177 C 
ATOM     15  O   UNL     1      35.740  12.863  -3.098  0.00  0.00    -0.221 OA
ATOM     16  C   UNL     1      33.611  13.505  -2.040  0.00  0.00    +0.155 C 
BRANCH  16  17
ATOM     17  N   UNL     1      32.848  12.859  -3.104  0.00  0.00    -0.202 NA
ATOM     18  C   UNL     1      32.758  13.173  -4.421  0.00  0.00    +0.242 C 
ATOM     19  C   UNL     1      32.136  12.169  -5.355  0.00  0.00    +0.096 C 
ATOM     20  O   UNL     1      33.182  14.257  -4.818  0.00  0.00    -0.273 OA
ENDBRANCH  16  17
BRANCH  12  21
ATOM     21  C   UNL     1      35.052  11.900   1.150  0.00  0.00    +0.391 C 
ATOM     22  O   UNL     1      33.777  11.599   1.465  0.00  0.00    -0.243 OA
ATOM     23  O   UNL     1      36.265  11.423   0.841  0.00  0.00    -0.243 OA
ENDBRANCH  12  21
ENDBRANCH   8  10
ENDBRANCH   6   8
ENDBRANCH   5   6
ENDBRANCH   2   5
BRANCH   1  24
ATOM     24  O   UNL     1      27.918  16.891  -1.942  0.00  0.00    -0.450 OA
BRANCH  24  25
ATOM     25  C   UNL     1      26.890  17.364  -2.781  0.00  0.00    +0.240 C 
BRANCH  25  26
ATOM     26  C   UNL     1      26.516  16.502  -4.002  0.00  0.00    +0.100 C 
BRANCH  26  28
ATOM     27  N   UNL     1      24.803  14.827  -4.623  0.00  0.00    -0.134 NA
ATOM     28  C   UNL     1      25.377  15.623  -3.676  0.00  0.00    +0.086 A 
ATOM     29  C   UNL     1      24.731  15.434  -2.477  0.00  0.00    +0.139 A 
ATOM     30  N   UNL     1      23.781  14.471  -2.734  0.00  0.00    -0.220 N 
ATOM     31  N   UNL     1      23.829  14.136  -4.045  0.00  0.00    -0.061 NA
BRANCH  30  32
ATOM     32  C   UNL     1      22.881  13.850  -1.831  0.00  0.00    +0.068 A 
ATOM     33  C   UNL     1      23.333  12.867  -0.939  0.00  0.00    +0.042 A 
ATOM     34  C   UNL     1      22.434  12.232  -0.069  0.00  0.00    +0.061 A 
ATOM     35  C   UNL     1      21.079  12.587  -0.092  0.00  0.00    +0.015 A 
ATOM     36  C   UNL     1      20.629  13.574  -0.970  0.00  0.00    +0.003 A 
ATOM     37  C   UNL     1      21.524  14.205  -1.836  0.00  0.00    +0.028 A 
BRANCH  34  38
ATOM     38  C   UNL     1      22.882  11.229   0.932  0.00  0.00    +0.339 C 
ATOM     39  O   UNL     1      24.043  11.093   1.283  0.00  0.00    -0.245 OA
BRANCH  38  40
ATOM     40  O   UNL     1      21.835  10.450   1.302  0.00  0.00    -0.461 OA
BRANCH  40  41
ATOM     41  C   UNL     1      22.017   9.041   1.111  0.00  0.00    +0.229 C 
ATOM     42  C   UNL     1      22.115   8.778  -0.381  0.00  0.00    +0.048 C 
ENDBRANCH  40  41
ENDBRANCH  38  40
ENDBRANCH  34  38
ENDBRANCH  30  32
ENDBRANCH  26  28
ENDBRANCH  25  26
ENDBRANCH  24  25
ENDBRANCH   1  24
TORSDOF 14
