REMARK VINA RESULT:    -6.206      2.436      3.633
REMARK INTER + INTRA:         -13.849
REMARK INTER:                 -11.965
REMARK INTRA:                  -1.884
REMARK UNBOUND:                -1.837
REMARK  Name = lig_assembled_45.pdb
REMARK  19 active torsions:
REMARK  status: ('A' for Active; 'I' for Inactive)
REMARK    1  A    between atoms: _2  and  _9
REMARK    2  A    between atoms: _3  and  _11
REMARK    3  A    between atoms: _3  and  _12
REMARK    4  A    between atoms: _3  and  _13
REMARK    5  A    between atoms: _3  and  _15
REMARK    6  A    between atoms: _5  and  _15
REMARK    7  A    between atoms: _6  and  _7
REMARK    8  A    between atoms: _6  and  _16
REMARK    9  A    between atoms: _9  and  _10
REMARK   10  A    between atoms: _10  and  _11
REMARK   11  A    between atoms: _13  and  _14
REMARK   12  A    between atoms: _16  and  _18
REMARK   13  A    between atoms: _17  and  _22
REMARK   14  A    between atoms: _18  and  _21
REMARK   15  A    between atoms: _26  and  _36
REMARK   16  A    between atoms: _28  and  _29
REMARK   17  A    between atoms: _30  and  _32
REMARK   18  A    between atoms: _32  and  _34
REMARK   19  A    between atoms: _34  and  _36
REMARK                            x       y       z     vdW  Elec       q    Type
REMARK                         _______ _______ _______ _____ _____    ______ ____
ROOT
ATOM      1  C   UNL     1      29.007  17.123  -0.354  0.00  0.00    +0.400 C 
ATOM      2  N   UNL     1      29.122  15.899   0.263  0.00  0.00    -0.278 N 
ATOM      3  H   UNL     1      29.800  16.091   1.067  0.00  0.00    +0.152 HD
ATOM      4  O   UNL     1      29.497  18.101   0.204  0.00  0.00    -0.226 OA
ENDROOT
BRANCH   2   5
ATOM      5  C   UNL     1      28.733  14.493   0.320  0.00  0.00    +0.152 C 
BRANCH   5   6
ATOM      6  C   UNL     1      29.875  13.480   0.544  0.00  0.00    +0.193 C 
ATOM      7  O   UNL     1      29.267  12.169   0.573  0.00  0.00    -0.219 OA
BRANCH   6   8
ATOM      8  C   UNL     1      30.963  13.376  -0.547  0.00  0.00    +0.212 C 
ATOM      9  O   UNL     1      31.191  14.659  -1.152  0.00  0.00    -0.218 OA
BRANCH   8  10
ATOM     10  C   UNL     1      32.337  12.821  -0.009  0.00  0.00    +0.171 C 
ATOM     11  O   UNL     1      32.607  13.232   1.328  0.00  0.00    -0.343 OA
ATOM     12  C   UNL     1      33.844  13.092   1.960  0.00  0.00    +0.220 C 
ATOM     13  C   UNL     1      34.991  13.650   1.100  0.00  0.00    +0.076 C 
ATOM     14  C   UNL     1      34.894  12.991  -0.285  0.00  0.00    +0.177 C 
ATOM     15  O   UNL     1      35.958  13.443  -1.110  0.00  0.00    -0.221 OA
ATOM     16  C   UNL     1      33.507  13.297  -0.931  0.00  0.00    +0.155 C 
BRANCH  16  17
ATOM     17  N   UNL     1      33.413  12.678  -2.250  0.00  0.00    -0.202 NA
ATOM     18  C   UNL     1      33.457  13.248  -3.481  0.00  0.00    +0.242 C 
ATOM     19  C   UNL     1      33.634  12.351  -4.679  0.00  0.00    +0.096 C 
ATOM     20  O   UNL     1      33.354  14.468  -3.590  0.00  0.00    -0.273 OA
ENDBRANCH  16  17
BRANCH  12  21
ATOM     21  C   UNL     1      34.151  11.574   2.452  0.00  0.00    +0.391 C 
ATOM     22  O   UNL     1      35.473  11.554   2.713  0.00  0.00    -0.243 OA
ATOM     23  O   UNL     1      32.959  11.017   2.698  0.00  0.00    -0.243 OA
ENDBRANCH  12  21
ENDBRANCH   8  10
ENDBRANCH   6   8
ENDBRANCH   5   6
ENDBRANCH   2   5
BRANCH   1  24
ATOM     24  O   UNL     1      28.408  17.117  -1.500  0.00  0.00    -0.450 OA
BRANCH  24  25
ATOM     25  C   UNL     1      27.118  17.310  -2.032  0.00  0.00    +0.240 C 
BRANCH  25  26
ATOM     26  C   UNL     1      26.968  17.268  -3.564  0.00  0.00    +0.100 C 
BRANCH  26  28
ATOM     27  N   UNL     1      26.194  15.682  -5.306  0.00  0.00    -0.134 NA
ATOM     28  C   UNL     1      26.363  15.991  -3.984  0.00  0.00    +0.086 A 
ATOM     29  C   UNL     1      25.889  14.951  -3.215  0.00  0.00    +0.133 A 
ATOM     30  N   UNL     1      25.452  14.051  -4.137  0.00  0.00    -0.251 N 
ATOM     31  N   UNL     1      25.626  14.486  -5.387  0.00  0.00    -0.065 NA
BRANCH  30  32
ATOM     32  C   UNL     1      24.833  12.767  -3.884  0.00  0.00    +0.150 C 
BRANCH  32  33
ATOM     33  C   UNL     1      23.333  12.767  -4.151  0.00  0.00    +0.074 C 
BRANCH  33  34
ATOM     34  C   UNL     1      22.414  13.003  -2.946  0.00  0.00    +0.134 C 
BRANCH  34  35
ATOM     35  N   UNL     1      21.411  14.202  -3.010  0.00  0.00    +0.241 N 
ATOM     36  C   UNL     1      22.210  15.506  -3.169  0.00  0.00    +0.192 C 
BRANCH  35  37
ATOM     37  C   UNL     1      20.684  14.232  -1.624  0.00  0.00    +0.129 C 
ATOM     38  C   UNL     1      20.900  12.979  -0.784  0.00  0.00    +0.060 C 
ENDBRANCH  35  37
BRANCH  35  39
ATOM     39  C   UNL     1      20.370  14.113  -4.141  0.00  0.00    +0.129 C 
ATOM     40  C   UNL     1      20.665  15.011  -5.332  0.00  0.00    +0.060 C 
ENDBRANCH  35  39
ENDBRANCH  34  35
ENDBRANCH  33  34
ENDBRANCH  32  33
ENDBRANCH  30  32
ENDBRANCH  26  28
ENDBRANCH  25  26
ENDBRANCH  24  25
ENDBRANCH   1  24
TORSDOF 16
