REMARK VINA RESULT:    -6.742      2.623      9.615
REMARK INTER + INTRA:         -15.013
REMARK INTER:                 -12.276
REMARK INTRA:                  -2.737
REMARK UNBOUND:                -1.965
REMARK  Name = lig_assembled_11.pdb
REMARK  17 active torsions:
REMARK  status: ('A' for Active; 'I' for Inactive)
REMARK    1  A    between atoms: _2  and  _8
REMARK    2  A    between atoms: _4  and  _8
REMARK    3  A    between atoms: _4  and  _12
REMARK    4  A    between atoms: _5  and  _6
REMARK    5  A    between atoms: _5  and  _16
REMARK    6  A    between atoms: _8  and  _9
REMARK    7  A    between atoms: _9  and  _10
REMARK    8  A    between atoms: _10  and  _11
REMARK    9  A    between atoms: _11  and  _14
REMARK   10  A    between atoms: _16  and  _18
REMARK   11  A    between atoms: _17  and  _22
REMARK   12  A    between atoms: _18  and  _21
REMARK   13  A    between atoms: _26  and  _36
REMARK   14  A    between atoms: _28  and  _29
REMARK   15  A    between atoms: _30  and  _32
REMARK   16  A    between atoms: _32  and  _34
REMARK   17  A    between atoms: _34  and  _36
REMARK                            x       y       z     vdW  Elec       q    Type
REMARK                         _______ _______ _______ _____ _____    ______ ____
ROOT
ATOM      1  C   UNL     1      27.511  17.326  -1.511  0.00  0.00    +0.400 C 
ATOM      2  N   UNL     1      26.425  16.939  -2.260  0.00  0.00    -0.278 N 
ATOM      3  H   UNL     1      25.728  17.736  -2.114  0.00  0.00    +0.152 HD
ATOM      4  O   UNL     1      27.520  18.464  -1.048  0.00  0.00    -0.226 OA
ENDROOT
BRANCH   1   5
ATOM      5  O   UNL     1      28.422  16.426  -1.339  0.00  0.00    -0.450 OA
BRANCH   5   6
ATOM      6  C   UNL     1      29.135  15.815  -0.288  0.00  0.00    +0.240 C 
BRANCH   6   7
ATOM      7  C   UNL     1      30.460  16.471   0.147  0.00  0.00    +0.100 C 
BRANCH   7   9
ATOM      8  N   UNL     1      31.912  14.472   0.289  0.00  0.00    -0.134 NA
ATOM      9  C   UNL     1      31.282  15.513   0.910  0.00  0.00    +0.086 A 
ATOM     10  C   UNL     1      31.564  15.470   2.256  0.00  0.00    +0.134 A 
ATOM     11  N   UNL     1      32.336  14.355   2.403  0.00  0.00    -0.238 N 
ATOM     12  N   UNL     1      32.567  13.776   1.209  0.00  0.00    -0.065 NA
BRANCH  11  13
ATOM     13  C   UNL     1      33.021  13.825   3.579  0.00  0.00    +0.217 C 
BRANCH  13  14
ATOM     14  C   UNL     1      34.536  13.923   3.503  0.00  0.00    +0.330 C 
ATOM     15  O   UNL     1      35.331  13.219   4.107  0.00  0.00    -0.249 OA
BRANCH  14  16
ATOM     16  O   UNL     1      34.985  14.904   2.679  0.00  0.00    -0.479 OA
ATOM     17  H   UNL     1      35.804  14.725   2.177  0.00  0.00    +0.295 HD
ENDBRANCH  14  16
ENDBRANCH  13  14
BRANCH  13  18
ATOM     18  C   UNL     1      32.535  12.408   3.935  0.00  0.00    +0.049 C 
BRANCH  18  19
ATOM     19  C   UNL     1      31.161  12.349   4.614  0.00  0.00    +0.123 C 
BRANCH  19  20
ATOM     20  C   UNL     1      30.152  11.645   3.734  0.00  0.00    +0.305 C 
ATOM     21  O   UNL     1      29.294  10.876   4.137  0.00  0.00    -0.251 OA
BRANCH  20  22
ATOM     22  O   UNL     1      30.311  11.936   2.425  0.00  0.00    -0.481 OA
ATOM     23  H   UNL     1      30.407  12.888   2.230  0.00  0.00    +0.295 HD
ENDBRANCH  20  22
ENDBRANCH  19  20
ENDBRANCH  18  19
ENDBRANCH  13  18
ENDBRANCH  11  13
ENDBRANCH   7   9
ENDBRANCH   6   7
ENDBRANCH   5   6
ENDBRANCH   1   5
BRANCH   2  24
ATOM     24  C   UNL     1      25.817  15.958  -3.155  0.00  0.00    +0.152 C 
BRANCH  24  25
ATOM     25  C   UNL     1      24.784  15.006  -2.518  0.00  0.00    +0.193 C 
ATOM     26  O   UNL     1      23.631  15.002  -3.388  0.00  0.00    -0.219 OA
BRANCH  25  27
ATOM     27  C   UNL     1      25.171  13.516  -2.385  0.00  0.00    +0.212 C 
ATOM     28  O   UNL     1      26.480  13.287  -2.931  0.00  0.00    -0.218 OA
BRANCH  27  29
ATOM     29  C   UNL     1      25.148  12.996  -0.897  0.00  0.00    +0.171 C 
ATOM     30  O   UNL     1      26.288  12.206  -0.575  0.00  0.00    -0.343 OA
ATOM     31  C   UNL     1      26.407  11.427   0.578  0.00  0.00    +0.220 C 
ATOM     32  C   UNL     1      25.184  10.515   0.779  0.00  0.00    +0.076 C 
ATOM     33  C   UNL     1      23.931  11.404   0.725  0.00  0.00    +0.177 C 
ATOM     34  O   UNL     1      22.771  10.615   0.946  0.00  0.00    -0.221 OA
ATOM     35  C   UNL     1      23.858  12.148  -0.644  0.00  0.00    +0.155 C 
BRANCH  35  36
ATOM     36  N   UNL     1      22.665  12.989  -0.702  0.00  0.00    -0.202 NA
ATOM     37  C   UNL     1      21.584  12.906  -1.519  0.00  0.00    +0.242 C 
ATOM     38  C   UNL     1      20.362  13.716  -1.172  0.00  0.00    +0.096 C 
ATOM     39  O   UNL     1      21.625  12.179  -2.510  0.00  0.00    -0.273 OA
ENDBRANCH  35  36
BRANCH  31  40
ATOM     40  C   UNL     1      26.733  12.293   1.914  0.00  0.00    +0.391 C 
ATOM     41  O   UNL     1      26.197  11.584   2.926  0.00  0.00    -0.243 OA
ATOM     42  O   UNL     1      27.648  13.200   1.552  0.00  0.00    -0.243 OA
ENDBRANCH  31  40
ENDBRANCH  27  29
ENDBRANCH  25  27
ENDBRANCH  24  25
ENDBRANCH   2  24
TORSDOF 17
