REMARK VINA RESULT:    -7.318      3.332      8.473
REMARK INTER + INTRA:         -13.089
REMARK INTER:                 -11.243
REMARK INTRA:                  -1.846
REMARK UNBOUND:                -1.064
REMARK  Name = lig_assembled_27.pdb
REMARK  11 active torsions:
REMARK  status: ('A' for Active; 'I' for Inactive)
REMARK    1  A    between atoms: _2  and  _8
REMARK    2  A    between atoms: _5  and  _6
REMARK    3  A    between atoms: _5  and  _13
REMARK    4  A    between atoms: _13  and  _15
REMARK    5  A    between atoms: _14  and  _19
REMARK    6  A    between atoms: _15  and  _18
REMARK    7  A    between atoms: _23  and  _33
REMARK    8  A    between atoms: _25  and  _26
REMARK    9  A    between atoms: _27  and  _29
REMARK   10  A    between atoms: _29  and  _31
REMARK   11  A    between atoms: _31  and  _33
REMARK                            x       y       z     vdW  Elec       q    Type
REMARK                         _______ _______ _______ _____ _____    ______ ____
ROOT
ATOM      1  C   UNL     1      28.523  17.092  -0.510  0.00  0.00    +0.400 C 
ATOM      2  N   UNL     1      27.836  15.982  -0.942  0.00  0.00    -0.278 N 
ATOM      3  H   UNL     1      26.824  16.197  -0.673  0.00  0.00    +0.152 HD
ATOM      4  O   UNL     1      27.874  18.063  -0.129  0.00  0.00    -0.226 OA
ENDROOT
BRANCH   1   5
ATOM      5  O   UNL     1      29.812  16.991  -0.519  0.00  0.00    -0.450 OA
BRANCH   5   6
ATOM      6  C   UNL     1      30.848  16.467   0.279  0.00  0.00    +0.240 C 
BRANCH   6   7
ATOM      7  C   UNL     1      31.605  15.237  -0.257  0.00  0.00    +0.100 C 
BRANCH   7   9
ATOM      8  N   UNL     1      32.760  13.242   0.644  0.00  0.00    -0.134 NA
ATOM      9  C   UNL     1      31.970  14.336   0.851  0.00  0.00    +0.086 A 
ATOM     10  C   UNL     1      31.632  14.399   2.184  0.00  0.00    +0.139 A 
ATOM     11  N   UNL     1      32.252  13.315   2.761  0.00  0.00    -0.220 N 
ATOM     12  N   UNL     1      32.926  12.627   1.807  0.00  0.00    -0.061 NA
BRANCH  11  13
ATOM     13  C   UNL     1      32.245  12.908   4.121  0.00  0.00    +0.068 A 
ATOM     14  C   UNL     1      33.388  13.108   4.911  0.00  0.00    +0.028 A 
ATOM     15  C   UNL     1      33.395  12.709   6.250  0.00  0.00    +0.003 A 
ATOM     16  C   UNL     1      32.267  12.107   6.806  0.00  0.00    +0.020 A 
ATOM     17  C   UNL     1      31.133  11.910   6.022  0.00  0.00    +0.043 A 
ATOM     18 CL   UNL     1      29.739  11.170   6.709  0.00  0.00    -0.083 Cl
ATOM     19  C   UNL     1      31.111  12.307   4.684  0.00  0.00    +0.047 A 
ENDBRANCH  11  13
ENDBRANCH   7   9
ENDBRANCH   6   7
ENDBRANCH   5   6
ENDBRANCH   1   5
BRANCH   2  20
ATOM     20  C   UNL     1      27.866  14.678  -1.600  0.00  0.00    +0.152 C 
BRANCH  20  21
ATOM     21  C   UNL     1      26.513  14.146  -2.115  0.00  0.00    +0.193 C 
ATOM     22  O   UNL     1      26.662  13.938  -3.537  0.00  0.00    -0.219 OA
BRANCH  21  23
ATOM     23  C   UNL     1      26.028  12.782  -1.575  0.00  0.00    +0.212 C 
ATOM     24  O   UNL     1      26.797  11.713  -2.150  0.00  0.00    -0.218 OA
BRANCH  23  25
ATOM     25  C   UNL     1      26.105  12.670  -0.004  0.00  0.00    +0.171 C 
ATOM     26  O   UNL     1      27.393  12.273   0.454  0.00  0.00    -0.343 OA
ATOM     27  C   UNL     1      27.673  11.864   1.761  0.00  0.00    +0.220 C 
ATOM     28  C   UNL     1      26.693  10.779   2.241  0.00  0.00    +0.076 C 
ATOM     29  C   UNL     1      25.268  11.313   2.021  0.00  0.00    +0.177 C 
ATOM     30  O   UNL     1      24.321  10.362   2.487  0.00  0.00    -0.221 OA
ATOM     31  C   UNL     1      25.044  11.643   0.513  0.00  0.00    +0.155 C 
BRANCH  31  32
ATOM     32  N   UNL     1      23.689  12.144   0.299  0.00  0.00    -0.202 NA
ATOM     33  C   UNL     1      22.652  11.581  -0.372  0.00  0.00    +0.242 C 
ATOM     34  C   UNL     1      21.278  12.171  -0.190  0.00  0.00    +0.096 C 
ATOM     35  O   UNL     1      22.855  10.613  -1.103  0.00  0.00    -0.273 OA
ENDBRANCH  31  32
BRANCH  27  36
ATOM     36  C   UNL     1      27.767  13.094   2.817  0.00  0.00    +0.391 C 
ATOM     37  O   UNL     1      27.667  12.518   4.031  0.00  0.00    -0.243 OA
ATOM     38  O   UNL     1      28.202  14.150   2.118  0.00  0.00    -0.243 OA
ENDBRANCH  27  36
ENDBRANCH  23  25
ENDBRANCH  21  23
ENDBRANCH  20  21
ENDBRANCH   2  20
TORSDOF 11
