REMARK VINA RESULT:    -6.585      1.574      3.099
REMARK INTER + INTRA:         -13.800
REMARK INTER:                 -12.198
REMARK INTRA:                  -1.602
REMARK UNBOUND:                -2.596
REMARK  Name = lig_assembled_4.pdb
REMARK  14 active torsions:
REMARK  status: ('A' for Active; 'I' for Inactive)
REMARK    1  A    between atoms: _2  and  _8
REMARK    2  A    between atoms: _5  and  _6
REMARK    3  A    between atoms: _5  and  _16
REMARK    4  A    between atoms: _9  and  _10
REMARK    5  A    between atoms: _10  and  _11
REMARK    6  A    between atoms: _10  and  _12
REMARK    7  A    between atoms: _16  and  _18
REMARK    8  A    between atoms: _17  and  _22
REMARK    9  A    between atoms: _18  and  _21
REMARK   10  A    between atoms: _26  and  _36
REMARK   11  A    between atoms: _28  and  _29
REMARK   12  A    between atoms: _30  and  _32
REMARK   13  A    between atoms: _32  and  _34
REMARK   14  A    between atoms: _34  and  _36
REMARK                            x       y       z     vdW  Elec       q    Type
REMARK                         _______ _______ _______ _____ _____    ______ ____
ROOT
ATOM      1  C   UNL     1      27.912  17.552  -0.797  0.00  0.00    +0.400 C 
ATOM      2  N   UNL     1      28.799  16.729  -0.143  0.00  0.00    -0.278 N 
ATOM      3  H   UNL     1      28.980  17.241   0.777  0.00  0.00    +0.152 HD
ATOM      4  O   UNL     1      27.426  18.492  -0.172  0.00  0.00    -0.226 OA
ENDROOT
BRANCH   2   5
ATOM      5  C   UNL     1      29.574  15.491  -0.137  0.00  0.00    +0.152 C 
BRANCH   5   6
ATOM      6  C   UNL     1      28.765  14.182  -0.237  0.00  0.00    +0.193 C 
ATOM      7  O   UNL     1      28.355  14.052  -1.616  0.00  0.00    -0.219 OA
BRANCH   6   8
ATOM      8  C   UNL     1      29.502  12.860   0.073  0.00  0.00    +0.212 C 
ATOM      9  O   UNL     1      29.163  11.857  -0.899  0.00  0.00    -0.218 OA
BRANCH   8  10
ATOM     10  C   UNL     1      31.070  13.014   0.112  0.00  0.00    +0.171 C 
ATOM     11  O   UNL     1      31.640  13.156  -1.185  0.00  0.00    -0.343 OA
ATOM     12  C   UNL     1      33.006  13.067  -1.461  0.00  0.00    +0.220 C 
ATOM     13  C   UNL     1      33.627  11.795  -0.857  0.00  0.00    +0.076 C 
ATOM     14  C   UNL     1      33.265  11.768   0.637  0.00  0.00    +0.177 C 
ATOM     15  O   UNL     1      33.850  10.630   1.254  0.00  0.00    -0.221 OA
ATOM     16  C   UNL     1      31.715  11.775   0.815  0.00  0.00    +0.155 C 
BRANCH  16  17
ATOM     17  N   UNL     1      31.366  11.742   2.233  0.00  0.00    -0.202 NA
ATOM     18  C   UNL     1      31.346  12.747   3.145  0.00  0.00    +0.242 C 
ATOM     19  C   UNL     1      30.665  12.500   4.466  0.00  0.00    +0.096 C 
ATOM     20  O   UNL     1      31.875  13.823   2.875  0.00  0.00    -0.273 OA
ENDBRANCH  16  17
BRANCH  12  21
ATOM     21  C   UNL     1      33.840  14.396  -1.040  0.00  0.00    +0.391 C 
ATOM     22  O   UNL     1      35.116  13.983  -0.920  0.00  0.00    -0.243 OA
ATOM     23  O   UNL     1      33.021  15.432  -1.264  0.00  0.00    -0.243 OA
ENDBRANCH  12  21
ENDBRANCH   8  10
ENDBRANCH   6   8
ENDBRANCH   5   6
ENDBRANCH   2   5
BRANCH   1  24
ATOM     24  O   UNL     1      27.697  17.269  -2.039  0.00  0.00    -0.450 OA
BRANCH  24  25
ATOM     25  C   UNL     1      26.703  17.455  -3.021  0.00  0.00    +0.240 C 
BRANCH  25  26
ATOM     26  C   UNL     1      26.574  16.378  -4.115  0.00  0.00    +0.100 C 
BRANCH  26  28
ATOM     27  N   UNL     1      25.117  14.455  -4.632  0.00  0.00    -0.134 NA
ATOM     28  C   UNL     1      25.581  15.359  -3.728  0.00  0.00    +0.086 A 
ATOM     29  C   UNL     1      24.950  15.155  -2.522  0.00  0.00    +0.139 A 
ATOM     30  N   UNL     1      24.001  14.185  -2.777  0.00  0.00    -0.220 N 
ATOM     31  N   UNL     1      24.177  13.731  -4.037  0.00  0.00    -0.061 NA
BRANCH  30  32
ATOM     32  C   UNL     1      22.971  13.726  -1.902  0.00  0.00    +0.070 A 
ATOM     33  C   UNL     1      23.170  12.714  -0.924  0.00  0.00    -0.019 A 
ATOM     34  C   UNL     1      22.055  12.332  -0.144  0.00  0.00    +0.006 A 
ATOM     35  C   UNL     1      20.794  12.905  -0.322  0.00  0.00    +0.000 A 
ATOM     36  C   UNL     1      20.614  13.895  -1.274  0.00  0.00    +0.002 A 
ATOM     37  C   UNL     1      21.691  14.303  -2.060  0.00  0.00    +0.028 A 
BRANCH  33  38
ATOM     38  C   UNL     1      24.506  12.012  -0.671  0.00  0.00    +0.015 C 
ATOM     39  C   UNL     1      24.832  10.865  -1.641  0.00  0.00    +0.012 C 
ATOM     40  C   UNL     1      24.564  11.502   0.772  0.00  0.00    +0.012 C 
ENDBRANCH  33  38
ENDBRANCH  30  32
ENDBRANCH  26  28
ENDBRANCH  25  26
ENDBRANCH  24  25
ENDBRANCH   1  24
TORSDOF 12
