REMARK VINA RESULT:    -6.747      2.512      9.532
REMARK INTER + INTRA:         -14.700
REMARK INTER:                 -12.849
REMARK INTRA:                  -1.851
REMARK UNBOUND:                -2.234
REMARK  Name = lig_assembled_83.pdb
REMARK  15 active torsions:
REMARK  status: ('A' for Active; 'I' for Inactive)
REMARK    1  A    between atoms: _2  and  _11
REMARK    2  A    between atoms: _3  and  _13
REMARK    3  A    between atoms: _8  and  _9
REMARK    4  A    between atoms: _8  and  _19
REMARK    5  A    between atoms: _11  and  _12
REMARK    6  A    between atoms: _12  and  _13
REMARK    7  A    between atoms: _12  and  _17
REMARK    8  A    between atoms: _19  and  _21
REMARK    9  A    between atoms: _20  and  _25
REMARK   10  A    between atoms: _21  and  _24
REMARK   11  A    between atoms: _29  and  _39
REMARK   12  A    between atoms: _31  and  _32
REMARK   13  A    between atoms: _33  and  _35
REMARK   14  A    between atoms: _35  and  _37
REMARK   15  A    between atoms: _37  and  _39
REMARK                            x       y       z     vdW  Elec       q    Type
REMARK                         _______ _______ _______ _____ _____    ______ ____
ROOT
ATOM      1  C   UNL     1      26.017  15.534  -5.046  0.00  0.00    +0.400 C 
ATOM      2  N   UNL     1      25.032  14.726  -5.561  0.00  0.00    -0.278 N 
ATOM      3  H   UNL     1      25.365  14.533  -6.558  0.00  0.00    +0.152 HD
ATOM      4  O   UNL     1      27.045  15.684  -5.702  0.00  0.00    -0.226 OA
ENDROOT
BRANCH   2   5
ATOM      5  C   UNL     1      23.771  14.017  -5.357  0.00  0.00    +0.152 C 
BRANCH   5   6
ATOM      6  C   UNL     1      23.879  12.587  -4.790  0.00  0.00    +0.193 C 
ATOM      7  O   UNL     1      24.918  12.615  -3.787  0.00  0.00    -0.219 OA
BRANCH   6   8
ATOM      8  C   UNL     1      22.648  12.014  -4.054  0.00  0.00    +0.212 C 
ATOM      9  O   UNL     1      22.551  10.596  -4.266  0.00  0.00    -0.218 OA
BRANCH   8  10
ATOM     10  C   UNL     1      22.664  12.291  -2.502  0.00  0.00    +0.171 C 
ATOM     11  O   UNL     1      22.686  11.094  -1.732  0.00  0.00    -0.343 OA
ATOM     12  C   UNL     1      22.461  11.039  -0.354  0.00  0.00    +0.220 C 
ATOM     13  C   UNL     1      21.173  11.780   0.043  0.00  0.00    +0.076 C 
ATOM     14  C   UNL     1      21.256  13.199  -0.543  0.00  0.00    +0.177 C 
ATOM     15  O   UNL     1      20.104  13.943  -0.170  0.00  0.00    -0.221 OA
ATOM     16  C   UNL     1      21.410  13.132  -2.094  0.00  0.00    +0.155 C 
BRANCH  16  17
ATOM     17  N   UNL     1      21.482  14.479  -2.655  0.00  0.00    -0.202 NA
ATOM     18  C   UNL     1      20.645  15.104  -3.521  0.00  0.00    +0.242 C 
ATOM     19  C   UNL     1      20.790  16.592  -3.708  0.00  0.00    +0.096 C 
ATOM     20  O   UNL     1      19.797  14.451  -4.125  0.00  0.00    -0.273 OA
ENDBRANCH  16  17
BRANCH  12  21
ATOM     21  C   UNL     1      23.731  11.533   0.529  0.00  0.00    +0.391 C 
ATOM     22  O   UNL     1      23.304  11.490   1.806  0.00  0.00    -0.243 OA
ATOM     23  O   UNL     1      24.787  11.505  -0.293  0.00  0.00    -0.243 OA
ENDBRANCH  12  21
ENDBRANCH   8  10
ENDBRANCH   6   8
ENDBRANCH   5   6
ENDBRANCH   2   5
BRANCH   1  24
ATOM     24  O   UNL     1      25.747  16.094  -3.913  0.00  0.00    -0.450 OA
BRANCH  24  25
ATOM     25  C   UNL     1      26.235  16.121  -2.592  0.00  0.00    +0.240 C 
BRANCH  25  26
ATOM     26  C   UNL     1      27.134  17.306  -2.191  0.00  0.00    +0.100 C 
BRANCH  26  28
ATOM     27  N   UNL     1      29.225  17.709  -0.913  0.00  0.00    -0.134 NA
ATOM     28  C   UNL     1      28.256  16.844  -1.354  0.00  0.00    +0.086 A 
ATOM     29  C   UNL     1      28.539  15.581  -0.885  0.00  0.00    +0.133 A 
ATOM     30  N   UNL     1      29.677  15.748  -0.159  0.00  0.00    -0.249 N 
ATOM     31  N   UNL     1      30.097  17.023  -0.185  0.00  0.00    -0.065 NA
BRANCH  30  32
ATOM     32  C   UNL     1      30.433  14.736   0.547  0.00  0.00    +0.178 C 
BRANCH  32  33
ATOM     33  C   UNL     1      31.586  14.188  -0.299  0.00  0.00    +0.156 C 
BRANCH  33  34
ATOM     34  O   UNL     1      32.607  15.184  -0.434  0.00  0.00    -0.388 OA
ATOM     35  H   UNL     1      32.296  16.029  -0.050  0.00  0.00    +0.210 HD
ENDBRANCH  33  34
BRANCH  33  36
ATOM     36  C   UNL     1      32.164  12.915   0.337  0.00  0.00    +0.162 C 
BRANCH  36  37
ATOM     37  N   UNL     1      32.226  12.994   1.788  0.00  0.00    -0.269 N 
ATOM     38  C   UNL     1      31.187  12.626   2.612  0.00  0.00    +0.113 A 
ATOM     39  C   UNL     1      31.646  12.817   3.894  0.00  0.00    +0.137 A 
ATOM     40  N   UNL     1      32.919  13.318   3.884  0.00  0.00    -0.172 NA
ATOM     41  C   UNL     1      33.248  13.410   2.608  0.00  0.00    +0.450 A 
ATOM     42  N   UNL     1      34.538  13.891   2.172  0.00  0.00    +0.120 N 
ATOM     43  O   UNL     1      34.753  13.939   0.949  0.00  0.00    +0.045 OA
ATOM     44  O   UNL     1      35.344  14.236   3.044  0.00  0.00    -0.573 OA
ENDBRANCH  36  37
ENDBRANCH  33  36
ENDBRANCH  32  33
ENDBRANCH  30  32
ENDBRANCH  26  28
ENDBRANCH  25  26
ENDBRANCH  24  25
ENDBRANCH   1  24
TORSDOF 15
