REMARK VINA RESULT:    -6.673      1.889      2.475
REMARK INTER + INTRA:         -14.461
REMARK INTER:                 -12.275
REMARK INTRA:                  -2.186
REMARK UNBOUND:                -2.911
REMARK  Name = lig_assembled_23.pdb
REMARK  13 active torsions:
REMARK  status: ('A' for Active; 'I' for Inactive)
REMARK    1  A    between atoms: _2  and  _9
REMARK    2  A    between atoms: _3  and  _44
REMARK    3  A    between atoms: _6  and  _7
REMARK    4  A    between atoms: _6  and  _16
REMARK    5  A    between atoms: _11  and  _44
REMARK    6  A    between atoms: _16  and  _18
REMARK    7  A    between atoms: _17  and  _22
REMARK    8  A    between atoms: _18  and  _21
REMARK    9  A    between atoms: _26  and  _36
REMARK   10  A    between atoms: _28  and  _29
REMARK   11  A    between atoms: _30  and  _32
REMARK   12  A    between atoms: _32  and  _34
REMARK   13  A    between atoms: _34  and  _36
REMARK                            x       y       z     vdW  Elec       q    Type
REMARK                         _______ _______ _______ _____ _____    ______ ____
ROOT
ATOM      1  C   UNL     1      26.517  16.611  -3.333  0.00  0.00    +0.400 C 
ATOM      2  N   UNL     1      26.948  15.638  -2.462  0.00  0.00    -0.278 N 
ATOM      3  H   UNL     1      27.665  16.148  -1.856  0.00  0.00    +0.152 HD
ATOM      4  O   UNL     1      26.866  17.770  -3.124  0.00  0.00    -0.226 OA
ENDROOT
BRANCH   2   5
ATOM      5  C   UNL     1      26.856  14.257  -1.996  0.00  0.00    +0.152 C 
BRANCH   5   6
ATOM      6  C   UNL     1      27.803  13.864  -0.843  0.00  0.00    +0.193 C 
ATOM      7  O   UNL     1      27.964  12.430  -0.908  0.00  0.00    -0.219 OA
BRANCH   6   8
ATOM      8  C   UNL     1      29.245  14.416  -0.882  0.00  0.00    +0.212 C 
ATOM      9  O   UNL     1      29.239  15.845  -0.729  0.00  0.00    -0.218 OA
BRANCH   8  10
ATOM     10  C   UNL     1      30.182  13.794   0.222  0.00  0.00    +0.171 C 
ATOM     11  O   UNL     1      30.054  14.449   1.480  0.00  0.00    -0.343 OA
ATOM     12  C   UNL     1      30.928  14.268   2.555  0.00  0.00    +0.220 C 
ATOM     13  C   UNL     1      32.397  14.437   2.130  0.00  0.00    +0.076 C 
ATOM     14  C   UNL     1      32.643  13.505   0.932  0.00  0.00    +0.177 C 
ATOM     15  O   UNL     1      34.001  13.593   0.523  0.00  0.00    -0.221 OA
ATOM     16  C   UNL     1      31.675  13.867  -0.237  0.00  0.00    +0.155 C 
BRANCH  16  17
ATOM     17  N   UNL     1      31.910  12.988  -1.380  0.00  0.00    -0.202 NA
ATOM     18  C   UNL     1      32.678  13.184  -2.482  0.00  0.00    +0.242 C 
ATOM     19  C   UNL     1      32.978  12.000  -3.364  0.00  0.00    +0.096 C 
ATOM     20  O   UNL     1      33.108  14.309  -2.731  0.00  0.00    -0.273 OA
ENDBRANCH  16  17
BRANCH  12  21
ATOM     21  C   UNL     1      30.694  12.871   3.351  0.00  0.00    +0.391 C 
ATOM     22  O   UNL     1      31.840  12.661   4.028  0.00  0.00    -0.243 OA
ATOM     23  O   UNL     1      29.381  12.620   3.279  0.00  0.00    -0.243 OA
ENDBRANCH  12  21
ENDBRANCH   8  10
ENDBRANCH   6   8
ENDBRANCH   5   6
ENDBRANCH   2   5
BRANCH   1  24
ATOM     24  O   UNL     1      25.798  16.197  -4.324  0.00  0.00    -0.450 OA
BRANCH  24  25
ATOM     25  C   UNL     1      25.851  15.239  -5.355  0.00  0.00    +0.240 C 
BRANCH  25  26
ATOM     26  C   UNL     1      24.555  14.470  -5.678  0.00  0.00    +0.100 C 
BRANCH  26  28
ATOM     27  N   UNL     1      22.661  15.029  -4.191  0.00  0.00    -0.134 NA
ATOM     28  C   UNL     1      23.762  14.268  -4.451  0.00  0.00    +0.086 A 
ATOM     29  C   UNL     1      23.942  13.371  -3.424  0.00  0.00    +0.139 A 
ATOM     30  N   UNL     1      22.906  13.617  -2.551  0.00  0.00    -0.220 N 
ATOM     31  N   UNL     1      22.149  14.631  -3.035  0.00  0.00    -0.061 NA
BRANCH  30  32
ATOM     32  C   UNL     1      22.605  12.979  -1.321  0.00  0.00    +0.069 A 
ATOM     33  C   UNL     1      23.634  12.364  -0.594  0.00  0.00    +0.056 A 
ATOM     34  C   UNL     1      23.334  11.703   0.603  0.00  0.00    +0.107 A 
ATOM     35  C   UNL     1      22.029  11.669   1.097  0.00  0.00    +0.028 A 
ATOM     36  C   UNL     1      21.010  12.294   0.380  0.00  0.00    +0.004 A 
ATOM     37  C   UNL     1      21.292  12.943  -0.827  0.00  0.00    +0.028 A 
BRANCH  34  38
ATOM     38  S   UNL     1      24.634  10.883   1.477  0.00  0.00    +0.056 S 
ATOM     39  O   UNL     1      24.278  10.806   2.874  0.00  0.00    -0.153 OA
ATOM     40  O   UNL     1      25.068   9.734   0.717  0.00  0.00    -0.153 OA
BRANCH  38  41
ATOM     41  N   UNL     1      25.887  11.993   1.360  0.00  0.00    -0.204 NA
ATOM     42  H   UNL     1      26.680  11.685   1.923  0.00  0.00    +0.144 HD
ATOM     43  H   UNL     1      25.550  12.928   1.593  0.00  0.00    +0.144 HD
ENDBRANCH  38  41
ENDBRANCH  34  38
ENDBRANCH  30  32
ENDBRANCH  26  28
ENDBRANCH  25  26
ENDBRANCH  24  25
ENDBRANCH   1  24
TORSDOF 13
