REMARK VINA RESULT:    -6.441      1.615      3.455
REMARK INTER + INTRA:         -13.103
REMARK INTER:                 -11.690
REMARK INTRA:                  -1.413
REMARK UNBOUND:                -2.144
REMARK  Name = lig_assembled_63.pdb
REMARK  12 active torsions:
REMARK  status: ('A' for Active; 'I' for Inactive)
REMARK    1  A    between atoms: _2  and  _10
REMARK    2  A    between atoms: _6  and  _14
REMARK    3  A    between atoms: _7  and  _8
REMARK    4  A    between atoms: _7  and  _15
REMARK    5  A    between atoms: _15  and  _17
REMARK    6  A    between atoms: _16  and  _21
REMARK    7  A    between atoms: _17  and  _20
REMARK    8  A    between atoms: _25  and  _35
REMARK    9  A    between atoms: _27  and  _28
REMARK   10  A    between atoms: _29  and  _31
REMARK   11  A    between atoms: _31  and  _33
REMARK   12  A    between atoms: _33  and  _35
REMARK                            x       y       z     vdW  Elec       q    Type
REMARK                         _______ _______ _______ _____ _____    ______ ____
ROOT
ATOM      1  C   UNL     1      28.064  17.353  -0.599  0.00  0.00    +0.400 C 
ATOM      2  N   UNL     1      28.953  16.482  -0.014  0.00  0.00    -0.278 N 
ATOM      3  H   UNL     1      29.059  16.866   0.978  0.00  0.00    +0.152 HD
ATOM      4  O   UNL     1      27.499  18.173   0.121  0.00  0.00    -0.226 OA
ENDROOT
BRANCH   2   5
ATOM      5  C   UNL     1      29.787  15.289  -0.134  0.00  0.00    +0.152 C 
BRANCH   5   6
ATOM      6  C   UNL     1      29.038  13.945  -0.242  0.00  0.00    +0.193 C 
ATOM      7  O   UNL     1      28.220  14.019  -1.430  0.00  0.00    -0.219 OA
BRANCH   6   8
ATOM      8  C   UNL     1      29.886  12.668  -0.436  0.00  0.00    +0.212 C 
ATOM      9  O   UNL     1      29.692  12.134  -1.756  0.00  0.00    -0.218 OA
BRANCH   8  10
ATOM     10  C   UNL     1      31.428  12.902  -0.208  0.00  0.00    +0.171 C 
ATOM     11  O   UNL     1      32.160  12.953  -1.428  0.00  0.00    -0.343 OA
ATOM     12  C   UNL     1      33.554  12.906  -1.513  0.00  0.00    +0.220 C 
ATOM     13  C   UNL     1      34.134  11.726  -0.715  0.00  0.00    +0.076 C 
ATOM     14  C   UNL     1      33.576  11.816   0.715  0.00  0.00    +0.177 C 
ATOM     15  O   UNL     1      34.114  10.768   1.509  0.00  0.00    -0.221 OA
ATOM     16  C   UNL     1      32.017  11.763   0.688  0.00  0.00    +0.155 C 
BRANCH  16  17
ATOM     17  N   UNL     1      31.482  11.841   2.045  0.00  0.00    -0.202 NA
ATOM     18  C   UNL     1      31.397  12.905   2.884  0.00  0.00    +0.242 C 
ATOM     19  C   UNL     1      30.535  12.778   4.113  0.00  0.00    +0.096 C 
ATOM     20  O   UNL     1      32.016  13.935   2.624  0.00  0.00    -0.273 OA
ENDBRANCH  16  17
BRANCH  12  21
ATOM     21  C   UNL     1      34.274  14.307  -1.117  0.00  0.00    +0.391 C 
ATOM     22  O   UNL     1      35.556  13.979  -0.865  0.00  0.00    -0.243 OA
ATOM     23  O   UNL     1      33.423  15.275  -1.477  0.00  0.00    -0.243 OA
ENDBRANCH  12  21
ENDBRANCH   8  10
ENDBRANCH   6   8
ENDBRANCH   5   6
ENDBRANCH   2   5
BRANCH   1  24
ATOM     24  O   UNL     1      27.929  17.241  -1.879  0.00  0.00    -0.450 OA
BRANCH  24  25
ATOM     25  C   UNL     1      27.022  17.602  -2.894  0.00  0.00    +0.240 C 
BRANCH  25  26
ATOM     26  C   UNL     1      26.856  16.631  -4.078  0.00  0.00    +0.100 C 
BRANCH  26  28
ATOM     27  N   UNL     1      25.267  14.900  -4.844  0.00  0.00    -0.134 NA
ATOM     28  C   UNL     1      25.685  15.759  -3.869  0.00  0.00    +0.087 A 
ATOM     29  C   UNL     1      24.848  15.644  -2.785  0.00  0.00    +0.141 A 
ATOM     30  N   UNL     1      23.897  14.717  -3.164  0.00  0.00    -0.201 N 
ATOM     31  N   UNL     1      24.187  14.269  -4.404  0.00  0.00    -0.059 NA
BRANCH  30  32
ATOM     32  C   UNL     1      22.749  14.326  -2.413  0.00  0.00    +0.173 A 
ATOM     33  C   UNL     1      22.824  13.425  -1.348  0.00  0.00    +0.096 A 
ATOM     34  C   UNL     1      21.619  13.034  -0.741  0.00  0.00    +0.024 A 
ATOM     35  C   UNL     1      20.405  13.554  -1.178  0.00  0.00    +0.021 A 
ATOM     36  C   UNL     1      20.425  14.467  -2.212  0.00  0.00    +0.113 A 
ATOM     37  N   UNL     1      21.557  14.858  -2.835  0.00  0.00    -0.235 NA
BRANCH  33  38
ATOM     38  C   UNL     1      24.031  12.876  -0.804  0.00  0.00    +0.103 C 
ATOM     39  N   UNL     1      24.954  12.410  -0.275  0.00  0.00    -0.191 NA
ENDBRANCH  33  38
ENDBRANCH  30  32
ENDBRANCH  26  28
ENDBRANCH  25  26
ENDBRANCH  24  25
ENDBRANCH   1  24
TORSDOF 12
