REMARK VINA RESULT:    -5.978      2.316      4.521
REMARK INTER + INTRA:         -13.029
REMARK INTER:                 -11.093
REMARK INTRA:                  -1.936
REMARK UNBOUND:                -1.808
REMARK  Name = lig_assembled_43.pdb
REMARK  15 active torsions:
REMARK  status: ('A' for Active; 'I' for Inactive)
REMARK    1  A    between atoms: _2  and  _8
REMARK    2  A    between atoms: _5  and  _6
REMARK    3  A    between atoms: _5  and  _13
REMARK    4  A    between atoms: _8  and  _9
REMARK    5  A    between atoms: _9  and  _10
REMARK    6  A    between atoms: _10  and  _11
REMARK    7  A    between atoms: _11  and  _12
REMARK    8  A    between atoms: _13  and  _15
REMARK    9  A    between atoms: _14  and  _19
REMARK   10  A    between atoms: _15  and  _18
REMARK   11  A    between atoms: _23  and  _33
REMARK   12  A    between atoms: _25  and  _26
REMARK   13  A    between atoms: _27  and  _29
REMARK   14  A    between atoms: _29  and  _31
REMARK   15  A    between atoms: _31  and  _33
REMARK                            x       y       z     vdW  Elec       q    Type
REMARK                         _______ _______ _______ _____ _____    ______ ____
ROOT
ATOM      1  C   UNL     1      27.167  17.031  -2.182  0.00  0.00    +0.152 C 
ENDROOT
BRANCH   1   3
ATOM      2  C   UNL     1      26.312  15.904  -4.516  0.00  0.00    +0.400 C 
ATOM      3  N   UNL     1      27.092  16.382  -3.489  0.00  0.00    -0.278 N 
ATOM      4  H   UNL     1      28.088  16.192  -3.825  0.00  0.00    +0.152 HD
ATOM      5  O   UNL     1      26.868  15.578  -5.562  0.00  0.00    -0.226 OA
BRANCH   2   6
ATOM      6  O   UNL     1      25.048  15.815  -4.264  0.00  0.00    -0.450 OA
BRANCH   6   7
ATOM      7  C   UNL     1      24.107  14.852  -3.850  0.00  0.00    +0.240 C 
BRANCH   7   8
ATOM      8  C   UNL     1      23.154  15.237  -2.702  0.00  0.00    +0.100 C 
BRANCH   8  10
ATOM      9  N   UNL     1      24.067  13.467  -1.230  0.00  0.00    -0.134 NA
ATOM     10  C   UNL     1      22.981  14.101  -1.777  0.00  0.00    +0.086 A 
ATOM     11  C   UNL     1      21.832  13.498  -1.321  0.00  0.00    +0.133 A 
ATOM     12  N   UNL     1      22.284  12.504  -0.508  0.00  0.00    -0.251 N 
ATOM     13  N   UNL     1      23.626  12.487  -0.452  0.00  0.00    -0.065 NA
BRANCH  12  14
ATOM     14  C   UNL     1      21.507  11.521   0.217  0.00  0.00    +0.145 C 
BRANCH  14  15
ATOM     15  C   UNL     1      21.611  11.729   1.725  0.00  0.00    +0.024 C 
BRANCH  15  16
ATOM     16  C   UNL     1      22.222  10.518   2.432  0.00  0.00    +0.006 C 
BRANCH  16  17
ATOM     17  C   UNL     1      23.720  10.731   2.664  0.00  0.00    +0.026 C 
BRANCH  17  18
ATOM     18  C   UNL     1      24.553   9.752   1.892  0.00  0.00    -0.034 C 
ATOM     19  C   UNL     1      24.514   8.426   2.081  0.00  0.00    +0.004 C 
ENDBRANCH  17  18
ENDBRANCH  16  17
ENDBRANCH  15  16
ENDBRANCH  14  15
ENDBRANCH  12  14
ENDBRANCH   8  10
ENDBRANCH   7   8
ENDBRANCH   6   7
ENDBRANCH   2   6
ENDBRANCH   1   3
BRANCH   1  20
ATOM     20  C   UNL     1      28.305  16.559  -1.254  0.00  0.00    +0.193 C 
ATOM     21  O   UNL     1      28.330  17.468  -0.132  0.00  0.00    -0.219 OA
BRANCH  20  22
ATOM     22  C   UNL     1      28.172  15.160  -0.614  0.00  0.00    +0.212 C 
ATOM     23  O   UNL     1      27.476  14.267  -1.499  0.00  0.00    -0.218 OA
BRANCH  22  24
ATOM     24  C   UNL     1      29.557  14.512  -0.232  0.00  0.00    +0.171 C 
ATOM     25  O   UNL     1      30.402  14.320  -1.363  0.00  0.00    -0.343 OA
ATOM     26  C   UNL     1      31.570  13.554  -1.353  0.00  0.00    +0.220 C 
ATOM     27  C   UNL     1      31.332  12.158  -0.753  0.00  0.00    +0.076 C 
ATOM     28  C   UNL     1      30.673  12.351   0.623  0.00  0.00    +0.177 C 
ATOM     29  O   UNL     1      30.466  11.089   1.240  0.00  0.00    -0.221 OA
ATOM     30  C   UNL     1      29.331  13.134   0.471  0.00  0.00    +0.155 C 
BRANCH  30  31
ATOM     31  N   UNL     1      28.699  13.314   1.775  0.00  0.00    -0.202 NA
ATOM     32  C   UNL     1      27.482  12.902   2.214  0.00  0.00    +0.242 C 
ATOM     33  C   UNL     1      27.196  12.962   3.692  0.00  0.00    +0.096 C 
ATOM     34  O   UNL     1      26.651  12.493   1.405  0.00  0.00    -0.273 OA
ENDBRANCH  30  31
BRANCH  26  35
ATOM     35  C   UNL     1      32.827  14.302  -0.645  0.00  0.00    +0.391 C 
ATOM     36  O   UNL     1      32.774  15.571  -1.093  0.00  0.00    -0.243 OA
ATOM     37  O   UNL     1      33.247  13.480   0.325  0.00  0.00    -0.243 OA
ENDBRANCH  26  35
ENDBRANCH  22  24
ENDBRANCH  20  22
ENDBRANCH   1  20
TORSDOF 15
