REMARK VINA RESULT:    -6.691      1.922      3.654
REMARK INTER + INTRA:         -14.043
REMARK INTER:                 -12.556
REMARK INTRA:                  -1.486
REMARK UNBOUND:                -2.657
REMARK  Name = lig_assembled_46.pdb
REMARK  12 active torsions:
REMARK  status: ('A' for Active; 'I' for Inactive)
REMARK    1  A    between atoms: _2  and  _8
REMARK    2  A    between atoms: _5  and  _6
REMARK    3  A    between atoms: _5  and  _14
REMARK    4  A    between atoms: _8  and  _9
REMARK    5  A    between atoms: _14  and  _16
REMARK    6  A    between atoms: _15  and  _20
REMARK    7  A    between atoms: _16  and  _19
REMARK    8  A    between atoms: _24  and  _34
REMARK    9  A    between atoms: _26  and  _27
REMARK   10  A    between atoms: _28  and  _30
REMARK   11  A    between atoms: _30  and  _32
REMARK   12  A    between atoms: _32  and  _34
REMARK                            x       y       z     vdW  Elec       q    Type
REMARK                         _______ _______ _______ _____ _____    ______ ____
ROOT
ATOM      1  C   UNL     1      28.342  17.381  -0.558  0.00  0.00    +0.400 C 
ATOM      2  N   UNL     1      29.572  17.297   0.051  0.00  0.00    -0.278 N 
ATOM      3  H   UNL     1      29.589  18.150   0.694  0.00  0.00    +0.152 HD
ATOM      4  O   UNL     1      27.543  18.213  -0.136  0.00  0.00    -0.226 OA
ENDROOT
BRANCH   2   5
ATOM      5  C   UNL     1      30.830  16.573   0.219  0.00  0.00    +0.152 C 
BRANCH   5   6
ATOM      6  C   UNL     1      30.759  15.041   0.061  0.00  0.00    +0.193 C 
ATOM      7  O   UNL     1      31.751  14.678  -0.924  0.00  0.00    -0.219 OA
BRANCH   6   8
ATOM      8  C   UNL     1      31.107  14.178   1.294  0.00  0.00    +0.212 C 
ATOM      9  O   UNL     1      31.431  15.014   2.417  0.00  0.00    -0.218 OA
BRANCH   8  10
ATOM     10  C   UNL     1      29.948  13.195   1.716  0.00  0.00    +0.171 C 
ATOM     11  O   UNL     1      28.663  13.804   1.651  0.00  0.00    -0.343 OA
ATOM     12  C   UNL     1      27.501  13.251   2.194  0.00  0.00    +0.220 C 
ATOM     13  C   UNL     1      27.701  12.828   3.659  0.00  0.00    +0.076 C 
ATOM     14  C   UNL     1      28.938  11.915   3.712  0.00  0.00    +0.177 C 
ATOM     15  O   UNL     1      29.145  11.461   5.042  0.00  0.00    -0.221 OA
ATOM     16  C   UNL     1      30.189  12.674   3.170  0.00  0.00    +0.155 C 
BRANCH  16  17
ATOM     17  N   UNL     1      31.367  11.813   3.225  0.00  0.00    -0.202 NA
ATOM     18  C   UNL     1      32.454  11.879   4.036  0.00  0.00    +0.242 C 
ATOM     19  C   UNL     1      33.384  10.695   4.084  0.00  0.00    +0.096 C 
ATOM     20  O   UNL     1      32.650  12.890   4.707  0.00  0.00    -0.273 OA
ENDBRANCH  16  17
BRANCH  12  21
ATOM     21  C   UNL     1      26.881  12.043   1.302  0.00  0.00    +0.391 C 
ATOM     22  O   UNL     1      25.940  11.481   2.085  0.00  0.00    -0.243 OA
ATOM     23  O   UNL     1      27.312  12.248   0.051  0.00  0.00    -0.243 OA
ENDBRANCH  12  21
ENDBRANCH   8  10
ENDBRANCH   6   8
ENDBRANCH   5   6
ENDBRANCH   2   5
BRANCH   1  24
ATOM     24  O   UNL     1      28.156  16.581  -1.557  0.00  0.00    -0.450 OA
BRANCH  24  25
ATOM     25  C   UNL     1      27.127  15.804  -2.125  0.00  0.00    +0.240 C 
BRANCH  25  26
ATOM     26  C   UNL     1      26.508  16.301  -3.445  0.00  0.00    +0.100 C 
BRANCH  26  28
ATOM     27  N   UNL     1      24.828  14.945  -4.659  0.00  0.00    -0.134 NA
ATOM     28  C   UNL     1      25.144  15.763  -3.606  0.00  0.00    +0.086 A 
ATOM     29  C   UNL     1      24.033  15.913  -2.804  0.00  0.00    +0.134 A 
ATOM     30  N   UNL     1      23.092  15.116  -3.390  0.00  0.00    -0.247 N 
ATOM     31  N   UNL     1      23.572  14.547  -4.513  0.00  0.00    -0.065 NA
BRANCH  30  32
ATOM     32  C   UNL     1      21.837  14.661  -2.817  0.00  0.00    +0.180 C 
BRANCH  32  33
ATOM     33  C   UNL     1      22.008  13.707  -1.660  0.00  0.00    -0.026 A 
ATOM     34  C   UNL     1      20.913  13.330  -0.868  0.00  0.00    +0.005 A 
ATOM     35  C   UNL     1      21.063  12.373   0.140  0.00  0.00    +0.000 A 
ATOM     36  C   UNL     1      22.305  11.783   0.365  0.00  0.00    +0.000 A 
ATOM     37  C   UNL     1      23.402  12.155  -0.409  0.00  0.00    +0.000 A 
ATOM     38  C   UNL     1      23.255  13.111  -1.416  0.00  0.00    +0.005 A 
ENDBRANCH  32  33
ENDBRANCH  30  32
ENDBRANCH  26  28
ENDBRANCH  25  26
ENDBRANCH  24  25
ENDBRANCH   1  24
TORSDOF 12
