REMARK VINA RESULT:    -6.732      2.764      7.992
REMARK INTER + INTRA:         -13.195
REMARK INTER:                 -11.172
REMARK INTRA:                  -2.024
REMARK UNBOUND:                -2.133
REMARK  Name = lig_assembled_7.pdb
REMARK  14 active torsions:
REMARK  status: ('A' for Active; 'I' for Inactive)
REMARK    1  A    between atoms: _2  and  _8
REMARK    2  A    between atoms: _4  and  _15
REMARK    3  A    between atoms: _5  and  _6
REMARK    4  A    between atoms: _5  and  _16
REMARK    5  A    between atoms: _9  and  _10
REMARK    6  A    between atoms: _12  and  _13
REMARK    7  A    between atoms: _16  and  _18
REMARK    8  A    between atoms: _17  and  _22
REMARK    9  A    between atoms: _18  and  _21
REMARK   10  A    between atoms: _26  and  _36
REMARK   11  A    between atoms: _28  and  _29
REMARK   12  A    between atoms: _30  and  _32
REMARK   13  A    between atoms: _32  and  _34
REMARK   14  A    between atoms: _34  and  _36
REMARK                            x       y       z     vdW  Elec       q    Type
REMARK                         _______ _______ _______ _____ _____    ______ ____
ROOT
ATOM      1  C   UNL     1      26.437  16.788  -2.947  0.00  0.00    +0.400 C 
ATOM      2  N   UNL     1      25.883  15.590  -2.558  0.00  0.00    -0.278 N 
ATOM      3  H   UNL     1      25.023  15.500  -3.186  0.00  0.00    +0.152 HD
ATOM      4  O   UNL     1      25.985  17.336  -3.949  0.00  0.00    -0.226 OA
ENDROOT
BRANCH   1   5
ATOM      5  O   UNL     1      27.377  17.243  -2.185  0.00  0.00    -0.450 OA
BRANCH   5   6
ATOM      6  C   UNL     1      27.596  17.557  -0.830  0.00  0.00    +0.240 C 
BRANCH   6   7
ATOM      7  C   UNL     1      29.040  17.876  -0.398  0.00  0.00    +0.100 C 
BRANCH   7   9
ATOM      8  N   UNL     1      29.350  15.466  -0.813  0.00  0.00    -0.134 NA
ATOM      9  C   UNL     1      29.836  16.638  -0.324  0.00  0.00    +0.086 A 
ATOM     10  C   UNL     1      31.102  16.416   0.186  0.00  0.00    +0.139 A 
ATOM     11  N   UNL     1      31.328  15.065   0.027  0.00  0.00    -0.219 N 
ATOM     12  N   UNL     1      30.264  14.530  -0.625  0.00  0.00    -0.061 NA
BRANCH  11  13
ATOM     13  C   UNL     1      32.453  14.274   0.427  0.00  0.00    +0.073 A 
ATOM     14  C   UNL     1      33.524  14.064  -0.493  0.00  0.00    -0.024 A 
ATOM     15  C   UNL     1      34.638  13.287  -0.107  0.00  0.00    +0.008 A 
ATOM     16  C   UNL     1      34.726  12.722   1.162  0.00  0.00    -0.050 A 
ATOM     17  C   UNL     1      35.925  11.904   1.542  0.00  0.00    +0.044 C 
ATOM     18  C   UNL     1      33.681  12.932   2.058  0.00  0.00    +0.008 A 
ATOM     19  C   UNL     1      33.594  14.665  -1.880  0.00  0.00    +0.046 C 
ATOM     20  C   UNL     1      32.531  13.680   1.713  0.00  0.00    -0.024 A 
ATOM     21  C   UNL     1      31.465  13.678   2.781  0.00  0.00    +0.046 C 
ENDBRANCH  11  13
ENDBRANCH   7   9
ENDBRANCH   6   7
ENDBRANCH   5   6
ENDBRANCH   1   5
BRANCH   2  22
ATOM     22  C   UNL     1      25.950  14.408  -1.703  0.00  0.00    +0.152 C 
BRANCH  22  23
ATOM     23  C   UNL     1      26.121  13.056  -2.425  0.00  0.00    +0.193 C 
ATOM     24  O   UNL     1      27.299  13.174  -3.253  0.00  0.00    -0.219 OA
BRANCH  23  25
ATOM     25  C   UNL     1      26.386  11.808  -1.553  0.00  0.00    +0.212 C 
ATOM     26  O   UNL     1      27.679  11.256  -1.847  0.00  0.00    -0.218 OA
BRANCH  25  27
ATOM     27  C   UNL     1      26.301  12.098  -0.006  0.00  0.00    +0.171 C 
ATOM     28  O   UNL     1      27.478  11.703   0.690  0.00  0.00    -0.343 OA
ATOM     29  C   UNL     1      27.581  11.619   2.081  0.00  0.00    +0.220 C 
ATOM     30  C   UNL     1      26.428  10.802   2.689  0.00  0.00    +0.076 C 
ATOM     31  C   UNL     1      25.111  11.404   2.172  0.00  0.00    +0.177 C 
ATOM     32  O   UNL     1      24.009  10.708   2.738  0.00  0.00    -0.221 OA
ATOM     33  C   UNL     1      25.073  11.354   0.613  0.00  0.00    +0.155 C 
BRANCH  33  34
ATOM     34  N   UNL     1      23.820  11.919   0.118  0.00  0.00    -0.202 NA
ATOM     35  C   UNL     1      22.767  11.305  -0.478  0.00  0.00    +0.242 C 
ATOM     36  C   UNL     1      21.479  12.072  -0.623  0.00  0.00    +0.096 C 
ATOM     37  O   UNL     1      22.886  10.149  -0.881  0.00  0.00    -0.273 OA
ENDBRANCH  33  34
BRANCH  29  38
ATOM     38  C   UNL     1      27.736  13.064   2.807  0.00  0.00    +0.391 C 
ATOM     39  O   UNL     1      27.871  12.782   4.117  0.00  0.00    -0.243 OA
ATOM     40  O   UNL     1      27.973  13.946   1.828  0.00  0.00    -0.243 OA
ENDBRANCH  29  38
ENDBRANCH  25  27
ENDBRANCH  23  25
ENDBRANCH  22  23
ENDBRANCH   2  22
TORSDOF 11
