REMARK VINA RESULT:    -6.973      3.404      8.680
REMARK INTER + INTRA:         -14.596
REMARK INTER:                 -11.832
REMARK INTRA:                  -2.764
REMARK UNBOUND:                -2.732
REMARK  Name = lig_assembled_85.pdb
REMARK  14 active torsions:
REMARK  status: ('A' for Active; 'I' for Inactive)
REMARK    1  A    between atoms: _2  and  _9
REMARK    2  A    between atoms: _3  and  _5
REMARK    3  A    between atoms: _3  and  _16
REMARK    4  A    between atoms: _6  and  _7
REMARK    5  A    between atoms: _6  and  _18
REMARK    6  A    between atoms: _14  and  _15
REMARK    7  A    between atoms: _18  and  _20
REMARK    8  A    between atoms: _19  and  _24
REMARK    9  A    between atoms: _20  and  _23
REMARK   10  A    between atoms: _28  and  _38
REMARK   11  A    between atoms: _30  and  _31
REMARK   12  A    between atoms: _32  and  _34
REMARK   13  A    between atoms: _34  and  _36
REMARK   14  A    between atoms: _36  and  _38
REMARK                            x       y       z     vdW  Elec       q    Type
REMARK                         _______ _______ _______ _____ _____    ______ ____
ROOT
ATOM      1  C   UNL     1      26.161  16.021  -4.195  0.00  0.00    +0.400 C 
ATOM      2  N   UNL     1      24.837  15.652  -4.252  0.00  0.00    -0.278 N 
ATOM      3  H   UNL     1      24.689  15.422  -5.285  0.00  0.00    +0.152 HD
ATOM      4  O   UNL     1      26.856  15.839  -5.191  0.00  0.00    -0.226 OA
ENDROOT
BRANCH   2   5
ATOM      5  C   UNL     1      23.577  15.426  -3.549  0.00  0.00    +0.152 C 
BRANCH   5   6
ATOM      6  C   UNL     1      22.784  14.170  -3.963  0.00  0.00    +0.193 C 
ATOM      7  O   UNL     1      22.423  14.346  -5.351  0.00  0.00    -0.219 OA
BRANCH   6   8
ATOM      8  C   UNL     1      23.522  12.813  -3.926  0.00  0.00    +0.212 C 
ATOM      9  O   UNL     1      24.305  12.635  -5.118  0.00  0.00    -0.218 OA
BRANCH   8  10
ATOM     10  C   UNL     1      24.465  12.650  -2.674  0.00  0.00    +0.171 C 
ATOM     11  O   UNL     1      25.638  11.898  -2.967  0.00  0.00    -0.343 OA
ATOM     12  C   UNL     1      26.516  11.399  -2.001  0.00  0.00    +0.220 C 
ATOM     13  C   UNL     1      25.771  10.621  -0.901  0.00  0.00    +0.076 C 
ATOM     14  C   UNL     1      24.663  11.538  -0.357  0.00  0.00    +0.177 C 
ATOM     15  O   UNL     1      23.967  10.880   0.693  0.00  0.00    -0.221 OA
ATOM     16  C   UNL     1      23.693  11.950  -1.508  0.00  0.00    +0.155 C 
BRANCH  16  17
ATOM     17  N   UNL     1      22.634  12.815  -0.993  0.00  0.00    -0.202 NA
ATOM     18  C   UNL     1      21.288  12.651  -1.025  0.00  0.00    +0.242 C 
ATOM     19  C   UNL     1      20.437  13.547  -0.162  0.00  0.00    +0.096 C 
ATOM     20  O   UNL     1      20.798  11.784  -1.747  0.00  0.00    -0.273 OA
ENDBRANCH  16  17
BRANCH  12  21
ATOM     21  C   UNL     1      27.498  12.530  -1.372  0.00  0.00    +0.391 C 
ATOM     22  O   UNL     1      27.988  11.977  -0.246  0.00  0.00    -0.243 OA
ATOM     23  O   UNL     1      27.682  13.438  -2.339  0.00  0.00    -0.243 OA
ENDBRANCH  12  21
ENDBRANCH   8  10
ENDBRANCH   6   8
ENDBRANCH   5   6
ENDBRANCH   2   5
BRANCH   1  24
ATOM     24  O   UNL     1      26.544  16.561  -3.085  0.00  0.00    -0.450 OA
BRANCH  24  25
ATOM     25  C   UNL     1      27.241  17.700  -2.636  0.00  0.00    +0.240 C 
BRANCH  25  26
ATOM     26  C   UNL     1      27.465  17.844  -1.119  0.00  0.00    +0.100 C 
BRANCH  26  28
ATOM     27  N   UNL     1      29.866  17.535  -0.636  0.00  0.00    -0.134 NA
ATOM     28  C   UNL     1      28.605  17.016  -0.691  0.00  0.00    +0.086 A 
ATOM     29  C   UNL     1      28.630  15.711  -0.248  0.00  0.00    +0.139 A 
ATOM     30  N   UNL     1      29.945  15.479   0.075  0.00  0.00    -0.219 N 
ATOM     31  N   UNL     1      30.669  16.603  -0.143  0.00  0.00    -0.061 NA
BRANCH  30  32
ATOM     32  C   UNL     1      30.541  14.336   0.648  0.00  0.00    +0.080 A 
ATOM     33  C   UNL     1      31.333  13.419  -0.060  0.00  0.00    +0.062 A 
ATOM     34  C   UNL     1      31.653  12.198   0.577  0.00  0.00    +0.016 A 
ATOM     35  C   UNL     1      31.226  11.907   1.877  0.00  0.00    +0.021 A 
ATOM     36  C   UNL     1      30.506  12.857   2.587  0.00  0.00    +0.043 A 
ATOM     37 CL   UNL     1      29.943  12.503   4.172  0.00  0.00    -0.083 Cl
ATOM     38  C   UNL     1      30.187  14.075   1.993  0.00  0.00    +0.048 A 
BRANCH  33  39
ATOM     39  C   UNL     1      31.839  13.514  -1.461  0.00  0.00    +0.248 C 
ATOM     40  O   UNL     1      31.026  13.194  -2.332  0.00  0.00    -0.270 OA
ATOM     41  N   UNL     1      33.151  13.869  -1.794  0.00  0.00    -0.304 N 
ATOM     42  C   UNL     1      34.187  14.392  -0.914  0.00  0.00    +0.132 C 
ATOM     43  C   UNL     1      33.473  13.901  -3.218  0.00  0.00    +0.132 C 
ENDBRANCH  33  39
ENDBRANCH  30  32
ENDBRANCH  26  28
ENDBRANCH  25  26
ENDBRANCH  24  25
ENDBRANCH   1  24
TORSDOF 12
