REMARK VINA RESULT:    -7.843      1.589      2.321
REMARK INTER + INTRA:         -14.555
REMARK INTER:                 -12.143
REMARK INTRA:                  -2.412
REMARK UNBOUND:                -1.669
REMARK  Name = lig_assembled_70.pdb
REMARK  11 active torsions:
REMARK  status: ('A' for Active; 'I' for Inactive)
REMARK    1  A    between atoms: _2  and  _9
REMARK    2  A    between atoms: _6  and  _7
REMARK    3  A    between atoms: _6  and  _17
REMARK    4  A    between atoms: _17  and  _19
REMARK    5  A    between atoms: _18  and  _23
REMARK    6  A    between atoms: _19  and  _22
REMARK    7  A    between atoms: _27  and  _37
REMARK    8  A    between atoms: _29  and  _30
REMARK    9  A    between atoms: _31  and  _33
REMARK   10  A    between atoms: _33  and  _35
REMARK   11  A    between atoms: _35  and  _37
REMARK                            x       y       z     vdW  Elec       q    Type
REMARK                         _______ _______ _______ _____ _____    ______ ____
ROOT
ATOM      1  C   UNL     1      28.035  17.068  -0.912  0.00  0.00    +0.400 C 
ATOM      2  N   UNL     1      28.283  15.794  -0.456  0.00  0.00    -0.278 N 
ATOM      3  H   UNL     1      28.533  15.944   0.572  0.00  0.00    +0.152 HD
ATOM      4  O   UNL     1      27.973  17.976  -0.087  0.00  0.00    -0.226 OA
ENDROOT
BRANCH   1   5
ATOM      5  O   UNL     1      27.921  17.192  -2.193  0.00  0.00    -0.450 OA
BRANCH   5   6
ATOM      6  C   UNL     1      26.923  17.431  -3.159  0.00  0.00    +0.240 C 
BRANCH   6   7
ATOM      7  C   UNL     1      26.668  16.330  -4.205  0.00  0.00    +0.100 C 
BRANCH   7   9
ATOM      8  N   UNL     1      26.332  13.882  -4.005  0.00  0.00    -0.134 NA
ATOM      9  C   UNL     1      26.057  15.147  -3.571  0.00  0.00    +0.086 A 
ATOM     10  C   UNL     1      25.176  15.078  -2.518  0.00  0.00    +0.140 A 
ATOM     11  N   UNL     1      24.947  13.734  -2.332  0.00  0.00    -0.218 N 
ATOM     12  N   UNL     1      25.648  13.030  -3.251  0.00  0.00    -0.060 NA
BRANCH  11  13
ATOM     13  C   UNL     1      24.148  13.110  -1.352  0.00  0.00    +0.086 A 
ATOM     14  C   UNL     1      22.767  13.205  -1.406  0.00  0.00    +0.139 A 
ATOM     15  N   UNL     1      21.936  12.592  -0.523  0.00  0.00    -0.253 NA
ATOM     16  C   UNL     1      22.484  11.846   0.454  0.00  0.00    +0.071 A 
ATOM     17  C   UNL     1      23.879  11.706   0.597  0.00  0.00    +0.002 A 
ATOM     18  C   UNL     1      24.414  10.917   1.632  0.00  0.00    +0.010 A 
ATOM     19  C   UNL     1      23.571  10.248   2.513  0.00  0.00    +0.001 A 
ATOM     20  C   UNL     1      22.194  10.374   2.372  0.00  0.00    +0.002 A 
ATOM     21  C   UNL     1      21.666  11.174   1.353  0.00  0.00    +0.028 A 
ATOM     22  C   UNL     1      24.711  12.360  -0.320  0.00  0.00    +0.039 A 
ENDBRANCH  11  13
ENDBRANCH   7   9
ENDBRANCH   6   7
ENDBRANCH   5   6
ENDBRANCH   1   5
BRANCH   2  23
ATOM     23  C   UNL     1      28.341  14.362  -0.737  0.00  0.00    +0.152 C 
BRANCH  23  24
ATOM     24  C   UNL     1      28.087  13.424   0.461  0.00  0.00    +0.193 C 
ATOM     25  O   UNL     1      28.746  12.175   0.157  0.00  0.00    -0.219 OA
BRANCH  24  26
ATOM     26  C   UNL     1      28.666  13.841   1.831  0.00  0.00    +0.212 C 
ATOM     27  O   UNL     1      27.622  13.917   2.815  0.00  0.00    -0.218 OA
BRANCH  26  28
ATOM     28  C   UNL     1      29.786  12.866   2.359  0.00  0.00    +0.171 C 
ATOM     29  O   UNL     1      29.508  12.368   3.664  0.00  0.00    -0.343 OA
ATOM     30  C   UNL     1      30.432  11.689   4.462  0.00  0.00    +0.220 C 
ATOM     31  C   UNL     1      31.763  12.453   4.569  0.00  0.00    +0.076 C 
ATOM     32  C   UNL     1      32.241  12.753   3.138  0.00  0.00    +0.177 C 
ATOM     33  O   UNL     1      33.492  13.425   3.178  0.00  0.00    -0.221 OA
ATOM     34  C   UNL     1      31.169  13.596   2.379  0.00  0.00    +0.155 C 
BRANCH  34  35
ATOM     35  N   UNL     1      31.621  13.889   1.022  0.00  0.00    -0.202 NA
ATOM     36  C   UNL     1      31.686  15.075   0.366  0.00  0.00    +0.242 C 
ATOM     37  C   UNL     1      32.467  15.140  -0.921  0.00  0.00    +0.096 C 
ATOM     38  O   UNL     1      31.114  16.059   0.831  0.00  0.00    -0.273 OA
ENDBRANCH  34  35
BRANCH  30  39
ATOM     39  C   UNL     1      30.664  10.145   4.013  0.00  0.00    +0.391 C 
ATOM     40  O   UNL     1      29.729   9.914   3.070  0.00  0.00    -0.243 OA
ATOM     41  O   UNL     1      31.854   9.790   4.511  0.00  0.00    -0.243 OA
ENDBRANCH  30  39
ENDBRANCH  26  28
ENDBRANCH  24  26
ENDBRANCH  23  24
ENDBRANCH   2  23
TORSDOF 11
