REMARK VINA RESULT:    -6.816      2.318      9.373
REMARK INTER + INTRA:         -15.970
REMARK INTER:                 -13.391
REMARK INTRA:                  -2.578
REMARK UNBOUND:                -2.580
REMARK  Name = lig_assembled_90.pdb
REMARK  17 active torsions:
REMARK  status: ('A' for Active; 'I' for Inactive)
REMARK    1  A    between atoms: _2  and  _12
REMARK    2  A    between atoms: _3  and  _14
REMARK    3  A    between atoms: _4  and  _16
REMARK    4  A    between atoms: _9  and  _10
REMARK    5  A    between atoms: _9  and  _23
REMARK    6  A    between atoms: _12  and  _13
REMARK    7  A    between atoms: _14  and  _15
REMARK    8  A    between atoms: _15  and  _16
REMARK    9  A    between atoms: _15  and  _21
REMARK   10  A    between atoms: _23  and  _25
REMARK   11  A    between atoms: _24  and  _29
REMARK   12  A    between atoms: _25  and  _28
REMARK   13  A    between atoms: _33  and  _43
REMARK   14  A    between atoms: _35  and  _36
REMARK   15  A    between atoms: _37  and  _39
REMARK   16  A    between atoms: _39  and  _41
REMARK   17  A    between atoms: _41  and  _43
REMARK                            x       y       z     vdW  Elec       q    Type
REMARK                         _______ _______ _______ _____ _____    ______ ____
ROOT
ATOM      1  C   UNL     1      31.165  14.214  -0.099  0.00  0.00    +0.240 C 
ENDROOT
BRANCH   1   2
ATOM      2  O   UNL     1      32.201  14.117   0.851  0.00  0.00    -0.450 OA
BRANCH   2   3
ATOM      3  C   UNL     1      33.270  13.424   1.069  0.00  0.00    +0.400 C 
ATOM      4  N   UNL     1      33.067  12.107   1.406  0.00  0.00    -0.278 N 
ATOM      5  H   UNL     1      34.046  11.683   1.346  0.00  0.00    +0.152 HD
ATOM      6  O   UNL     1      34.427  13.826   0.974  0.00  0.00    -0.226 OA
BRANCH   4   7
ATOM      7  C   UNL     1      32.139  11.055   1.813  0.00  0.00    +0.152 C 
BRANCH   7   8
ATOM      8  C   UNL     1      30.740  11.522   2.268  0.00  0.00    +0.193 C 
ATOM      9  O   UNL     1      29.999  10.332   2.617  0.00  0.00    -0.219 OA
BRANCH   8  10
ATOM     10  C   UNL     1      30.658  12.411   3.529  0.00  0.00    +0.212 C 
ATOM     11  O   UNL     1      29.351  12.995   3.646  0.00  0.00    -0.218 OA
BRANCH  10  12
ATOM     12  C   UNL     1      30.986  11.635   4.862  0.00  0.00    +0.171 C 
ATOM     13  O   UNL     1      29.872  11.572   5.746  0.00  0.00    -0.343 OA
ATOM     14  C   UNL     1      29.947  11.165   7.080  0.00  0.00    +0.220 C 
ATOM     15  C   UNL     1      31.058  11.909   7.842  0.00  0.00    +0.076 C 
ATOM     16  C   UNL     1      32.359  11.743   7.040  0.00  0.00    +0.177 C 
ATOM     17  O   UNL     1      33.430  12.380   7.723  0.00  0.00    -0.221 OA
ATOM     18  C   UNL     1      32.182  12.319   5.601  0.00  0.00    +0.155 C 
BRANCH  18  19
ATOM     19  N   UNL     1      33.418  12.170   4.839  0.00  0.00    -0.202 NA
ATOM     20  C   UNL     1      34.400  13.074   4.591  0.00  0.00    +0.242 C 
ATOM     21  C   UNL     1      35.705  12.576   4.027  0.00  0.00    +0.096 C 
ATOM     22  O   UNL     1      34.204  14.264   4.831  0.00  0.00    -0.273 OA
ENDBRANCH  18  19
BRANCH  14  23
ATOM     23  C   UNL     1      30.075   9.556   7.260  0.00  0.00    +0.391 C 
ATOM     24  O   UNL     1      30.458   9.378   8.539  0.00  0.00    -0.243 OA
ATOM     25  O   UNL     1      29.474   9.016   6.192  0.00  0.00    -0.243 OA
ENDBRANCH  14  23
ENDBRANCH  10  12
ENDBRANCH   8  10
ENDBRANCH   7   8
ENDBRANCH   4   7
ENDBRANCH   2   3
ENDBRANCH   1   2
BRANCH   1  26
ATOM     26  C   UNL     1      29.751  14.533   0.421  0.00  0.00    +0.100 C 
BRANCH  26  28
ATOM     27  N   UNL     1      29.653  16.862  -0.425  0.00  0.00    -0.134 NA
ATOM     28  C   UNL     1      29.130  15.595  -0.394  0.00  0.00    +0.086 A 
ATOM     29  C   UNL     1      28.018  15.548  -1.204  0.00  0.00    +0.134 A 
ATOM     30  N   UNL     1      27.930  16.808  -1.715  0.00  0.00    -0.243 N 
ATOM     31  N   UNL     1      28.902  17.601  -1.232  0.00  0.00    -0.065 NA
BRANCH  30  32
ATOM     32  C   UNL     1      26.904  17.356  -2.571  0.00  0.00    +0.240 C 
BRANCH  32  33
ATOM     33  C   UNL     1      26.005  16.269  -3.117  0.00  0.00    +0.235 C 
ATOM     34  O   UNL     1      26.285  15.621  -4.124  0.00  0.00    -0.274 OA
ATOM     35  N   UNL     1      24.869  16.016  -2.372  0.00  0.00    -0.311 N 
ATOM     36  H   UNL     1      24.539  16.731  -1.729  0.00  0.00    +0.149 HD
BRANCH  35  37
ATOM     37  C   UNL     1      23.881  15.052  -2.837  0.00  0.00    +0.137 C 
BRANCH  37  38
ATOM     38  C   UNL     1      23.189  14.354  -1.657  0.00  0.00    +0.151 C 
BRANCH  38  39
ATOM     39  O   UNL     1      21.803  14.718  -1.658  0.00  0.00    -0.388 OA
ATOM     40  H   UNL     1      21.315  14.110  -1.067  0.00  0.00    +0.210 HD
ENDBRANCH  38  39
BRANCH  38  41
ATOM     41  C   UNL     1      23.364  12.831  -1.716  0.00  0.00    +0.162 C 
BRANCH  41  42
ATOM     42  N   UNL     1      23.921  12.285  -0.487  0.00  0.00    -0.269 N 
ATOM     43  C   UNL     1      25.275  12.220  -0.241  0.00  0.00    +0.113 A 
ATOM     44  C   UNL     1      25.403  11.612   0.985  0.00  0.00    +0.137 A 
ATOM     45  N   UNL     1      24.172  11.298   1.499  0.00  0.00    -0.172 NA
ATOM     46  C   UNL     1      23.298  11.725   0.601  0.00  0.00    +0.450 A 
ATOM     47  N   UNL     1      21.874  11.585   0.783  0.00  0.00    +0.120 N 
ATOM     48  O   UNL     1      21.132  12.109  -0.059  0.00  0.00    +0.045 OA
ATOM     49  O   UNL     1      21.488  10.938   1.765  0.00  0.00    -0.573 OA
ENDBRANCH  41  42
ENDBRANCH  38  41
ENDBRANCH  37  38
ENDBRANCH  35  37
ENDBRANCH  32  33
ENDBRANCH  30  32
ENDBRANCH  26  28
ENDBRANCH   1  26
TORSDOF 17
