REMARK VINA RESULT:    -6.318      2.357     10.805
REMARK INTER + INTRA:         -14.193
REMARK INTER:                 -11.666
REMARK INTRA:                  -2.527
REMARK UNBOUND:                -1.965
REMARK  Name = lig_assembled_11.pdb
REMARK  17 active torsions:
REMARK  status: ('A' for Active; 'I' for Inactive)
REMARK    1  A    between atoms: _2  and  _8
REMARK    2  A    between atoms: _4  and  _8
REMARK    3  A    between atoms: _4  and  _12
REMARK    4  A    between atoms: _5  and  _6
REMARK    5  A    between atoms: _5  and  _16
REMARK    6  A    between atoms: _8  and  _9
REMARK    7  A    between atoms: _9  and  _10
REMARK    8  A    between atoms: _10  and  _11
REMARK    9  A    between atoms: _11  and  _14
REMARK   10  A    between atoms: _16  and  _18
REMARK   11  A    between atoms: _17  and  _22
REMARK   12  A    between atoms: _18  and  _21
REMARK   13  A    between atoms: _26  and  _36
REMARK   14  A    between atoms: _28  and  _29
REMARK   15  A    between atoms: _30  and  _32
REMARK   16  A    between atoms: _32  and  _34
REMARK   17  A    between atoms: _34  and  _36
REMARK                            x       y       z     vdW  Elec       q    Type
REMARK                         _______ _______ _______ _____ _____    ______ ____
ROOT
ATOM      1  C   UNL     1      26.554  16.496  -3.081  0.00  0.00    +0.400 C 
ATOM      2  N   UNL     1      26.644  15.196  -3.523  0.00  0.00    -0.278 N 
ATOM      3  H   UNL     1      26.069  15.201  -4.424  0.00  0.00    +0.152 HD
ATOM      4  O   UNL     1      26.054  17.329  -3.832  0.00  0.00    -0.226 OA
ENDROOT
BRANCH   1   5
ATOM      5  O   UNL     1      26.986  16.710  -1.882  0.00  0.00    -0.450 OA
BRANCH   5   6
ATOM      6  C   UNL     1      28.208  16.807  -1.188  0.00  0.00    +0.240 C 
BRANCH   6   7
ATOM      7  C   UNL     1      28.580  15.652  -0.239  0.00  0.00    +0.100 C 
BRANCH   7   9
ATOM      8  N   UNL     1      30.972  16.238  -0.481  0.00  0.00    -0.134 NA
ATOM      9  C   UNL     1      29.998  15.282  -0.410  0.00  0.00    +0.086 A 
ATOM     10  C   UNL     1      30.579  14.039  -0.513  0.00  0.00    +0.134 A 
ATOM     11  N   UNL     1      31.906  14.301  -0.691  0.00  0.00    -0.238 N 
ATOM     12  N   UNL     1      32.139  15.627  -0.641  0.00  0.00    -0.065 NA
BRANCH  11  13
ATOM     13  C   UNL     1      33.047  13.394  -0.775  0.00  0.00    +0.217 C 
BRANCH  13  14
ATOM     14  C   UNL     1      34.048  13.562   0.357  0.00  0.00    +0.330 C 
ATOM     15  O   UNL     1      35.264  13.589   0.239  0.00  0.00    -0.249 OA
BRANCH  14  16
ATOM     16  O   UNL     1      33.480  13.680   1.583  0.00  0.00    -0.479 OA
ATOM     17  H   UNL     1      33.746  13.029   2.262  0.00  0.00    +0.295 HD
ENDBRANCH  14  16
ENDBRANCH  13  14
BRANCH  13  18
ATOM     18  C   UNL     1      33.709  13.435  -2.165  0.00  0.00    +0.049 C 
BRANCH  18  19
ATOM     19  C   UNL     1      32.758  13.178  -3.340  0.00  0.00    +0.123 C 
BRANCH  19  20
ATOM     20  C   UNL     1      33.372  13.639  -4.644  0.00  0.00    +0.305 C 
ATOM     21  O   UNL     1      33.856  14.743  -4.832  0.00  0.00    -0.251 OA
BRANCH  20  22
ATOM     22  O   UNL     1      33.308  12.697  -5.610  0.00  0.00    -0.481 OA
ATOM     23  H   UNL     1      33.901  12.854  -6.369  0.00  0.00    +0.295 HD
ENDBRANCH  20  22
ENDBRANCH  19  20
ENDBRANCH  18  19
ENDBRANCH  13  18
ENDBRANCH  11  13
ENDBRANCH   7   9
ENDBRANCH   6   7
ENDBRANCH   5   6
ENDBRANCH   1   5
BRANCH   2  24
ATOM     24  C   UNL     1      27.171  13.849  -3.325  0.00  0.00    +0.152 C 
BRANCH  24  25
ATOM     25  C   UNL     1      26.152  12.697  -3.438  0.00  0.00    +0.193 C 
ATOM     26  O   UNL     1      26.898  11.467  -3.302  0.00  0.00    -0.219 OA
BRANCH  25  27
ATOM     27  C   UNL     1      25.055  12.603  -2.355  0.00  0.00    +0.212 C 
ATOM     28  O   UNL     1      25.396  13.421  -1.224  0.00  0.00    -0.218 OA
BRANCH  27  29
ATOM     29  C   UNL     1      23.628  13.029  -2.873  0.00  0.00    +0.171 C 
ATOM     30  O   UNL     1      23.617  14.337  -3.435  0.00  0.00    -0.343 OA
ATOM     31  C   UNL     1      22.458  15.052  -3.744  0.00  0.00    +0.220 C 
ATOM     32  C   UNL     1      21.476  15.086  -2.560  0.00  0.00    +0.076 C 
ATOM     33  C   UNL     1      21.240  13.634  -2.112  0.00  0.00    +0.177 C 
ATOM     34  O   UNL     1      20.306  13.605  -1.043  0.00  0.00    -0.221 OA
ATOM     35  C   UNL     1      22.593  12.972  -1.702  0.00  0.00    +0.155 C 
BRANCH  35  36
ATOM     36  N   UNL     1      22.373  11.595  -1.270  0.00  0.00    -0.202 NA
ATOM     37  C   UNL     1      22.448  11.053  -0.028  0.00  0.00    +0.242 C 
ATOM     38  C   UNL     1      21.885   9.671   0.185  0.00  0.00    +0.096 C 
ATOM     39  O   UNL     1      22.965  11.694   0.885  0.00  0.00    -0.273 OA
ENDBRANCH  35  36
BRANCH  31  40
ATOM     40  C   UNL     1      21.732  14.550  -5.108  0.00  0.00    +0.391 C 
ATOM     41  O   UNL     1      20.642  15.333  -5.230  0.00  0.00    -0.243 OA
ATOM     42  O   UNL     1      22.624  13.778  -5.739  0.00  0.00    -0.243 OA
ENDBRANCH  31  40
ENDBRANCH  27  29
ENDBRANCH  25  27
ENDBRANCH  24  25
ENDBRANCH   2  24
TORSDOF 17
