REMARK VINA RESULT:    -6.790      2.776      9.108
REMARK INTER + INTRA:         -12.931
REMARK INTER:                 -11.465
REMARK INTRA:                  -1.466
REMARK UNBOUND:                -1.775
REMARK  Name = lig_assembled_42.pdb
REMARK  11 active torsions:
REMARK  status: ('A' for Active; 'I' for Inactive)
REMARK    1  A    between atoms: _2  and  _8
REMARK    2  A    between atoms: _5  and  _6
REMARK    3  A    between atoms: _5  and  _16
REMARK    4  A    between atoms: _16  and  _18
REMARK    5  A    between atoms: _17  and  _22
REMARK    6  A    between atoms: _18  and  _21
REMARK    7  A    between atoms: _26  and  _36
REMARK    8  A    between atoms: _28  and  _29
REMARK    9  A    between atoms: _30  and  _32
REMARK   10  A    between atoms: _32  and  _34
REMARK   11  A    between atoms: _34  and  _36
REMARK                            x       y       z     vdW  Elec       q    Type
REMARK                         _______ _______ _______ _____ _____    ______ ____
ROOT
ATOM      1  C   UNL     1      27.717  17.554  -1.465  0.00  0.00    +0.400 C 
ATOM      2  N   UNL     1      26.741  16.801  -2.073  0.00  0.00    -0.278 N 
ATOM      3  H   UNL     1      25.882  17.435  -2.038  0.00  0.00    +0.152 HD
ATOM      4  O   UNL     1      27.470  18.732  -1.217  0.00  0.00    -0.226 OA
ENDROOT
BRANCH   1   5
ATOM      5  O   UNL     1      28.811  16.928  -1.179  0.00  0.00    -0.450 OA
BRANCH   5   6
ATOM      6  C   UNL     1      29.354  16.144  -0.143  0.00  0.00    +0.240 C 
BRANCH   6   7
ATOM      7  C   UNL     1      30.889  16.038  -0.061  0.00  0.00    +0.100 C 
BRANCH   7   9
ATOM      8  N   UNL     1      31.543  13.688   0.400  0.00  0.00    -0.134 NA
ATOM      9  C   UNL     1      31.284  14.950   0.853  0.00  0.00    +0.086 A 
ATOM     10  C   UNL     1      31.455  14.979   2.216  0.00  0.00    +0.139 A 
ATOM     11  N   UNL     1      31.823  13.700   2.559  0.00  0.00    -0.220 N 
ATOM     12  N   UNL     1      31.870  12.934   1.442  0.00  0.00    -0.061 NA
BRANCH  11  13
ATOM     13  C   UNL     1      32.118  13.187   3.849  0.00  0.00    +0.071 A 
ATOM     14  C   UNL     1      31.122  12.528   4.586  0.00  0.00    +0.077 A 
ATOM     15  C   UNL     1      31.458  12.048   5.834  0.00  0.00    +0.168 A 
ATOM     16  O   UNL     1      30.616  11.386   6.671  0.00  0.00    -0.453 OA
ATOM     17  C   UNL     1      31.493  11.129   7.786  0.00  0.00    +0.466 C 
ATOM     18  O   UNL     1      32.828  11.647   7.598  0.00  0.00    -0.453 OA
ATOM     19  C   UNL     1      32.718  12.197   6.359  0.00  0.00    +0.166 A 
ATOM     20  C   UNL     1      33.720  12.840   5.664  0.00  0.00    +0.051 A 
ATOM     21  C   UNL     1      33.415  13.341   4.391  0.00  0.00    +0.031 A 
ENDBRANCH  11  13
ENDBRANCH   7   9
ENDBRANCH   6   7
ENDBRANCH   5   6
ENDBRANCH   1   5
BRANCH   2  22
ATOM     22  C   UNL     1      26.364  15.558  -2.742  0.00  0.00    +0.152 C 
BRANCH  22  23
ATOM     23  C   UNL     1      25.006  14.951  -2.334  0.00  0.00    +0.193 C 
ATOM     24  O   UNL     1      24.049  15.367  -3.333  0.00  0.00    -0.219 OA
BRANCH  23  25
ATOM     25  C   UNL     1      24.891  13.411  -2.307  0.00  0.00    +0.212 C 
ATOM     26  O   UNL     1      26.037  12.811  -2.931  0.00  0.00    -0.218 OA
BRANCH  25  27
ATOM     27  C   UNL     1      24.742  12.822  -0.852  0.00  0.00    +0.171 C 
ATOM     28  O   UNL     1      25.800  11.932  -0.511  0.00  0.00    -0.343 OA
ATOM     29  C   UNL     1      25.793  11.090   0.603  0.00  0.00    +0.220 C 
ATOM     30  C   UNL     1      24.496  10.267   0.689  0.00  0.00    +0.076 C 
ATOM     31  C   UNL     1      23.317  11.253   0.615  0.00  0.00    +0.177 C 
ATOM     32  O   UNL     1      22.091  10.546   0.730  0.00  0.00    -0.221 OA
ATOM     33  C   UNL     1      23.380  12.066  -0.715  0.00  0.00    +0.155 C 
BRANCH  33  34
ATOM     34  N   UNL     1      22.258  12.998  -0.793  0.00  0.00    -0.202 NA
ATOM     35  C   UNL     1      21.268  13.089  -1.717  0.00  0.00    +0.242 C 
ATOM     36  C   UNL     1      20.072  13.950  -1.401  0.00  0.00    +0.096 C 
ATOM     37  O   UNL     1      21.367  12.474  -2.776  0.00  0.00    -0.273 OA
ENDBRANCH  33  34
BRANCH  29  38
ATOM     38  C   UNL     1      26.104  11.862   1.999  0.00  0.00    +0.391 C 
ATOM     39  O   UNL     1      25.662  11.030   2.962  0.00  0.00    -0.243 OA
ATOM     40  O   UNL     1      26.934  12.865   1.689  0.00  0.00    -0.243 OA
ENDBRANCH  29  38
ENDBRANCH  25  27
ENDBRANCH  23  25
ENDBRANCH  22  23
ENDBRANCH   2  22
TORSDOF 11
