REMARK VINA RESULT:    -7.132      1.279      1.596
REMARK INTER + INTRA:         -14.793
REMARK INTER:                 -13.137
REMARK INTRA:                  -1.656
REMARK UNBOUND:                -1.823
REMARK  Name = lig_assembled_12.pdb
REMARK  14 active torsions:
REMARK  status: ('A' for Active; 'I' for Inactive)
REMARK    1  A    between atoms: _2  and  _8
REMARK    2  A    between atoms: _5  and  _6
REMARK    3  A    between atoms: _5  and  _16
REMARK    4  A    between atoms: _8  and  _15
REMARK    5  A    between atoms: _9  and  _10
REMARK    6  A    between atoms: _9  and  _15
REMARK    7  A    between atoms: _16  and  _18
REMARK    8  A    between atoms: _17  and  _22
REMARK    9  A    between atoms: _18  and  _21
REMARK   10  A    between atoms: _26  and  _36
REMARK   11  A    between atoms: _28  and  _29
REMARK   12  A    between atoms: _30  and  _32
REMARK   13  A    between atoms: _32  and  _34
REMARK   14  A    between atoms: _34  and  _36
REMARK                            x       y       z     vdW  Elec       q    Type
REMARK                         _______ _______ _______ _____ _____    ______ ____
ROOT
ATOM      1  C   UNL     1      29.078  17.155  -0.394  0.00  0.00    +0.400 C 
ATOM      2  N   UNL     1      29.189  15.953   0.265  0.00  0.00    -0.278 N 
ATOM      3  H   UNL     1      29.879  16.166   1.053  0.00  0.00    +0.152 HD
ATOM      4  O   UNL     1      29.585  18.148   0.122  0.00  0.00    -0.226 OA
ENDROOT
BRANCH   2   5
ATOM      5  C   UNL     1      28.787  14.554   0.376  0.00  0.00    +0.152 C 
BRANCH   5   6
ATOM      6  C   UNL     1      29.495  13.565  -0.572  0.00  0.00    +0.193 C 
ATOM      7  O   UNL     1      29.063  13.892  -1.911  0.00  0.00    -0.219 OA
BRANCH   6   8
ATOM      8  C   UNL     1      31.037  13.619  -0.640  0.00  0.00    +0.212 C 
ATOM      9  O   UNL     1      31.477  14.939  -0.999  0.00  0.00    -0.218 OA
BRANCH   8  10
ATOM     10  C   UNL     1      31.737  13.204   0.710  0.00  0.00    +0.171 C 
ATOM     11  O   UNL     1      31.391  14.061   1.792  0.00  0.00    -0.343 OA
ATOM     12  C   UNL     1      32.044  14.075   3.027  0.00  0.00    +0.220 C 
ATOM     13  C   UNL     1      33.570  14.184   2.864  0.00  0.00    +0.076 C 
ATOM     14  C   UNL     1      34.015  13.065   1.908  0.00  0.00    +0.177 C 
ATOM     15  O   UNL     1      35.426  13.096   1.754  0.00  0.00    -0.221 OA
ATOM     16  C   UNL     1      33.290  13.212   0.534  0.00  0.00    +0.155 C 
BRANCH  16  17
ATOM     17  N   UNL     1      33.716  12.154  -0.379  0.00  0.00    -0.202 NA
ATOM     18  C   UNL     1      34.380  12.242  -1.560  0.00  0.00    +0.242 C 
ATOM     19  C   UNL     1      34.953  10.982  -2.153  0.00  0.00    +0.096 C 
ATOM     20  O   UNL     1      34.498  13.335  -2.111  0.00  0.00    -0.273 OA
ENDBRANCH  16  17
BRANCH  12  21
ATOM     21  C   UNL     1      31.634  12.831   3.989  0.00  0.00    +0.391 C 
ATOM     22  O   UNL     1      32.638  12.738   4.883  0.00  0.00    -0.243 OA
ATOM     23  O   UNL     1      30.347  12.572   3.730  0.00  0.00    -0.243 OA
ENDBRANCH  12  21
ENDBRANCH   8  10
ENDBRANCH   6   8
ENDBRANCH   5   6
ENDBRANCH   2   5
BRANCH   1  24
ATOM     24  O   UNL     1      28.465  17.115  -1.531  0.00  0.00    -0.450 OA
BRANCH  24  25
ATOM     25  C   UNL     1      27.171  16.890  -2.040  0.00  0.00    +0.240 C 
BRANCH  25  26
ATOM     26  C   UNL     1      26.939  17.156  -3.539  0.00  0.00    +0.100 C 
BRANCH  26  28
ATOM     27  N   UNL     1      26.113  15.628  -5.308  0.00  0.00    -0.134 NA
ATOM     28  C   UNL     1      25.940  16.219  -4.082  0.00  0.00    +0.086 A 
ATOM     29  C   UNL     1      24.754  15.786  -3.538  0.00  0.00    +0.136 A 
ATOM     30  N   UNL     1      24.235  14.958  -4.490  0.00  0.00    -0.226 N 
ATOM     31  N   UNL     1      25.067  14.846  -5.543  0.00  0.00    -0.063 NA
BRANCH  30  32
ATOM     32  C   UNL     1      22.995  14.203  -4.457  0.00  0.00    +0.305 C 
BRANCH  32  33
ATOM     33  O   UNL     1      22.350  14.417  -3.204  0.00  0.00    -0.353 OA
BRANCH  33  34
ATOM     34  C   UNL     1      21.166  13.641  -3.082  0.00  0.00    +0.197 C 
BRANCH  34  35
ATOM     35  C   UNL     1      21.286  12.825  -1.824  0.00  0.00    -0.022 A 
ATOM     36  C   UNL     1      20.805  13.321  -0.604  0.00  0.00    +0.006 A 
ATOM     37  C   UNL     1      20.953  12.579   0.570  0.00  0.00    +0.000 A 
ATOM     38  C   UNL     1      21.589  11.341   0.538  0.00  0.00    +0.000 A 
ATOM     39  C   UNL     1      22.083  10.843  -0.667  0.00  0.00    +0.000 A 
ATOM     40  C   UNL     1      21.936  11.583  -1.843  0.00  0.00    +0.006 A 
ENDBRANCH  34  35
ENDBRANCH  33  34
ENDBRANCH  32  33
ENDBRANCH  30  32
ENDBRANCH  26  28
ENDBRANCH  25  26
ENDBRANCH  24  25
ENDBRANCH   1  24
TORSDOF 14
