REMARK VINA RESULT:    -7.998      3.087      9.447
REMARK INTER + INTRA:         -14.904
REMARK INTER:                 -12.673
REMARK INTRA:                  -2.230
REMARK UNBOUND:                -1.762
REMARK  Name = lig_assembled_25.pdb
REMARK  11 active torsions:
REMARK  status: ('A' for Active; 'I' for Inactive)
REMARK    1  A    between atoms: _2  and  _8
REMARK    2  A    between atoms: _5  and  _6
REMARK    3  A    between atoms: _5  and  _20
REMARK    4  A    between atoms: _20  and  _22
REMARK    5  A    between atoms: _21  and  _26
REMARK    6  A    between atoms: _22  and  _25
REMARK    7  A    between atoms: _30  and  _40
REMARK    8  A    between atoms: _32  and  _33
REMARK    9  A    between atoms: _34  and  _36
REMARK   10  A    between atoms: _36  and  _38
REMARK   11  A    between atoms: _38  and  _40
REMARK                            x       y       z     vdW  Elec       q    Type
REMARK                         _______ _______ _______ _____ _____    ______ ____
ROOT
ATOM      1  C   UNL     1      25.819  16.159  -3.957  0.00  0.00    +0.400 C 
ATOM      2  N   UNL     1      24.529  15.701  -3.826  0.00  0.00    -0.278 N 
ATOM      3  H   UNL     1      24.286  15.362  -4.811  0.00  0.00    +0.152 HD
ATOM      4  O   UNL     1      26.412  15.927  -5.008  0.00  0.00    -0.226 OA
ENDROOT
BRANCH   1   5
ATOM      5  O   UNL     1      26.280  16.829  -2.952  0.00  0.00    -0.450 OA
BRANCH   5   6
ATOM      6  C   UNL     1      27.269  17.792  -2.674  0.00  0.00    +0.240 C 
BRANCH   6   7
ATOM      7  C   UNL     1      27.605  18.058  -1.194  0.00  0.00    +0.100 C 
BRANCH   7   9
ATOM      8  N   UNL     1      29.871  17.611  -0.320  0.00  0.00    -0.134 NA
ATOM      9  C   UNL     1      28.656  17.133  -0.730  0.00  0.00    +0.086 A 
ATOM     10  C   UNL     1      28.657  15.759  -0.640  0.00  0.00    +0.134 A 
ATOM     11  N   UNL     1      29.910  15.455  -0.184  0.00  0.00    -0.240 N 
ATOM     12  N   UNL     1      30.632  16.580   0.016  0.00  0.00    -0.065 NA
BRANCH  11  13
ATOM     13  C   UNL     1      30.543  14.162   0.012  0.00  0.00    +0.170 C 
ATOM     14  C   UNL     1      30.411  13.659   1.443  0.00  0.00    -0.011 A 
ATOM     15  C   UNL     1      31.689  13.381   1.976  0.00  0.00    -0.012 A 
ATOM     16  C   UNL     1      32.693  13.691   0.978  0.00  0.00    -0.012 A 
ATOM     17  C   UNL     1      34.071  13.552   1.019  0.00  0.00    +0.009 A 
ATOM     18  C   UNL     1      34.808  13.903  -0.115  0.00  0.00    +0.001 A 
ATOM     19  C   UNL     1      34.170  14.389  -1.268  0.00  0.00    +0.000 A 
ATOM     20  C   UNL     1      32.781  14.532  -1.312  0.00  0.00    +0.006 A 
ATOM     21  C   UNL     1      31.821  12.888   3.264  0.00  0.00    +0.009 A 
ATOM     22  C   UNL     1      30.661  12.672   4.014  0.00  0.00    +0.001 A 
ATOM     23  C   UNL     1      29.392  12.946   3.478  0.00  0.00    +0.000 A 
ATOM     24  C   UNL     1      29.256  13.441   2.181  0.00  0.00    +0.006 A 
ATOM     25  C   UNL     1      32.054  14.182  -0.183  0.00  0.00    -0.011 A 
ENDBRANCH  11  13
ENDBRANCH   7   9
ENDBRANCH   6   7
ENDBRANCH   5   6
ENDBRANCH   1   5
BRANCH   2  26
ATOM     26  C   UNL     1      23.375  15.461  -2.964  0.00  0.00    +0.152 C 
BRANCH  26  27
ATOM     27  C   UNL     1      22.488  14.255  -3.334  0.00  0.00    +0.193 C 
ATOM     28  O   UNL     1      21.793  14.609  -4.551  0.00  0.00    -0.219 OA
BRANCH  27  29
ATOM     29  C   UNL     1      23.195  12.923  -3.668  0.00  0.00    +0.212 C 
ATOM     30  O   UNL     1      23.670  12.933  -5.024  0.00  0.00    -0.218 OA
BRANCH  29  31
ATOM     31  C   UNL     1      24.406  12.603  -2.712  0.00  0.00    +0.171 C 
ATOM     32  O   UNL     1      25.530  12.076  -3.409  0.00  0.00    -0.343 OA
ATOM     33  C   UNL     1      26.635  11.485  -2.792  0.00  0.00    +0.220 C 
ATOM     34  C   UNL     1      26.213  10.405  -1.781  0.00  0.00    +0.076 C 
ATOM     35  C   UNL     1      25.198  11.043  -0.818  0.00  0.00    +0.177 C 
ATOM     36  O   UNL     1      24.805  10.095   0.164  0.00  0.00    -0.221 OA
ATOM     37  C   UNL     1      23.968  11.580  -1.613  0.00  0.00    +0.155 C 
BRANCH  37  38
ATOM     38  N   UNL     1      22.997  12.181  -0.702  0.00  0.00    -0.202 NA
ATOM     39  C   UNL     1      21.700  11.852  -0.476  0.00  0.00    +0.242 C 
ATOM     40  C   UNL     1      21.012  12.442   0.728  0.00  0.00    +0.096 C 
ATOM     41  O   UNL     1      21.123  11.090  -1.248  0.00  0.00    -0.273 OA
ENDBRANCH  37  38
BRANCH  33  42
ATOM     42  C   UNL     1      27.656  12.560  -2.126  0.00  0.00    +0.391 C 
ATOM     43  O   UNL     1      28.138  11.946  -1.028  0.00  0.00    -0.243 OA
ATOM     44  O   UNL     1      27.860  13.501  -3.056  0.00  0.00    -0.243 OA
ENDBRANCH  33  42
ENDBRANCH  29  31
ENDBRANCH  27  29
ENDBRANCH  26  27
ENDBRANCH   2  26
TORSDOF 11
