REMARK VINA RESULT:    -7.707      2.673      5.012
REMARK INTER + INTRA:         -14.747
REMARK INTER:                 -11.882
REMARK INTRA:                  -2.865
REMARK UNBOUND:                -2.085
REMARK  Name = lig_assembled_51.pdb
REMARK  11 active torsions:
REMARK  status: ('A' for Active; 'I' for Inactive)
REMARK    1  A    between atoms: _2  and  _8
REMARK    2  A    between atoms: _5  and  _6
REMARK    3  A    between atoms: _5  and  _17
REMARK    4  A    between atoms: _17  and  _19
REMARK    5  A    between atoms: _18  and  _23
REMARK    6  A    between atoms: _19  and  _22
REMARK    7  A    between atoms: _27  and  _37
REMARK    8  A    between atoms: _29  and  _30
REMARK    9  A    between atoms: _31  and  _33
REMARK   10  A    between atoms: _33  and  _35
REMARK   11  A    between atoms: _35  and  _37
REMARK                            x       y       z     vdW  Elec       q    Type
REMARK                         _______ _______ _______ _____ _____    ______ ____
ROOT
ATOM      1  C   UNL     1      28.245  17.696  -0.494  0.00  0.00    +0.400 C 
ATOM      2  N   UNL     1      29.364  17.234   0.158  0.00  0.00    -0.278 N 
ATOM      3  H   UNL     1      29.373  17.800   1.064  0.00  0.00    +0.152 HD
ATOM      4  O   UNL     1      27.478  18.432   0.122  0.00  0.00    -0.226 OA
ENDROOT
BRANCH   1   5
ATOM      5  O   UNL     1      28.123  17.327  -1.727  0.00  0.00    -0.450 OA
BRANCH   5   6
ATOM      6  C   UNL     1      27.458  16.344  -2.487  0.00  0.00    +0.240 C 
BRANCH   6   7
ATOM      7  C   UNL     1      26.442  16.827  -3.539  0.00  0.00    +0.100 C 
BRANCH   7   9
ATOM      8  N   UNL     1      25.035  15.215  -4.784  0.00  0.00    -0.134 NA
ATOM      9  C   UNL     1      25.309  15.888  -3.626  0.00  0.00    +0.086 A 
ATOM     10  C   UNL     1      24.386  15.530  -2.671  0.00  0.00    +0.134 A 
ATOM     11  N   UNL     1      23.568  14.637  -3.308  0.00  0.00    -0.245 N 
ATOM     12  N   UNL     1      23.969  14.453  -4.580  0.00  0.00    -0.065 NA
BRANCH  11  13
ATOM     13  C   UNL     1      22.399  13.943  -2.761  0.00  0.00    +0.066 C 
ATOM     14  C   UNL     1      22.088  12.677  -3.604  0.00  0.00    +0.034 C 
ATOM     15  C   UNL     1      20.892  11.908  -3.018  0.00  0.00    -0.008 C 
ATOM     16  C   UNL     1      21.215  11.494  -1.573  0.00  0.00    +0.007 C 
ATOM     17  C   UNL     1      21.481  12.741  -0.713  0.00  0.00    -0.008 C 
ATOM     18  C   UNL     1      20.238  13.644  -0.731  0.00  0.00    +0.007 C 
ATOM     19  C   UNL     1      19.918  14.068  -2.172  0.00  0.00    -0.008 C 
ATOM     20  C   UNL     1      19.653  12.816  -3.022  0.00  0.00    +0.007 C 
ATOM     21  C   UNL     1      22.678  13.511  -1.296  0.00  0.00    +0.034 C 
ATOM     22  C   UNL     1      21.119  14.832  -2.756  0.00  0.00    +0.034 C 
ENDBRANCH  11  13
ENDBRANCH   7   9
ENDBRANCH   6   7
ENDBRANCH   5   6
ENDBRANCH   1   5
BRANCH   2  23
ATOM     23  C   UNL     1      30.511  16.329   0.173  0.00  0.00    +0.152 C 
BRANCH  23  24
ATOM     24  C   UNL     1      30.270  14.918  -0.400  0.00  0.00    +0.193 C 
ATOM     25  O   UNL     1      31.539  14.456  -0.914  0.00  0.00    -0.219 OA
BRANCH  24  26
ATOM     26  C   UNL     1      29.828  13.812   0.584  0.00  0.00    +0.212 C 
ATOM     27  O   UNL     1      29.370  14.392   1.817  0.00  0.00    -0.218 OA
BRANCH  26  28
ATOM     28  C   UNL     1      28.690  12.884   0.011  0.00  0.00    +0.171 C 
ATOM     29  O   UNL     1      27.596  13.624  -0.521  0.00  0.00    -0.343 OA
ATOM     30  C   UNL     1      26.362  13.067  -0.866  0.00  0.00    +0.220 C 
ATOM     31  C   UNL     1      25.786  12.207   0.272  0.00  0.00    +0.076 C 
ATOM     32  C   UNL     1      26.865  11.189   0.674  0.00  0.00    +0.177 C 
ATOM     33  O   UNL     1      26.368  10.339   1.699  0.00  0.00    -0.221 OA
ATOM     34  C   UNL     1      28.160  11.930   1.131  0.00  0.00    +0.155 C 
BRANCH  34  35
ATOM     35  N   UNL     1      29.186  10.966   1.521  0.00  0.00    -0.202 NA
ATOM     36  C   UNL     1      29.769  10.761   2.729  0.00  0.00    +0.242 C 
ATOM     37  C   UNL     1      30.582   9.508   2.927  0.00  0.00    +0.096 C 
ATOM     38  O   UNL     1      29.621  11.590   3.624  0.00  0.00    -0.273 OA
ENDBRANCH  34  35
BRANCH  30  39
ATOM     39  C   UNL     1      26.390  12.256  -2.273  0.00  0.00    +0.391 C 
ATOM     40  O   UNL     1      25.304  11.459  -2.236  0.00  0.00    -0.243 OA
ATOM     41  O   UNL     1      27.281  12.887  -3.047  0.00  0.00    -0.243 OA
ENDBRANCH  30  39
ENDBRANCH  26  28
ENDBRANCH  24  26
ENDBRANCH  23  24
ENDBRANCH   2  23
TORSDOF 11
