REMARK VINA RESULT:    -7.210      1.611      2.452
REMARK INTER + INTRA:         -14.412
REMARK INTER:                 -12.784
REMARK INTRA:                  -1.629
REMARK UNBOUND:                -2.144
REMARK  Name = lig_assembled_63.pdb
REMARK  12 active torsions:
REMARK  status: ('A' for Active; 'I' for Inactive)
REMARK    1  A    between atoms: _2  and  _10
REMARK    2  A    between atoms: _6  and  _14
REMARK    3  A    between atoms: _7  and  _8
REMARK    4  A    between atoms: _7  and  _15
REMARK    5  A    between atoms: _15  and  _17
REMARK    6  A    between atoms: _16  and  _21
REMARK    7  A    between atoms: _17  and  _20
REMARK    8  A    between atoms: _25  and  _35
REMARK    9  A    between atoms: _27  and  _28
REMARK   10  A    between atoms: _29  and  _31
REMARK   11  A    between atoms: _31  and  _33
REMARK   12  A    between atoms: _33  and  _35
REMARK                            x       y       z     vdW  Elec       q    Type
REMARK                         _______ _______ _______ _____ _____    ______ ____
ROOT
ATOM      1  C   UNL     1      28.216  17.054  -0.746  0.00  0.00    +0.400 C 
ATOM      2  N   UNL     1      28.567  15.883  -0.117  0.00  0.00    -0.278 N 
ATOM      3  H   UNL     1      28.958  16.215   0.821  0.00  0.00    +0.152 HD
ATOM      4  O   UNL     1      28.243  18.094  -0.093  0.00  0.00    -0.226 OA
ENDROOT
BRANCH   2   5
ATOM      5  C   UNL     1      28.631  14.425  -0.148  0.00  0.00    +0.152 C 
BRANCH   5   6
ATOM      6  C   UNL     1      30.027  13.801   0.057  0.00  0.00    +0.193 C 
ATOM      7  O   UNL     1      29.915  12.405  -0.299  0.00  0.00    -0.219 OA
BRANCH   6   8
ATOM      8  C   UNL     1      31.183  14.330  -0.820  0.00  0.00    +0.212 C 
ATOM      9  O   UNL     1      31.462  15.705  -0.506  0.00  0.00    -0.218 OA
BRANCH   8  10
ATOM     10  C   UNL     1      32.514  13.499  -0.668  0.00  0.00    +0.171 C 
ATOM     11  O   UNL     1      33.352  13.992   0.372  0.00  0.00    -0.343 OA
ATOM     12  C   UNL     1      34.681  13.605   0.563  0.00  0.00    +0.220 C 
ATOM     13  C   UNL     1      35.499  13.713  -0.735  0.00  0.00    +0.076 C 
ATOM     14  C   UNL     1      34.747  12.929  -1.823  0.00  0.00    +0.177 C 
ATOM     15  O   UNL     1      35.482  12.963  -3.038  0.00  0.00    -0.221 OA
ATOM     16  C   UNL     1      33.312  13.513  -2.012  0.00  0.00    +0.155 C 
BRANCH  16  17
ATOM     17  N   UNL     1      32.597  12.775  -3.050  0.00  0.00    -0.202 NA
ATOM     18  C   UNL     1      32.545  12.990  -4.389  0.00  0.00    +0.242 C 
ATOM     19  C   UNL     1      31.973  11.907  -5.266  0.00  0.00    +0.096 C 
ATOM     20  O   UNL     1      32.964  14.050  -4.851  0.00  0.00    -0.273 OA
ENDBRANCH  16  17
BRANCH  12  21
ATOM     21  C   UNL     1      34.835  12.139   1.246  0.00  0.00    +0.391 C 
ATOM     22  O   UNL     1      36.126  11.801   1.055  0.00  0.00    -0.243 OA
ATOM     23  O   UNL     1      33.735  11.959   1.987  0.00  0.00    -0.243 OA
ENDBRANCH  12  21
ENDBRANCH   8  10
ENDBRANCH   6   8
ENDBRANCH   5   6
ENDBRANCH   2   5
BRANCH   1  24
ATOM     24  O   UNL     1      27.915  16.947  -1.999  0.00  0.00    -0.450 OA
BRANCH  24  25
ATOM     25  C   UNL     1      26.992  17.473  -2.924  0.00  0.00    +0.240 C 
BRANCH  25  26
ATOM     26  C   UNL     1      26.695  16.637  -4.184  0.00  0.00    +0.100 C 
BRANCH  26  28
ATOM     27  N   UNL     1      25.115  14.884  -4.917  0.00  0.00    -0.134 NA
ATOM     28  C   UNL     1      25.524  15.769  -3.961  0.00  0.00    +0.087 A 
ATOM     29  C   UNL     1      24.679  15.680  -2.881  0.00  0.00    +0.141 A 
ATOM     30  N   UNL     1      23.733  14.741  -3.243  0.00  0.00    -0.201 N 
ATOM     31  N   UNL     1      24.033  14.262  -4.469  0.00  0.00    -0.059 NA
BRANCH  30  32
ATOM     32  C   UNL     1      22.580  14.367  -2.491  0.00  0.00    +0.173 A 
ATOM     33  C   UNL     1      22.644  13.470  -1.422  0.00  0.00    +0.096 A 
ATOM     34  C   UNL     1      21.434  13.096  -0.814  0.00  0.00    +0.024 A 
ATOM     35  C   UNL     1      20.226  13.628  -1.253  0.00  0.00    +0.021 A 
ATOM     36  C   UNL     1      20.258  14.538  -2.291  0.00  0.00    +0.113 A 
ATOM     37  N   UNL     1      21.394  14.912  -2.915  0.00  0.00    -0.235 NA
BRANCH  33  38
ATOM     38  C   UNL     1      23.844  12.908  -0.876  0.00  0.00    +0.103 C 
ATOM     39  N   UNL     1      24.856  12.551  -0.432  0.00  0.00    -0.191 NA
ENDBRANCH  33  38
ENDBRANCH  30  32
ENDBRANCH  26  28
ENDBRANCH  25  26
ENDBRANCH  24  25
ENDBRANCH   1  24
TORSDOF 12
