REMARK VINA RESULT:    -6.881      2.711      8.306
REMARK INTER + INTRA:         -13.814
REMARK INTER:                 -11.339
REMARK INTRA:                  -2.475
REMARK UNBOUND:                -1.904
REMARK  Name = lig_assembled_73.pdb
REMARK  13 active torsions:
REMARK  status: ('A' for Active; 'I' for Inactive)
REMARK    1  A    between atoms: _2  and  _9
REMARK    2  A    between atoms: _3  and  _13
REMARK    3  A    between atoms: _6  and  _7
REMARK    4  A    between atoms: _6  and  _17
REMARK    5  A    between atoms: _12  and  _15
REMARK    6  A    between atoms: _17  and  _19
REMARK    7  A    between atoms: _18  and  _23
REMARK    8  A    between atoms: _19  and  _22
REMARK    9  A    between atoms: _27  and  _37
REMARK   10  A    between atoms: _29  and  _30
REMARK   11  A    between atoms: _31  and  _33
REMARK   12  A    between atoms: _33  and  _35
REMARK   13  A    between atoms: _35  and  _37
REMARK                            x       y       z     vdW  Elec       q    Type
REMARK                         _______ _______ _______ _____ _____    ______ ____
ROOT
ATOM      1  C   UNL     1      27.830  17.314  -1.239  0.00  0.00    +0.400 C 
ATOM      2  N   UNL     1      26.858  16.629  -1.929  0.00  0.00    -0.278 N 
ATOM      3  H   UNL     1      25.983  17.224  -1.779  0.00  0.00    +0.152 HD
ATOM      4  O   UNL     1      27.558  18.433  -0.812  0.00  0.00    -0.226 OA
ENDROOT
BRANCH   2   5
ATOM      5  C   UNL     1      26.496  15.489  -2.767  0.00  0.00    +0.152 C 
BRANCH   5   6
ATOM      6  C   UNL     1      25.556  14.447  -2.128  0.00  0.00    +0.193 C 
ATOM      7  O   UNL     1      24.560  14.120  -3.122  0.00  0.00    -0.219 OA
BRANCH   6   8
ATOM      8  C   UNL     1      26.164  13.084  -1.729  0.00  0.00    +0.212 C 
ATOM      9  O   UNL     1      27.536  13.005  -2.149  0.00  0.00    -0.218 OA
BRANCH   8  10
ATOM     10  C   UNL     1      26.093  12.797  -0.181  0.00  0.00    +0.171 C 
ATOM     11  O   UNL     1      27.302  12.244   0.330  0.00  0.00    -0.343 OA
ATOM     12  C   UNL     1      27.434  11.675   1.598  0.00  0.00    +0.220 C 
ATOM     13  C   UNL     1      26.336  10.632   1.873  0.00  0.00    +0.076 C 
ATOM     14  C   UNL     1      24.981  11.306   1.603  0.00  0.00    +0.177 C 
ATOM     15  O   UNL     1      23.927  10.395   1.881  0.00  0.00    -0.221 OA
ATOM     16  C   UNL     1      24.917  11.815   0.130  0.00  0.00    +0.155 C 
BRANCH  16  17
ATOM     17  N   UNL     1      23.627  12.449  -0.132  0.00  0.00    -0.202 NA
ATOM     18  C   UNL     1      22.625  12.066  -0.964  0.00  0.00    +0.242 C 
ATOM     19  C   UNL     1      21.284  12.739  -0.824  0.00  0.00    +0.096 C 
ATOM     20  O   UNL     1      22.831  11.190  -1.800  0.00  0.00    -0.273 OA
ENDBRANCH  16  17
BRANCH  12  21
ATOM     21  C   UNL     1      27.528  12.772   2.793  0.00  0.00    +0.391 C 
ATOM     22  O   UNL     1      27.548  12.048   3.929  0.00  0.00    -0.243 OA
ATOM     23  O   UNL     1      27.849  13.931   2.206  0.00  0.00    -0.243 OA
ENDBRANCH  12  21
ENDBRANCH   8  10
ENDBRANCH   6   8
ENDBRANCH   5   6
ENDBRANCH   2   5
BRANCH   1  24
ATOM     24  O   UNL     1      28.949  16.687  -1.078  0.00  0.00    -0.450 OA
BRANCH  24  25
ATOM     25  C   UNL     1      29.612  15.919  -0.101  0.00  0.00    +0.240 C 
BRANCH  25  26
ATOM     26  C   UNL     1      30.243  14.588  -0.551  0.00  0.00    +0.100 C 
BRANCH  26  28
ATOM     27  N   UNL     1      30.754  12.464   0.612  0.00  0.00    -0.134 NA
ATOM     28  C   UNL     1      30.724  13.828   0.619  0.00  0.00    +0.086 A 
ATOM     29  C   UNL     1      31.195  14.281   1.829  0.00  0.00    +0.139 A 
ATOM     30  N   UNL     1      31.511  13.144   2.536  0.00  0.00    -0.220 N 
ATOM     31  N   UNL     1      31.233  12.056   1.780  0.00  0.00    -0.061 NA
BRANCH  30  32
ATOM     32  C   UNL     1      32.040  13.031   3.848  0.00  0.00    +0.074 A 
ATOM     33  C   UNL     1      33.335  13.507   4.121  0.00  0.00    +0.032 A 
ATOM     34  C   UNL     1      33.882  13.398   5.407  0.00  0.00    +0.054 A 
ATOM     35  C   UNL     1      33.142  12.809   6.430  0.00  0.00    +0.195 A 
ATOM     36  C   UNL     1      31.859  12.339   6.154  0.00  0.00    +0.316 A 
ATOM     37  C   UNL     1      31.290  12.446   4.877  0.00  0.00    +0.116 A 
BRANCH  36  38
ATOM     38  N   UNL     1      31.068  11.712   7.195  0.00  0.00    +0.083 N 
ATOM     39  O   UNL     1      30.598  10.591   6.960  0.00  0.00    +0.042 OA
ATOM     40  O   UNL     1      30.848  12.390   8.209  0.00  0.00    -0.576 OA
ENDBRANCH  36  38
BRANCH  35  41
ATOM     41  O   UNL     1      33.666  12.721   7.685  0.00  0.00    -0.501 OA
ATOM     42  H   UNL     1      33.291  13.417   8.253  0.00  0.00    +0.292 HD
ENDBRANCH  35  41
ENDBRANCH  30  32
ENDBRANCH  26  28
ENDBRANCH  25  26
ENDBRANCH  24  25
ENDBRANCH   1  24
TORSDOF 13
