REMARK VINA RESULT:    -6.492      3.106      8.930
REMARK INTER + INTRA:         -13.520
REMARK INTER:                 -11.548
REMARK INTRA:                  -1.972
REMARK UNBOUND:                -2.094
REMARK  Name = lig_assembled_24.pdb
REMARK  14 active torsions:
REMARK  status: ('A' for Active; 'I' for Inactive)
REMARK    1  A    between atoms: _2  and  _8
REMARK    2  A    between atoms: _5  and  _6
REMARK    3  A    between atoms: _5  and  _16
REMARK    4  A    between atoms: _8  and  _9
REMARK    5  A    between atoms: _12  and  _15
REMARK    6  A    between atoms: _13  and  _15
REMARK    7  A    between atoms: _16  and  _18
REMARK    8  A    between atoms: _17  and  _22
REMARK    9  A    between atoms: _18  and  _21
REMARK   10  A    between atoms: _26  and  _36
REMARK   11  A    between atoms: _28  and  _29
REMARK   12  A    between atoms: _30  and  _32
REMARK   13  A    between atoms: _32  and  _34
REMARK   14  A    between atoms: _34  and  _36
REMARK                            x       y       z     vdW  Elec       q    Type
REMARK                         _______ _______ _______ _____ _____    ______ ____
ROOT
ATOM      1  C   UNL     1      28.216  17.223  -1.041  0.00  0.00    +0.400 C 
ATOM      2  N   UNL     1      27.549  16.047  -1.287  0.00  0.00    -0.278 N 
ATOM      3  H   UNL     1      26.520  16.325  -1.211  0.00  0.00    +0.152 HD
ATOM      4  O   UNL     1      27.561  18.261  -0.986  0.00  0.00    -0.226 OA
ENDROOT
BRANCH   1   5
ATOM      5  O   UNL     1      29.491  17.116  -0.857  0.00  0.00    -0.450 OA
BRANCH   5   6
ATOM      6  C   UNL     1      30.393  16.596   0.092  0.00  0.00    +0.240 C 
BRANCH   6   7
ATOM      7  C   UNL     1      30.871  15.144  -0.101  0.00  0.00    +0.100 C 
BRANCH   7   9
ATOM      8  N   UNL     1      31.609  15.419   2.246  0.00  0.00    -0.134 NA
ATOM      9  C   UNL     1      31.605  14.683   1.091  0.00  0.00    +0.086 A 
ATOM     10  C   UNL     1      32.341  13.535   1.286  0.00  0.00    +0.134 A 
ATOM     11  N   UNL     1      32.708  13.593   2.598  0.00  0.00    -0.247 N 
ATOM     12  N   UNL     1      32.295  14.749   3.159  0.00  0.00    -0.065 NA
BRANCH  11  13
ATOM     13  C   UNL     1      33.390  12.621   3.438  0.00  0.00    +0.180 C 
BRANCH  13  14
ATOM     14  C   UNL     1      32.698  12.322   4.747  0.00  0.00    -0.026 A 
ATOM     15  C   UNL     1      33.357  12.537   5.965  0.00  0.00    +0.009 A 
ATOM     16  C   UNL     1      32.709  12.259   7.172  0.00  0.00    +0.046 A 
ATOM     17  C   UNL     1      31.397  11.783   7.183  0.00  0.00    +0.120 A 
ATOM     18  C   UNL     1      30.745  11.544   5.976  0.00  0.00    +0.046 A 
ATOM     19  C   UNL     1      31.391  11.813   4.763  0.00  0.00    +0.009 A 
BRANCH  17  20
ATOM     20  O   UNL     1      30.876  11.529   8.421  0.00  0.00    -0.495 OA
ATOM     21  C   UNL     1      31.325  12.390   9.463  0.00  0.00    +0.277 C 
ENDBRANCH  17  20
ENDBRANCH  13  14
ENDBRANCH  11  13
ENDBRANCH   7   9
ENDBRANCH   6   7
ENDBRANCH   5   6
ENDBRANCH   1   5
BRANCH   2  22
ATOM     22  C   UNL     1      27.613  14.624  -1.613  0.00  0.00    +0.152 C 
BRANCH  22  23
ATOM     23  C   UNL     1      26.279  13.955  -2.002  0.00  0.00    +0.193 C 
ATOM     24  O   UNL     1      26.323  13.740  -3.430  0.00  0.00    -0.219 OA
BRANCH  23  25
ATOM     25  C   UNL     1      25.981  12.559  -1.411  0.00  0.00    +0.212 C 
ATOM     26  O   UNL     1      26.883  11.581  -1.954  0.00  0.00    -0.218 OA
BRANCH  25  27
ATOM     27  C   UNL     1      26.074  12.513   0.162  0.00  0.00    +0.171 C 
ATOM     28  O   UNL     1      27.357  12.102   0.622  0.00  0.00    -0.343 OA
ATOM     29  C   UNL     1      27.643  11.743   1.942  0.00  0.00    +0.220 C 
ATOM     30  C   UNL     1      26.642  10.708   2.481  0.00  0.00    +0.076 C 
ATOM     31  C   UNL     1      25.228  11.269   2.255  0.00  0.00    +0.177 C 
ATOM     32  O   UNL     1      24.262  10.366   2.774  0.00  0.00    -0.221 OA
ATOM     33  C   UNL     1      24.994  11.539   0.736  0.00  0.00    +0.155 C 
BRANCH  33  34
ATOM     34  N   UNL     1      23.650  12.067   0.516  0.00  0.00    -0.202 NA
ATOM     35  C   UNL     1      22.588  11.501  -0.112  0.00  0.00    +0.242 C 
ATOM     36  C   UNL     1      21.233  12.137   0.060  0.00  0.00    +0.096 C 
ATOM     37  O   UNL     1      22.753  10.493  -0.796  0.00  0.00    -0.273 OA
ENDBRANCH  33  34
BRANCH  29  38
ATOM     38  C   UNL     1      27.784  13.016   2.942  0.00  0.00    +0.391 C 
ATOM     39  O   UNL     1      27.755  12.488   4.181  0.00  0.00    -0.243 OA
ATOM     40  O   UNL     1      28.171  14.045   2.179  0.00  0.00    -0.243 OA
ENDBRANCH  29  38
ENDBRANCH  25  27
ENDBRANCH  23  25
ENDBRANCH  22  23
ENDBRANCH   2  22
TORSDOF 13
