REMARK VINA RESULT:    -7.630      2.558      5.005
REMARK INTER + INTRA:         -15.990
REMARK INTER:                 -12.228
REMARK INTRA:                  -3.762
REMARK UNBOUND:                -2.115
REMARK  Name = lig_assembled_26.pdb
REMARK  15 active torsions:
REMARK  status: ('A' for Active; 'I' for Inactive)
REMARK    1  A    between atoms: _2  and  _8
REMARK    2  A    between atoms: _5  and  _6
REMARK    3  A    between atoms: _5  and  _18
REMARK    4  A    between atoms: _8  and  _9
REMARK    5  A    between atoms: _8  and  _10
REMARK    6  A    between atoms: _10  and  _11
REMARK    7  A    between atoms: _11  and  _12
REMARK    8  A    between atoms: _18  and  _20
REMARK    9  A    between atoms: _19  and  _24
REMARK   10  A    between atoms: _20  and  _23
REMARK   11  A    between atoms: _28  and  _38
REMARK   12  A    between atoms: _30  and  _31
REMARK   13  A    between atoms: _32  and  _34
REMARK   14  A    between atoms: _34  and  _36
REMARK   15  A    between atoms: _36  and  _38
REMARK                            x       y       z     vdW  Elec       q    Type
REMARK                         _______ _______ _______ _____ _____    ______ ____
ROOT
ATOM      1  C   UNL     1      28.434  17.037  -0.550  0.00  0.00    +0.400 C 
ATOM      2  N   UNL     1      29.436  16.197  -0.124  0.00  0.00    -0.278 N 
ATOM      3  H   UNL     1      29.783  16.662   0.774  0.00  0.00    +0.152 HD
ATOM      4  O   UNL     1      28.065  17.930   0.208  0.00  0.00    -0.226 OA
ENDROOT
BRANCH   2   5
ATOM      5  C   UNL     1      30.212  14.978  -0.335  0.00  0.00    +0.152 C 
BRANCH   5   6
ATOM      6  C   UNL     1      30.327  14.028   0.875  0.00  0.00    +0.193 C 
ATOM      7  O   UNL     1      30.869  14.808   1.964  0.00  0.00    -0.219 OA
BRANCH   6   8
ATOM      8  C   UNL     1      29.021  13.430   1.442  0.00  0.00    +0.212 C 
ATOM      9  O   UNL     1      28.235  14.451   2.076  0.00  0.00    -0.218 OA
BRANCH   8  10
ATOM     10  C   UNL     1      28.135  12.717   0.350  0.00  0.00    +0.171 C 
ATOM     11  O   UNL     1      27.289  13.626  -0.346  0.00  0.00    -0.343 OA
ATOM     12  C   UNL     1      26.238  13.241  -1.183  0.00  0.00    +0.220 C 
ATOM     13  C   UNL     1      25.307  12.226  -0.499  0.00  0.00    +0.076 C 
ATOM     14  C   UNL     1      26.181  11.070   0.016  0.00  0.00    +0.177 C 
ATOM     15  O   UNL     1      25.362  10.081   0.623  0.00  0.00    -0.221 OA
ATOM     16  C   UNL     1      27.252  11.610   1.013  0.00  0.00    +0.155 C 
BRANCH  16  17
ATOM     17  N   UNL     1      28.080  10.514   1.510  0.00  0.00    -0.202 NA
ATOM     18  C   UNL     1      28.246  10.058   2.778  0.00  0.00    +0.242 C 
ATOM     19  C   UNL     1      28.927   8.729   2.976  0.00  0.00    +0.096 C 
ATOM     20  O   UNL     1      27.841  10.730   3.724  0.00  0.00    -0.273 OA
ENDBRANCH  16  17
BRANCH  12  21
ATOM     21  C   UNL     1      26.731  12.714  -2.639  0.00  0.00    +0.391 C 
ATOM     22  O   UNL     1      25.651  12.112  -3.174  0.00  0.00    -0.243 OA
ATOM     23  O   UNL     1      27.898  13.325  -2.878  0.00  0.00    -0.243 OA
ENDBRANCH  12  21
ENDBRANCH   8  10
ENDBRANCH   6   8
ENDBRANCH   5   6
ENDBRANCH   2   5
BRANCH   1  24
ATOM     24  O   UNL     1      27.991  16.818  -1.745  0.00  0.00    -0.450 OA
BRANCH  24  25
ATOM     25  C   UNL     1      27.005  17.306  -2.624  0.00  0.00    +0.240 C 
BRANCH  25  26
ATOM     26  C   UNL     1      26.904  16.650  -4.014  0.00  0.00    +0.100 C 
BRANCH  26  28
ATOM     27  N   UNL     1      25.353  15.166  -5.259  0.00  0.00    -0.134 NA
ATOM     28  C   UNL     1      25.655  15.877  -4.128  0.00  0.00    +0.086 A 
ATOM     29  C   UNL     1      24.639  15.722  -3.215  0.00  0.00    +0.134 A 
ATOM     30  N   UNL     1      23.733  14.928  -3.852  0.00  0.00    -0.248 N 
ATOM     31  N   UNL     1      24.180  14.572  -5.073  0.00  0.00    -0.065 NA
BRANCH  30  32
ATOM     32  C   UNL     1      22.467  14.398  -3.370  0.00  0.00    +0.113 C 
ATOM     33  C   UNL     1      22.016  13.104  -4.064  0.00  0.00    +0.033 C 
BRANCH  32  34
ATOM     34  C   UNL     1      22.421  14.268  -1.837  0.00  0.00    +0.106 C 
BRANCH  34  35
ATOM     35  C   UNL     1      21.223  13.493  -1.318  0.00  0.00    +0.165 C 
ATOM     36  O   UNL     1      20.068  13.885  -1.477  0.00  0.00    -0.292 OA
BRANCH  35  37
ATOM     37  C   UNL     1      21.457  12.233  -0.554  0.00  0.00    +0.017 A 
ATOM     38  C   UNL     1      21.695  11.004  -1.183  0.00  0.00    +0.011 A 
ATOM     39  C   UNL     1      21.950   9.864  -0.418  0.00  0.00    +0.001 A 
ATOM     40  C   UNL     1      21.961   9.941   0.975  0.00  0.00    +0.000 A 
ATOM     41  C   UNL     1      21.714  11.156   1.608  0.00  0.00    +0.001 A 
ATOM     42  C   UNL     1      21.462  12.298   0.848  0.00  0.00    +0.011 A 
ENDBRANCH  35  37
ENDBRANCH  34  35
ENDBRANCH  32  34
ENDBRANCH  30  32
ENDBRANCH  26  28
ENDBRANCH  25  26
ENDBRANCH  24  25
ENDBRANCH   1  24
TORSDOF 14
