REMARK VINA RESULT:    -6.781      1.872      3.670
REMARK INTER + INTRA:         -13.512
REMARK INTER:                 -11.266
REMARK INTRA:                  -2.246
REMARK UNBOUND:                -1.577
REMARK  Name = lig_assembled_66.pdb
REMARK  13 active torsions:
REMARK  status: ('A' for Active; 'I' for Inactive)
REMARK    1  A    between atoms: _2  and  _9
REMARK    2  A    between atoms: _6  and  _7
REMARK    3  A    between atoms: _6  and  _16
REMARK    4  A    between atoms: _9  and  _10
REMARK    5  A    between atoms: _14  and  _15
REMARK    6  A    between atoms: _16  and  _18
REMARK    7  A    between atoms: _17  and  _22
REMARK    8  A    between atoms: _18  and  _21
REMARK    9  A    between atoms: _26  and  _36
REMARK   10  A    between atoms: _28  and  _29
REMARK   11  A    between atoms: _30  and  _32
REMARK   12  A    between atoms: _32  and  _34
REMARK   13  A    between atoms: _34  and  _36
REMARK                            x       y       z     vdW  Elec       q    Type
REMARK                         _______ _______ _______ _____ _____    ______ ____
ROOT
ATOM      1  C   UNL     1      28.022  13.127  -1.393  0.00  0.00    +0.400 C 
ATOM      2  N   UNL     1      27.921  12.691  -0.093  0.00  0.00    -0.278 N 
ATOM      3  H   UNL     1      28.516  11.803  -0.083  0.00  0.00    +0.152 HD
ATOM      4  O   UNL     1      28.837  12.574  -2.128  0.00  0.00    -0.226 OA
ENDROOT
BRANCH   1   5
ATOM      5  O   UNL     1      27.211  14.075  -1.730  0.00  0.00    -0.450 OA
BRANCH   5   6
ATOM      6  C   UNL     1      27.211  15.475  -1.889  0.00  0.00    +0.240 C 
BRANCH   6   7
ATOM      7  C   UNL     1      26.687  16.038  -3.223  0.00  0.00    +0.100 C 
BRANCH   7   9
ATOM      8  N   UNL     1      25.103  14.614  -4.490  0.00  0.00    -0.134 NA
ATOM      9  C   UNL     1      25.329  15.531  -3.497  0.00  0.00    +0.086 A 
ATOM     10  C   UNL     1      24.139  15.803  -2.857  0.00  0.00    +0.134 A 
ATOM     11  N   UNL     1      23.239  14.978  -3.469  0.00  0.00    -0.247 N 
ATOM     12  N   UNL     1      23.818  14.280  -4.462  0.00  0.00    -0.065 NA
BRANCH  11  13
ATOM     13  C   UNL     1      21.911  14.623  -3.004  0.00  0.00    +0.180 C 
BRANCH  13  14
ATOM     14  C   UNL     1      21.923  13.715  -1.801  0.00  0.00    -0.025 A 
ATOM     15  C   UNL     1      20.808  13.647  -0.953  0.00  0.00    +0.005 A 
ATOM     16  C   UNL     1      20.778  12.748   0.115  0.00  0.00    +0.002 A 
ATOM     17  C   UNL     1      21.871  11.918   0.362  0.00  0.00    +0.019 A 
ATOM     18  C   UNL     1      23.005  11.997  -0.451  0.00  0.00    +0.052 A 
ATOM     19  C   UNL     1      23.029  12.891  -1.530  0.00  0.00    +0.024 A 
BRANCH  18  20
ATOM     20  C   UNL     1      24.136  11.157  -0.190  0.00  0.00    +0.099 C 
ATOM     21  N   UNL     1      25.056  10.483   0.029  0.00  0.00    -0.191 NA
ENDBRANCH  18  20
ENDBRANCH  13  14
ENDBRANCH  11  13
ENDBRANCH   7   9
ENDBRANCH   6   7
ENDBRANCH   5   6
ENDBRANCH   1   5
BRANCH   2  22
ATOM     22  C   UNL     1      27.390  12.900   1.252  0.00  0.00    +0.152 C 
BRANCH  22  23
ATOM     23  C   UNL     1      28.300  13.672   2.229  0.00  0.00    +0.193 C 
ATOM     24  O   UNL     1      27.587  13.755   3.483  0.00  0.00    -0.219 OA
BRANCH  23  25
ATOM     25  C   UNL     1      29.657  13.034   2.599  0.00  0.00    +0.212 C 
ATOM     26  O   UNL     1      29.639  11.623   2.327  0.00  0.00    -0.218 OA
BRANCH  25  27
ATOM     27  C   UNL     1      30.878  13.678   1.838  0.00  0.00    +0.171 C 
ATOM     28  O   UNL     1      30.743  13.602   0.422  0.00  0.00    -0.343 OA
ATOM     29  C   UNL     1      31.772  13.870  -0.483  0.00  0.00    +0.220 C 
ATOM     30  C   UNL     1      33.056  13.097  -0.133  0.00  0.00    +0.076 C 
ATOM     31  C   UNL     1      33.392  13.399   1.337  0.00  0.00    +0.177 C 
ATOM     32  O   UNL     1      34.595  12.738   1.701  0.00  0.00    -0.221 OA
ATOM     33  C   UNL     1      32.208  12.969   2.258  0.00  0.00    +0.155 C 
BRANCH  33  34
ATOM     34  N   UNL     1      32.526  13.248   3.656  0.00  0.00    -0.202 NA
ATOM     35  C   UNL     1      32.651  12.395   4.704  0.00  0.00    +0.242 C 
ATOM     36  C   UNL     1      33.275  12.910   5.975  0.00  0.00    +0.096 C 
ATOM     37  O   UNL     1      32.260  11.235   4.594  0.00  0.00    -0.273 OA
ENDBRANCH  33  34
BRANCH  29  38
ATOM     38  C   UNL     1      32.066  15.456  -0.679  0.00  0.00    +0.391 C 
ATOM     39  O   UNL     1      33.227  15.513  -1.360  0.00  0.00    -0.243 OA
ATOM     40  O   UNL     1      30.925  16.084  -0.369  0.00  0.00    -0.243 OA
ENDBRANCH  29  38
ENDBRANCH  25  27
ENDBRANCH  23  25
ENDBRANCH  22  23
ENDBRANCH   2  22
TORSDOF 13
