REMARK VINA RESULT:    -6.916      1.186      3.340
REMARK INTER + INTRA:         -14.281
REMARK INTER:                 -12.984
REMARK INTRA:                  -1.297
REMARK UNBOUND:                -2.513
REMARK  Name = lig_assembled_28.pdb
REMARK  12 active torsions:
REMARK  status: ('A' for Active; 'I' for Inactive)
REMARK    1  A    between atoms: _2  and  _8
REMARK    2  A    between atoms: _5  and  _6
REMARK    3  A    between atoms: _5  and  _17
REMARK    4  A    between atoms: _8  and  _9
REMARK    5  A    between atoms: _17  and  _19
REMARK    6  A    between atoms: _18  and  _23
REMARK    7  A    between atoms: _19  and  _22
REMARK    8  A    between atoms: _27  and  _37
REMARK    9  A    between atoms: _29  and  _30
REMARK   10  A    between atoms: _31  and  _33
REMARK   11  A    between atoms: _33  and  _35
REMARK   12  A    between atoms: _35  and  _37
REMARK                            x       y       z     vdW  Elec       q    Type
REMARK                         _______ _______ _______ _____ _____    ______ ____
ROOT
ATOM      1  C   UNL     1      27.874  17.351  -0.702  0.00  0.00    +0.400 C 
ATOM      2  N   UNL     1      28.567  16.463   0.087  0.00  0.00    -0.278 N 
ATOM      3  H   UNL     1      28.774  17.027   0.970  0.00  0.00    +0.152 HD
ATOM      4  O   UNL     1      27.515  18.413  -0.201  0.00  0.00    -0.226 OA
ENDROOT
BRANCH   2   5
ATOM      5  C   UNL     1      29.121  15.123   0.261  0.00  0.00    +0.152 C 
BRANCH   5   6
ATOM      6  C   UNL     1      30.393  14.803  -0.551  0.00  0.00    +0.193 C 
ATOM      7  O   UNL     1      31.229  15.979  -0.492  0.00  0.00    -0.219 OA
BRANCH   6   8
ATOM      8  C   UNL     1      31.298  13.660  -0.039  0.00  0.00    +0.212 C 
ATOM      9  O   UNL     1      30.586  12.413  -0.049  0.00  0.00    -0.218 OA
BRANCH   8  10
ATOM     10  C   UNL     1      32.623  13.491  -0.878  0.00  0.00    +0.171 C 
ATOM     11  O   UNL     1      32.420  12.755  -2.080  0.00  0.00    -0.343 OA
ATOM     12  C   UNL     1      33.449  12.253  -2.880  0.00  0.00    +0.220 C 
ATOM     13  C   UNL     1      34.473  11.454  -2.056  0.00  0.00    +0.076 C 
ATOM     14  C   UNL     1      34.935  12.351  -0.895  0.00  0.00    +0.177 C 
ATOM     15  O   UNL     1      35.915  11.673  -0.123  0.00  0.00    -0.221 OA
ATOM     16  C   UNL     1      33.712  12.768  -0.020  0.00  0.00    +0.155 C 
BRANCH  16  17
ATOM     17  N   UNL     1      34.147  13.615   1.088  0.00  0.00    -0.202 NA
ATOM     18  C   UNL     1      34.110  13.382   2.425  0.00  0.00    +0.242 C 
ATOM     19  C   UNL     1      34.893  14.295   3.332  0.00  0.00    +0.096 C 
ATOM     20  O   UNL     1      33.448  12.441   2.859  0.00  0.00    -0.273 OA
ENDBRANCH  16  17
BRANCH  12  21
ATOM     21  C   UNL     1      34.170  13.387  -3.793  0.00  0.00    +0.391 C 
ATOM     22  O   UNL     1      35.290  12.798  -4.257  0.00  0.00    -0.243 OA
ATOM     23  O   UNL     1      33.256  14.346  -3.983  0.00  0.00    -0.243 OA
ENDBRANCH  12  21
ENDBRANCH   8  10
ENDBRANCH   6   8
ENDBRANCH   5   6
ENDBRANCH   2   5
BRANCH   1  24
ATOM     24  O   UNL     1      27.690  16.985  -1.928  0.00  0.00    -0.450 OA
BRANCH  24  25
ATOM     25  C   UNL     1      26.856  17.291  -3.021  0.00  0.00    +0.240 C 
BRANCH  25  26
ATOM     26  C   UNL     1      26.597  16.175  -4.051  0.00  0.00    +0.100 C 
BRANCH  26  28
ATOM     27  N   UNL     1      24.668  14.872  -4.903  0.00  0.00    -0.134 NA
ATOM     28  C   UNL     1      25.202  15.706  -3.958  0.00  0.00    +0.086 A 
ATOM     29  C   UNL     1      24.256  15.952  -2.989  0.00  0.00    +0.134 A 
ATOM     30  N   UNL     1      23.200  15.162  -3.346  0.00  0.00    -0.247 N 
ATOM     31  N   UNL     1      23.436  14.554  -4.525  0.00  0.00    -0.065 NA
BRANCH  30  32
ATOM     32  C   UNL     1      21.978  14.837  -2.624  0.00  0.00    +0.180 C 
BRANCH  32  33
ATOM     33  C   UNL     1      22.147  13.721  -1.618  0.00  0.00    -0.022 A 
ATOM     34  C   UNL     1      23.430  13.240  -1.305  0.00  0.00    +0.055 A 
ATOM     35  C   UNL     1      23.543  12.303  -0.300  0.00  0.00    +0.167 A 
ATOM     36  O   UNL     1      24.708  11.778   0.165  0.00  0.00    -0.453 OA
ATOM     37  C   UNL     1      24.221  10.981   1.267  0.00  0.00    +0.466 C 
ATOM     38  O   UNL     1      22.780  10.929   1.342  0.00  0.00    -0.453 OA
ATOM     39  C   UNL     1      22.446  11.818   0.369  0.00  0.00    +0.166 A 
ATOM     40  C   UNL     1      21.168  12.239   0.065  0.00  0.00    +0.050 A 
ATOM     41  C   UNL     1      21.021  13.205  -0.934  0.00  0.00    +0.009 A 
ENDBRANCH  32  33
ENDBRANCH  30  32
ENDBRANCH  26  28
ENDBRANCH  25  26
ENDBRANCH  24  25
ENDBRANCH   1  24
TORSDOF 12
