REMARK VINA RESULT:    -6.030      2.754      8.771
REMARK INTER + INTRA:         -12.171
REMARK INTER:                  -9.719
REMARK INTRA:                  -2.452
REMARK UNBOUND:                -2.263
REMARK  Name = lig_assembled_52.pdb
REMARK  11 active torsions:
REMARK  status: ('A' for Active; 'I' for Inactive)
REMARK    1  A    between atoms: _2  and  _9
REMARK    2  A    between atoms: _6  and  _7
REMARK    3  A    between atoms: _6  and  _13
REMARK    4  A    between atoms: _13  and  _15
REMARK    5  A    between atoms: _14  and  _19
REMARK    6  A    between atoms: _15  and  _18
REMARK    7  A    between atoms: _23  and  _33
REMARK    8  A    between atoms: _25  and  _26
REMARK    9  A    between atoms: _27  and  _29
REMARK   10  A    between atoms: _29  and  _31
REMARK   11  A    between atoms: _31  and  _33
REMARK                            x       y       z     vdW  Elec       q    Type
REMARK                         _______ _______ _______ _____ _____    ______ ____
ROOT
ATOM      1  C   UNL     1      31.393  14.907   1.543  0.00  0.00    +0.152 C 
ENDROOT
BRANCH   1   3
ATOM      2  C   UNL     1      31.188  13.027   3.510  0.00  0.00    +0.400 C 
ATOM      3  N   UNL     1      30.954  13.815   2.408  0.00  0.00    -0.278 N 
ATOM      4  H   UNL     1      30.017  13.454   2.041  0.00  0.00    +0.152 HD
ATOM      5  O   UNL     1      30.282  12.295   3.902  0.00  0.00    -0.226 OA
BRANCH   2   6
ATOM      6  O   UNL     1      32.374  13.112   4.017  0.00  0.00    -0.450 OA
BRANCH   6   7
ATOM      7  C   UNL     1      33.691  12.705   3.728  0.00  0.00    +0.240 C 
BRANCH   7   8
ATOM      8  C   UNL     1      33.888  11.701   2.576  0.00  0.00    +0.100 C 
BRANCH   8  10
ATOM      9  N   UNL     1      34.845  13.609   1.326  0.00  0.00    -0.134 NA
ATOM     10  C   UNL     1      34.185  12.415   1.321  0.00  0.00    +0.086 A 
ATOM     11  C   UNL     1      33.897  12.069   0.020  0.00  0.00    +0.140 A 
ATOM     12  N   UNL     1      34.426  13.084  -0.744  0.00  0.00    -0.218 N 
ATOM     13  N   UNL     1      34.984  14.011   0.071  0.00  0.00    -0.060 NA
BRANCH  12  14
ATOM     14  C   UNL     1      34.443  13.214  -2.148  0.00  0.00    +0.085 A 
ATOM     15  C   UNL     1      33.397  13.822  -2.849  0.00  0.00    +0.031 A 
ATOM     16  C   UNL     1      33.464  13.900  -4.239  0.00  0.00    +0.022 A 
ATOM     17  C   UNL     1      34.571  13.369  -4.879  0.00  0.00    +0.111 A 
ATOM     18  N   UNL     1      35.599  12.781  -4.231  0.00  0.00    -0.261 NA
ATOM     19  C   UNL     1      35.516  12.715  -2.879  0.00  0.00    +0.138 A 
ENDBRANCH  12  14
ENDBRANCH   8  10
ENDBRANCH   7   8
ENDBRANCH   6   7
ENDBRANCH   2   6
ENDBRANCH   1   3
BRANCH   1  20
ATOM     20  C   UNL     1      30.350  15.440   0.539  0.00  0.00    +0.193 C 
ATOM     21  O   UNL     1      31.055  16.319  -0.365  0.00  0.00    -0.219 OA
BRANCH  20  22
ATOM     22  C   UNL     1      29.656  14.414  -0.384  0.00  0.00    +0.212 C 
ATOM     23  O   UNL     1      30.545  13.326  -0.682  0.00  0.00    -0.218 OA
BRANCH  22  24
ATOM     24  C   UNL     1      28.326  13.826   0.225  0.00  0.00    +0.171 C 
ATOM     25  O   UNL     1      28.564  12.738   1.112  0.00  0.00    -0.343 OA
ATOM     26  C   UNL     1      27.570  11.884   1.596  0.00  0.00    +0.220 C 
ATOM     27  C   UNL     1      26.693  11.328   0.461  0.00  0.00    +0.076 C 
ATOM     28  C   UNL     1      26.177  12.525  -0.354  0.00  0.00    +0.177 C 
ATOM     29  O   UNL     1      25.327  12.068  -1.396  0.00  0.00    -0.221 OA
ATOM     30  C   UNL     1      27.377  13.346  -0.922  0.00  0.00    +0.155 C 
BRANCH  30  31
ATOM     31  N   UNL     1      26.891  14.481  -1.703  0.00  0.00    -0.202 NA
ATOM     32  C   UNL     1      26.741  14.609  -3.046  0.00  0.00    +0.242 C 
ATOM     33  C   UNL     1      25.943  15.776  -3.568  0.00  0.00    +0.096 C 
ATOM     34  O   UNL     1      27.253  13.781  -3.796  0.00  0.00    -0.273 OA
ENDBRANCH  30  31
BRANCH  26  35
ATOM     35  C   UNL     1      26.670  12.543   2.777  0.00  0.00    +0.391 C 
ATOM     36  O   UNL     1      25.609  11.723   2.904  0.00  0.00    -0.243 OA
ATOM     37  O   UNL     1      27.449  13.455   3.371  0.00  0.00    -0.243 OA
ENDBRANCH  26  35
ENDBRANCH  22  24
ENDBRANCH  20  22
ENDBRANCH   1  20
TORSDOF 11
