REMARK VINA RESULT:    -6.679      2.507      4.261
REMARK INTER + INTRA:         -12.749
REMARK INTER:                 -11.168
REMARK INTRA:                  -1.582
REMARK UNBOUND:                -1.775
REMARK  Name = lig_assembled_42.pdb
REMARK  11 active torsions:
REMARK  status: ('A' for Active; 'I' for Inactive)
REMARK    1  A    between atoms: _2  and  _8
REMARK    2  A    between atoms: _5  and  _6
REMARK    3  A    between atoms: _5  and  _16
REMARK    4  A    between atoms: _16  and  _18
REMARK    5  A    between atoms: _17  and  _22
REMARK    6  A    between atoms: _18  and  _21
REMARK    7  A    between atoms: _26  and  _36
REMARK    8  A    between atoms: _28  and  _29
REMARK    9  A    between atoms: _30  and  _32
REMARK   10  A    between atoms: _32  and  _34
REMARK   11  A    between atoms: _34  and  _36
REMARK                            x       y       z     vdW  Elec       q    Type
REMARK                         _______ _______ _______ _____ _____    ______ ____
ROOT
ATOM      1  C   UNL     1      27.486  12.809   2.772  0.00  0.00    +0.400 C 
ATOM      2  N   UNL     1      28.077  13.340   1.650  0.00  0.00    -0.278 N 
ATOM      3  H   UNL     1      28.007  14.395   1.810  0.00  0.00    +0.152 HD
ATOM      4  O   UNL     1      27.213  13.569   3.698  0.00  0.00    -0.226 OA
ENDROOT
BRANCH   1   5
ATOM      5  O   UNL     1      27.242  11.540   2.729  0.00  0.00    -0.450 OA
BRANCH   5   6
ATOM      6  C   UNL     1      26.164  10.652   2.915  0.00  0.00    +0.240 C 
BRANCH   6   7
ATOM      7  C   UNL     1      25.537  10.022   1.657  0.00  0.00    +0.100 C 
BRANCH   7   9
ATOM      8  N   UNL     1      23.189  10.754   1.992  0.00  0.00    -0.134 NA
ATOM      9  C   UNL     1      24.334  10.771   1.248  0.00  0.00    +0.086 A 
ATOM     10  C   UNL     1      24.136  11.561   0.142  0.00  0.00    +0.139 A 
ATOM     11  N   UNL     1      22.843  12.013   0.249  0.00  0.00    -0.220 N 
ATOM     12  N   UNL     1      22.287  11.512   1.380  0.00  0.00    -0.061 NA
BRANCH  11  13
ATOM     13  C   UNL     1      22.133  12.864  -0.637  0.00  0.00    +0.071 A 
ATOM     14  C   UNL     1      22.817  13.539  -1.660  0.00  0.00    +0.077 A 
ATOM     15  C   UNL     1      22.082  14.354  -2.494  0.00  0.00    +0.168 A 
ATOM     16  O   UNL     1      22.588  15.071  -3.532  0.00  0.00    -0.453 OA
ATOM     17  C   UNL     1      21.392  15.703  -4.030  0.00  0.00    +0.466 C 
ATOM     18  O   UNL     1      20.207  15.360  -3.280  0.00  0.00    -0.453 OA
ATOM     19  C   UNL     1      20.726  14.516  -2.349  0.00  0.00    +0.166 A 
ATOM     20  C   UNL     1      20.023  13.871  -1.355  0.00  0.00    +0.051 A 
ATOM     21  C   UNL     1      20.737  13.034  -0.487  0.00  0.00    +0.031 A 
ENDBRANCH  11  13
ENDBRANCH   7   9
ENDBRANCH   6   7
ENDBRANCH   5   6
ENDBRANCH   1   5
BRANCH   2  22
ATOM     22  C   UNL     1      28.753  13.115   0.376  0.00  0.00    +0.152 C 
BRANCH  22  23
ATOM     23  C   UNL     1      29.184  14.379  -0.397  0.00  0.00    +0.193 C 
ATOM     24  O   UNL     1      28.595  15.506   0.288  0.00  0.00    -0.219 OA
BRANCH  23  25
ATOM     25  C   UNL     1      30.693  14.706  -0.450  0.00  0.00    +0.212 C 
ATOM     26  O   UNL     1      30.908  16.113  -0.260  0.00  0.00    -0.218 OA
BRANCH  25  27
ATOM     27  C   UNL     1      31.540  13.917   0.619  0.00  0.00    +0.171 C 
ATOM     28  O   UNL     1      31.452  14.490   1.919  0.00  0.00    -0.343 OA
ATOM     29  C   UNL     1      32.281  14.147   2.990  0.00  0.00    +0.220 C 
ATOM     30  C   UNL     1      33.768  14.198   2.599  0.00  0.00    +0.076 C 
ATOM     31  C   UNL     1      33.946  13.333   1.340  0.00  0.00    +0.177 C 
ATOM     32  O   UNL     1      35.314  13.313   0.957  0.00  0.00    -0.221 OA
ATOM     33  C   UNL     1      33.042  13.871   0.187  0.00  0.00    +0.155 C 
BRANCH  33  34
ATOM     34  N   UNL     1      33.213  13.056  -1.014  0.00  0.00    -0.202 NA
ATOM     35  C   UNL     1      33.479  13.436  -2.289  0.00  0.00    +0.242 C 
ATOM     36  C   UNL     1      33.898  12.378  -3.278  0.00  0.00    +0.096 C 
ATOM     37  O   UNL     1      33.375  14.619  -2.606  0.00  0.00    -0.273 OA
ENDBRANCH  33  34
BRANCH  29  38
ATOM     38  C   UNL     1      31.893  12.728   3.680  0.00  0.00    +0.391 C 
ATOM     39  O   UNL     1      32.928  12.443   4.494  0.00  0.00    -0.243 OA
ATOM     40  O   UNL     1      30.595  12.533   3.420  0.00  0.00    -0.243 OA
ENDBRANCH  29  38
ENDBRANCH  25  27
ENDBRANCH  23  25
ENDBRANCH  22  23
ENDBRANCH   2  22
TORSDOF 11
