REMARK VINA RESULT:    -7.032      3.182      4.938
REMARK INTER + INTRA:         -12.872
REMARK INTER:                 -10.548
REMARK INTRA:                  -2.325
REMARK UNBOUND:                -1.318
REMARK  Name = lig_assembled_40.pdb
REMARK  12 active torsions:
REMARK  status: ('A' for Active; 'I' for Inactive)
REMARK    1  A    between atoms: _2  and  _8
REMARK    2  A    between atoms: _5  and  _6
REMARK    3  A    between atoms: _5  and  _14
REMARK    4  A    between atoms: _11  and  _12
REMARK    5  A    between atoms: _14  and  _16
REMARK    6  A    between atoms: _15  and  _20
REMARK    7  A    between atoms: _16  and  _19
REMARK    8  A    between atoms: _24  and  _34
REMARK    9  A    between atoms: _26  and  _27
REMARK   10  A    between atoms: _28  and  _30
REMARK   11  A    between atoms: _30  and  _32
REMARK   12  A    between atoms: _32  and  _34
REMARK                            x       y       z     vdW  Elec       q    Type
REMARK                         _______ _______ _______ _____ _____    ______ ____
ROOT
ATOM      1  C   UNL     1      25.555  15.362  -4.193  0.00  0.00    +0.400 C 
ATOM      2  N   UNL     1      26.242  14.438  -3.442  0.00  0.00    -0.278 N 
ATOM      3  H   UNL     1      27.173  14.923  -3.243  0.00  0.00    +0.152 HD
ATOM      4  O   UNL     1      26.029  16.491  -4.297  0.00  0.00    -0.226 OA
ENDROOT
BRANCH   1   5
ATOM      5  O   UNL     1      24.472  14.935  -4.754  0.00  0.00    -0.450 OA
BRANCH   5   6
ATOM      6  C   UNL     1      23.138  14.639  -4.414  0.00  0.00    +0.240 C 
BRANCH   6   7
ATOM      7  C   UNL     1      22.524  15.396  -3.221  0.00  0.00    +0.100 C 
BRANCH   7   9
ATOM      8  N   UNL     1      20.817  14.519  -1.656  0.00  0.00    -0.134 NA
ATOM      9  C   UNL     1      22.072  14.445  -2.187  0.00  0.00    +0.086 A 
ATOM     10  C   UNL     1      22.741  13.390  -1.614  0.00  0.00    +0.139 A 
ATOM     11  N   UNL     1      21.834  12.819  -0.751  0.00  0.00    -0.220 N 
ATOM     12  N   UNL     1      20.682  13.535  -0.778  0.00  0.00    -0.061 NA
BRANCH  11  13
ATOM     13  C   UNL     1      21.980  11.650   0.041  0.00  0.00    +0.067 A 
ATOM     14  C   UNL     1      22.197  10.402  -0.557  0.00  0.00    +0.028 A 
ATOM     15  C   UNL     1      22.268   9.249   0.232  0.00  0.00    +0.005 A 
ATOM     16  C   UNL     1      22.126   9.326   1.621  0.00  0.00    -0.050 A 
ATOM     17  C   UNL     1      21.946  10.579   2.219  0.00  0.00    +0.005 A 
ATOM     18  C   UNL     1      22.155   8.087   2.466  0.00  0.00    +0.044 C 
ATOM     19  C   UNL     1      21.873  11.736   1.436  0.00  0.00    +0.028 A 
ENDBRANCH  11  13
ENDBRANCH   7   9
ENDBRANCH   6   7
ENDBRANCH   5   6
ENDBRANCH   1   5
BRANCH   2  20
ATOM     20  C   UNL     1      26.263  13.127  -2.797  0.00  0.00    +0.152 C 
BRANCH  20  21
ATOM     21  C   UNL     1      27.515  12.264  -3.053  0.00  0.00    +0.193 C 
ATOM     22  O   UNL     1      28.148  12.792  -4.239  0.00  0.00    -0.219 OA
BRANCH  21  23
ATOM     23  C   UNL     1      28.627  12.282  -1.982  0.00  0.00    +0.212 C 
ATOM     24  O   UNL     1      29.923  12.263  -2.603  0.00  0.00    -0.218 OA
BRANCH  23  25
ATOM     25  C   UNL     1      28.548  13.528  -1.020  0.00  0.00    +0.171 C 
ATOM     26  O   UNL     1      29.655  14.411  -1.175  0.00  0.00    -0.343 OA
ATOM     27  C   UNL     1      29.963  15.451  -0.294  0.00  0.00    +0.220 C 
ATOM     28  C   UNL     1      29.999  14.969   1.167  0.00  0.00    +0.076 C 
ATOM     29  C   UNL     1      28.668  14.253   1.451  0.00  0.00    +0.177 C 
ATOM     30  O   UNL     1      28.632  13.822   2.804  0.00  0.00    -0.221 OA
ATOM     31  C   UNL     1      28.482  13.055   0.469  0.00  0.00    +0.155 C 
BRANCH  31  32
ATOM     32  N   UNL     1      27.222  12.368   0.740  0.00  0.00    -0.202 NA
ATOM     33  C   UNL     1      27.001  11.125   1.238  0.00  0.00    +0.242 C 
ATOM     34  C   UNL     1      25.609  10.774   1.696  0.00  0.00    +0.096 C 
ATOM     35  O   UNL     1      27.931  10.323   1.305  0.00  0.00    -0.273 OA
ENDBRANCH  31  32
BRANCH  27  36
ATOM     36  C   UNL     1      29.007  16.752  -0.471  0.00  0.00    +0.391 C 
ATOM     37  O   UNL     1      29.615  17.728   0.231  0.00  0.00    -0.243 OA
ATOM     38  O   UNL     1      28.162  16.458  -1.467  0.00  0.00    -0.243 OA
ENDBRANCH  27  36
ENDBRANCH  23  25
ENDBRANCH  21  23
ENDBRANCH  20  21
ENDBRANCH   2  20
TORSDOF 11
