REMARK VINA RESULT:    -7.321      3.571      5.919
REMARK INTER + INTRA:         -15.073
REMARK INTER:                 -13.543
REMARK INTRA:                  -1.530
REMARK UNBOUND:                -1.975
REMARK  Name = lig_assembled_77.pdb
REMARK  14 active torsions:
REMARK  status: ('A' for Active; 'I' for Inactive)
REMARK    1  A    between atoms: _2  and  _9
REMARK    2  A    between atoms: _3  and  _16
REMARK    3  A    between atoms: _6  and  _7
REMARK    4  A    between atoms: _6  and  _22
REMARK    5  A    between atoms: _12  and  _50
REMARK    6  A    between atoms: _13  and  _50
REMARK    7  A    between atoms: _22  and  _24
REMARK    8  A    between atoms: _23  and  _28
REMARK    9  A    between atoms: _24  and  _27
REMARK   10  A    between atoms: _32  and  _42
REMARK   11  A    between atoms: _34  and  _35
REMARK   12  A    between atoms: _36  and  _38
REMARK   13  A    between atoms: _38  and  _40
REMARK   14  A    between atoms: _40  and  _42
REMARK                            x       y       z     vdW  Elec       q    Type
REMARK                         _______ _______ _______ _____ _____    ______ ____
ROOT
ATOM      1  C   UNL     1      30.452  16.517  -0.142  0.00  0.00    +0.240 C 
ENDROOT
BRANCH   1   2
ATOM      2  C   UNL     1      30.188  15.122   0.454  0.00  0.00    +0.100 C 
BRANCH   2   4
ATOM      3  N   UNL     1      31.423  14.710   2.556  0.00  0.00    -0.134 NA
ATOM      4  C   UNL     1      31.371  14.644   1.194  0.00  0.00    +0.086 A 
ATOM      5  C   UNL     1      32.540  14.091   0.726  0.00  0.00    +0.139 A 
ATOM      6  N   UNL     1      33.283  13.821   1.853  0.00  0.00    -0.220 N 
ATOM      7  N   UNL     1      32.590  14.217   2.948  0.00  0.00    -0.061 NA
BRANCH   6   8
ATOM      8  C   UNL     1      34.544  13.175   1.956  0.00  0.00    +0.067 A 
ATOM      9  C   UNL     1      35.401  13.436   3.036  0.00  0.00    +0.030 A 
ATOM     10  C   UNL     1      36.686  12.884   3.060  0.00  0.00    +0.029 A 
ATOM     11  C   UNL     1      37.110  12.073   2.006  0.00  0.00    +0.094 A 
ATOM     12  C   UNL     1      36.234  11.733   0.973  0.00  0.00    +0.029 A 
ATOM     13  C   UNL     1      34.955  12.294   0.941  0.00  0.00    +0.030 A 
BRANCH  11  14
ATOM     14  S   UNL     1      38.772  11.429   2.003  0.00  0.00    +0.025 S 
ATOM     15  O   UNL     1      38.707  10.140   2.671  0.00  0.00    -0.164 OA
ATOM     16  O   UNL     1      39.275  11.535   0.647  0.00  0.00    -0.164 OA
BRANCH  14  17
ATOM     17  C   UNL     1      39.800  12.484   3.004  0.00  0.00    +0.094 A 
ATOM     18  C   UNL     1      40.137  13.770   2.581  0.00  0.00    +0.029 A 
ATOM     19  C   UNL     1      40.997  14.549   3.363  0.00  0.00    +0.024 A 
ATOM     20  C   UNL     1      41.489  14.076   4.586  0.00  0.00    +0.025 A 
ATOM     21  C   UNL     1      41.165  12.775   4.979  0.00  0.00    +0.024 A 
ATOM     22  C   UNL     1      40.308  11.985   4.207  0.00  0.00    +0.029 A 
BRANCH  20  23
ATOM     23  N   UNL     1      42.477  14.790   5.271  0.00  0.00    -0.358 N 
ATOM     24  H   UNL     1      42.919  15.528   4.733  0.00  0.00    +0.142 HD
ATOM     25  H   UNL     1      42.206  15.095   6.200  0.00  0.00    +0.142 HD
ENDBRANCH  20  23
ENDBRANCH  14  17
ENDBRANCH  11  14
ENDBRANCH   6   8
ENDBRANCH   2   4
ENDBRANCH   1   2
BRANCH   1  26
ATOM     26  O   UNL     1      29.419  17.110  -0.893  0.00  0.00    -0.450 OA
BRANCH  26  27
ATOM     27  C   UNL     1      28.176  17.440  -0.761  0.00  0.00    +0.400 C 
ATOM     28  N   UNL     1      27.271  16.615  -1.386  0.00  0.00    -0.278 N 
ATOM     29  H   UNL     1      26.330  16.939  -0.997  0.00  0.00    +0.152 HD
ATOM     30  O   UNL     1      27.743  18.390  -0.113  0.00  0.00    -0.226 OA
BRANCH  28  31
ATOM     31  C   UNL     1      27.024  15.530  -2.333  0.00  0.00    +0.152 C 
BRANCH  31  32
ATOM     32  C   UNL     1      25.559  15.335  -2.775  0.00  0.00    +0.193 C 
ATOM     33  O   UNL     1      25.409  16.033  -4.031  0.00  0.00    -0.219 OA
BRANCH  32  34
ATOM     34  C   UNL     1      25.089  13.895  -3.076  0.00  0.00    +0.212 C 
ATOM     35  O   UNL     1      26.212  13.001  -3.128  0.00  0.00    -0.218 OA
BRANCH  34  36
ATOM     36  C   UNL     1      24.054  13.343  -2.023  0.00  0.00    +0.171 C 
ATOM     37  O   UNL     1      24.337  12.006  -1.625  0.00  0.00    -0.343 OA
ATOM     38  C   UNL     1      23.459  11.196  -0.900  0.00  0.00    +0.220 C 
ATOM     39  C   UNL     1      22.056  11.168  -1.532  0.00  0.00    +0.076 C 
ATOM     40  C   UNL     1      21.598  12.626  -1.707  0.00  0.00    +0.177 C 
ATOM     41  O   UNL     1      20.287  12.656  -2.252  0.00  0.00    -0.221 OA
ATOM     42  C   UNL     1      22.606  13.401  -2.611  0.00  0.00    +0.155 C 
BRANCH  42  43
ATOM     43  N   UNL     1      22.171  14.784  -2.786  0.00  0.00    -0.202 NA
ATOM     44  C   UNL     1      21.676  15.406  -3.886  0.00  0.00    +0.242 C 
ATOM     45  C   UNL     1      21.029  16.756  -3.715  0.00  0.00    +0.096 C 
ATOM     46  O   UNL     1      21.764  14.860  -4.984  0.00  0.00    -0.273 OA
ENDBRANCH  42  43
BRANCH  38  47
ATOM     47  C   UNL     1      23.395  11.565   0.680  0.00  0.00    +0.391 C 
ATOM     48  O   UNL     1      22.164  11.185   1.076  0.00  0.00    -0.243 OA
ATOM     49  O   UNL     1      24.655  11.817   1.053  0.00  0.00    -0.243 OA
ENDBRANCH  38  47
ENDBRANCH  34  36
ENDBRANCH  32  34
ENDBRANCH  31  32
ENDBRANCH  28  31
ENDBRANCH  26  27
ENDBRANCH   1  26
TORSDOF 14
