REMARK VINA RESULT:    -7.003      2.062      2.809
REMARK INTER + INTRA:         -13.730
REMARK INTER:                 -10.959
REMARK INTRA:                  -2.771
REMARK UNBOUND:                -1.815
REMARK  Name = lig_assembled_71.pdb
REMARK  12 active torsions:
REMARK  status: ('A' for Active; 'I' for Inactive)
REMARK    1  A    between atoms: _2  and  _11
REMARK    2  A    between atoms: _8  and  _9
REMARK    3  A    between atoms: _8  and  _17
REMARK    4  A    between atoms: _11  and  _12
REMARK    5  A    between atoms: _17  and  _19
REMARK    6  A    between atoms: _18  and  _23
REMARK    7  A    between atoms: _19  and  _22
REMARK    8  A    between atoms: _27  and  _37
REMARK    9  A    between atoms: _29  and  _30
REMARK   10  A    between atoms: _31  and  _33
REMARK   11  A    between atoms: _33  and  _35
REMARK   12  A    between atoms: _35  and  _37
REMARK                            x       y       z     vdW  Elec       q    Type
REMARK                         _______ _______ _______ _____ _____    ______ ____
ROOT
ATOM      1  C   UNL     1      27.719  17.334  -1.267  0.00  0.00    +0.400 C 
ATOM      2  N   UNL     1      28.100  16.031  -1.048  0.00  0.00    -0.278 N 
ATOM      3  H   UNL     1      28.457  16.044  -0.040  0.00  0.00    +0.152 HD
ATOM      4  O   UNL     1      27.692  18.099  -0.306  0.00  0.00    -0.226 OA
ENDROOT
BRANCH   2   5
ATOM      5  C   UNL     1      28.220  14.668  -1.557  0.00  0.00    +0.152 C 
BRANCH   5   6
ATOM      6  C   UNL     1      27.880  13.539  -0.562  0.00  0.00    +0.193 C 
ATOM      7  O   UNL     1      26.563  13.059  -0.913  0.00  0.00    -0.219 OA
BRANCH   6   8
ATOM      8  C   UNL     1      28.768  12.275  -0.584  0.00  0.00    +0.212 C 
ATOM      9  O   UNL     1      29.677  12.319  -1.696  0.00  0.00    -0.218 OA
BRANCH   8  10
ATOM     10  C   UNL     1      29.600  12.074   0.739  0.00  0.00    +0.171 C 
ATOM     11  O   UNL     1      28.784  11.728   1.853  0.00  0.00    -0.343 OA
ATOM     12  C   UNL     1      29.219  11.730   3.180  0.00  0.00    +0.220 C 
ATOM     13  C   UNL     1      29.911  13.053   3.552  0.00  0.00    +0.076 C 
ATOM     14  C   UNL     1      31.013  13.307   2.509  0.00  0.00    +0.177 C 
ATOM     15  O   UNL     1      31.713  14.501   2.829  0.00  0.00    -0.221 OA
ATOM     16  C   UNL     1      30.393  13.379   1.079  0.00  0.00    +0.155 C 
BRANCH  16  17
ATOM     17  N   UNL     1      31.435  13.627   0.086  0.00  0.00    -0.202 NA
ATOM     18  C   UNL     1      31.852  14.797  -0.460  0.00  0.00    +0.242 C 
ATOM     19  C   UNL     1      33.142  14.804  -1.239  0.00  0.00    +0.096 C 
ATOM     20  O   UNL     1      31.178  15.814  -0.307  0.00  0.00    -0.273 OA
ENDBRANCH  16  17
BRANCH  12  21
ATOM     21  C   UNL     1      30.139  10.447   3.562  0.00  0.00    +0.391 C 
ATOM     22  O   UNL     1      30.743  10.783   4.718  0.00  0.00    -0.243 OA
ATOM     23  O   UNL     1      29.728   9.448   2.770  0.00  0.00    -0.243 OA
ENDBRANCH  12  21
ENDBRANCH   8  10
ENDBRANCH   6   8
ENDBRANCH   5   6
ENDBRANCH   2   5
BRANCH   1  24
ATOM     24  O   UNL     1      27.450  17.640  -2.494  0.00  0.00    -0.450 OA
BRANCH  24  25
ATOM     25  C   UNL     1      26.405  17.494  -3.427  0.00  0.00    +0.240 C 
BRANCH  25  26
ATOM     26  C   UNL     1      26.338  16.174  -4.218  0.00  0.00    +0.100 C 
BRANCH  26  28
ATOM     27  N   UNL     1      24.549  15.670  -2.571  0.00  0.00    -0.134 NA
ATOM     28  C   UNL     1      25.296  15.293  -3.657  0.00  0.00    +0.086 A 
ATOM     29  C   UNL     1      24.892  14.043  -4.065  0.00  0.00    +0.134 A 
ATOM     30  N   UNL     1      23.910  13.703  -3.181  0.00  0.00    -0.243 N 
ATOM     31  N   UNL     1      23.696  14.691  -2.293  0.00  0.00    -0.065 NA
BRANCH  30  32
ATOM     32  C   UNL     1      23.060  12.531  -3.179  0.00  0.00    +0.241 C 
BRANCH  32  33
ATOM     33  C   UNL     1      22.676  12.120  -1.781  0.00  0.00    +0.241 C 
ATOM     34  O   UNL     1      21.502  12.186  -1.420  0.00  0.00    -0.273 OA
ATOM     35  N   UNL     1      23.737  11.759  -0.978  0.00  0.00    -0.253 N 
ATOM     36  H   UNL     1      24.695  11.913  -1.252  0.00  0.00    +0.158 HD
ATOM     37  C   UNL     1      23.601  11.324   0.335  0.00  0.00    +0.221 A 
ATOM     38  N   UNL     1      24.736  11.297   1.051  0.00  0.00    -0.223 NA
ATOM     39  C   UNL     1      24.611  10.949   2.349  0.00  0.00    +0.116 A 
ATOM     40  C   UNL     1      23.417  10.606   2.939  0.00  0.00    +0.039 A 
ATOM     41  C   UNL     1      22.330  10.622   2.107  0.00  0.00    +0.116 A 
ATOM     42  N   UNL     1      22.403  10.975   0.814  0.00  0.00    -0.223 NA
ENDBRANCH  32  33
ENDBRANCH  30  32
ENDBRANCH  26  28
ENDBRANCH  25  26
ENDBRANCH  24  25
ENDBRANCH   1  24
TORSDOF 12
