REMARK VINA RESULT:    -7.274      2.978      4.319
REMARK INTER + INTRA:         -13.621
REMARK INTER:                 -12.268
REMARK INTRA:                  -1.353
REMARK UNBOUND:                -1.669
REMARK  Name = lig_assembled_70.pdb
REMARK  11 active torsions:
REMARK  status: ('A' for Active; 'I' for Inactive)
REMARK    1  A    between atoms: _2  and  _9
REMARK    2  A    between atoms: _6  and  _7
REMARK    3  A    between atoms: _6  and  _17
REMARK    4  A    between atoms: _17  and  _19
REMARK    5  A    between atoms: _18  and  _23
REMARK    6  A    between atoms: _19  and  _22
REMARK    7  A    between atoms: _27  and  _37
REMARK    8  A    between atoms: _29  and  _30
REMARK    9  A    between atoms: _31  and  _33
REMARK   10  A    between atoms: _33  and  _35
REMARK   11  A    between atoms: _35  and  _37
REMARK                            x       y       z     vdW  Elec       q    Type
REMARK                         _______ _______ _______ _____ _____    ______ ____
ROOT
ATOM      1  C   UNL     1      29.064  17.047  -0.476  0.00  0.00    +0.400 C 
ATOM      2  N   UNL     1      29.603  16.034   0.282  0.00  0.00    -0.278 N 
ATOM      3  H   UNL     1      30.237  16.551   0.970  0.00  0.00    +0.152 HD
ATOM      4  O   UNL     1      29.253  18.205  -0.114  0.00  0.00    -0.226 OA
ENDROOT
BRANCH   1   5
ATOM      5  O   UNL     1      28.422  16.673  -1.534  0.00  0.00    -0.450 OA
BRANCH   5   6
ATOM      6  C   UNL     1      27.486  15.697  -1.927  0.00  0.00    +0.240 C 
BRANCH   6   7
ATOM      7  C   UNL     1      26.475  16.082  -3.024  0.00  0.00    +0.100 C 
BRANCH   7   9
ATOM      8  N   UNL     1      25.095  14.265  -2.054  0.00  0.00    -0.134 NA
ATOM      9  C   UNL     1      25.183  15.408  -2.795  0.00  0.00    +0.086 A 
ATOM     10  C   UNL     1      23.926  15.756  -3.231  0.00  0.00    +0.140 A 
ATOM     11  N   UNL     1      23.090  14.792  -2.717  0.00  0.00    -0.218 N 
ATOM     12  N   UNL     1      23.821  13.893  -2.018  0.00  0.00    -0.060 NA
BRANCH  11  13
ATOM     13  C   UNL     1      21.688  14.700  -2.831  0.00  0.00    +0.086 A 
ATOM     14  C   UNL     1      21.002  13.653  -2.236  0.00  0.00    +0.139 A 
ATOM     15  N   UNL     1      19.650  13.526  -2.266  0.00  0.00    -0.253 NA
ATOM     16  C   UNL     1      18.936  14.473  -2.903  0.00  0.00    +0.071 A 
ATOM     17  C   UNL     1      19.549  15.565  -3.552  0.00  0.00    +0.002 A 
ATOM     18  C   UNL     1      18.769  16.534  -4.207  0.00  0.00    +0.010 A 
ATOM     19  C   UNL     1      17.381  16.438  -4.204  0.00  0.00    +0.001 A 
ATOM     20  C   UNL     1      16.770  15.370  -3.559  0.00  0.00    +0.002 A 
ATOM     21  C   UNL     1      17.550  14.398  -2.924  0.00  0.00    +0.028 A 
ATOM     22  C   UNL     1      20.945  15.661  -3.515  0.00  0.00    +0.039 A 
ENDBRANCH  11  13
ENDBRANCH   7   9
ENDBRANCH   6   7
ENDBRANCH   5   6
ENDBRANCH   1   5
BRANCH   2  23
ATOM     23  C   UNL     1      29.686  14.605   0.570  0.00  0.00    +0.152 C 
BRANCH  23  24
ATOM     24  C   UNL     1      31.098  13.985   0.537  0.00  0.00    +0.193 C 
ATOM     25  O   UNL     1      30.927  12.556   0.662  0.00  0.00    -0.219 OA
BRANCH  24  26
ATOM     26  C   UNL     1      31.926  14.162  -0.755  0.00  0.00    +0.212 C 
ATOM     27  O   UNL     1      32.321  15.534  -0.914  0.00  0.00    -0.218 OA
BRANCH  26  28
ATOM     28  C   UNL     1      33.216  13.258  -0.799  0.00  0.00    +0.171 C 
ATOM     29  O   UNL     1      34.150  13.586   0.225  0.00  0.00    -0.343 OA
ATOM     30  C   UNL     1      35.465  13.119   0.271  0.00  0.00    +0.220 C 
ATOM     31  C   UNL     1      36.197  13.340  -1.064  0.00  0.00    +0.076 C 
ATOM     32  C   UNL     1      35.330  12.725  -2.174  0.00  0.00    +0.177 C 
ATOM     33  O   UNL     1      35.982  12.867  -3.429  0.00  0.00    -0.221 OA
ATOM     34  C   UNL     1      33.920  13.393  -2.189  0.00  0.00    +0.155 C 
BRANCH  34  35
ATOM     35  N   UNL     1      33.096  12.816  -3.247  0.00  0.00    -0.202 NA
ATOM     36  C   UNL     1      32.894  13.242  -4.520  0.00  0.00    +0.242 C 
ATOM     37  C   UNL     1      32.231  12.302  -5.493  0.00  0.00    +0.096 C 
ATOM     38  O   UNL     1      33.254  14.371  -4.847  0.00  0.00    -0.273 OA
ENDBRANCH  34  35
BRANCH  30  39
ATOM     39  C   UNL     1      35.587  11.577   0.770  0.00  0.00    +0.391 C 
ATOM     40  O   UNL     1      36.847  11.211   0.465  0.00  0.00    -0.243 OA
ATOM     41  O   UNL     1      34.521  11.356   1.549  0.00  0.00    -0.243 OA
ENDBRANCH  30  39
ENDBRANCH  26  28
ENDBRANCH  24  26
ENDBRANCH  23  24
ENDBRANCH   2  23
TORSDOF 11
