REMARK VINA RESULT:    -6.688      3.612      8.198
REMARK INTER + INTRA:         -12.988
REMARK INTER:                 -12.158
REMARK INTRA:                  -0.830
REMARK UNBOUND:                -1.999
REMARK  Name = lig_assembled_57.pdb
REMARK  12 active torsions:
REMARK  status: ('A' for Active; 'I' for Inactive)
REMARK    1  A    between atoms: _2  and  _9
REMARK    2  A    between atoms: _3  and  _12
REMARK    3  A    between atoms: _6  and  _7
REMARK    4  A    between atoms: _6  and  _14
REMARK    5  A    between atoms: _14  and  _16
REMARK    6  A    between atoms: _15  and  _20
REMARK    7  A    between atoms: _16  and  _19
REMARK    8  A    between atoms: _24  and  _34
REMARK    9  A    between atoms: _26  and  _27
REMARK   10  A    between atoms: _28  and  _30
REMARK   11  A    between atoms: _30  and  _32
REMARK   12  A    between atoms: _32  and  _34
REMARK                            x       y       z     vdW  Elec       q    Type
REMARK                         _______ _______ _______ _____ _____    ______ ____
ROOT
ATOM      1  C   UNL     1      28.941  17.028  -0.471  0.00  0.00    +0.400 C 
ATOM      2  N   UNL     1      29.011  15.912   0.330  0.00  0.00    -0.278 N 
ATOM      3  H   UNL     1      29.707  16.196   1.089  0.00  0.00    +0.152 HD
ATOM      4  O   UNL     1      29.482  18.058  -0.077  0.00  0.00    -0.226 OA
ENDROOT
BRANCH   1   5
ATOM      5  O   UNL     1      28.327  16.870  -1.597  0.00  0.00    -0.450 OA
BRANCH   5   6
ATOM      6  C   UNL     1      27.076  17.153  -2.180  0.00  0.00    +0.240 C 
BRANCH   6   7
ATOM      7  C   UNL     1      26.991  17.147  -3.719  0.00  0.00    +0.100 C 
BRANCH   7   9
ATOM      8  N   UNL     1      26.013  15.623  -5.397  0.00  0.00    -0.134 NA
ATOM      9  C   UNL     1      25.950  16.203  -4.162  0.00  0.00    +0.086 A 
ATOM     10  C   UNL     1      24.835  15.734  -3.499  0.00  0.00    +0.134 A 
ATOM     11  N   UNL     1      24.309  14.805  -4.348  0.00  0.00    -0.248 N 
ATOM     12  N   UNL     1      24.984  14.799  -5.516  0.00  0.00    -0.065 NA
BRANCH  11  13
ATOM     13  C   UNL     1      23.238  13.835  -4.159  0.00  0.00    +0.111 C 
ATOM     14  C   UNL     1      23.266  13.264  -2.734  0.00  0.00    +0.042 C 
ATOM     15  C   UNL     1      22.744  14.292  -1.734  0.00  0.00    +0.086 C 
ATOM     16  N   UNL     1      21.373  14.727  -2.022  0.00  0.00    -0.305 NA
ATOM     17  C   UNL     1      21.219  15.225  -3.389  0.00  0.00    +0.086 C 
ATOM     18  C   UNL     1      20.385  13.712  -1.673  0.00  0.00    +0.104 C 
ATOM     19  C   UNL     1      21.815  14.323  -4.480  0.00  0.00    +0.042 C 
ENDBRANCH  11  13
ENDBRANCH   7   9
ENDBRANCH   6   7
ENDBRANCH   5   6
ENDBRANCH   1   5
BRANCH   2  20
ATOM     20  C   UNL     1      28.560  14.551   0.610  0.00  0.00    +0.152 C 
BRANCH  20  21
ATOM     21  C   UNL     1      28.877  14.007   2.018  0.00  0.00    +0.193 C 
ATOM     22  O   UNL     1      27.669  13.379   2.502  0.00  0.00    -0.219 OA
BRANCH  21  23
ATOM     23  C   UNL     1      29.956  12.907   2.134  0.00  0.00    +0.212 C 
ATOM     24  O   UNL     1      29.504  11.694   1.511  0.00  0.00    -0.218 OA
BRANCH  23  25
ATOM     25  C   UNL     1      31.337  13.318   1.494  0.00  0.00    +0.171 C 
ATOM     26  O   UNL     1      31.388  13.067   0.094  0.00  0.00    -0.343 OA
ATOM     27  C   UNL     1      32.556  13.106  -0.672  0.00  0.00    +0.220 C 
ATOM     28  C   UNL     1      33.679  12.262  -0.044  0.00  0.00    +0.076 C 
ATOM     29  C   UNL     1      33.844  12.723   1.414  0.00  0.00    +0.177 C 
ATOM     30  O   UNL     1      34.900  12.000   2.031  0.00  0.00    -0.221 OA
ATOM     31  C   UNL     1      32.503  12.542   2.190  0.00  0.00    +0.155 C 
BRANCH  31  32
ATOM     32  N   UNL     1      32.658  12.973   3.577  0.00  0.00    -0.202 NA
ATOM     33  C   UNL     1      32.834  12.232   4.701  0.00  0.00    +0.242 C 
ATOM     34  C   UNL     1      33.262  12.937   5.962  0.00  0.00    +0.096 C 
ATOM     35  O   UNL     1      32.645  11.018   4.665  0.00  0.00    -0.273 OA
ENDBRANCH  31  32
BRANCH  27  36
ATOM     36  C   UNL     1      33.059  14.614  -1.007  0.00  0.00    +0.391 C 
ATOM     37  O   UNL     1      31.992  15.399  -0.763  0.00  0.00    -0.243 OA
ATOM     38  O   UNL     1      34.393  14.546  -1.103  0.00  0.00    -0.243 OA
ENDBRANCH  27  36
ENDBRANCH  23  25
ENDBRANCH  21  23
ENDBRANCH  20  21
ENDBRANCH   2  20
TORSDOF 11
