REMARK VINA RESULT:    -5.868      2.314      3.027
REMARK INTER + INTRA:         -11.904
REMARK INTER:                  -9.759
REMARK INTRA:                  -2.145
REMARK UNBOUND:                -2.263
REMARK  Name = lig_assembled_52.pdb
REMARK  11 active torsions:
REMARK  status: ('A' for Active; 'I' for Inactive)
REMARK    1  A    between atoms: _2  and  _9
REMARK    2  A    between atoms: _6  and  _7
REMARK    3  A    between atoms: _6  and  _13
REMARK    4  A    between atoms: _13  and  _15
REMARK    5  A    between atoms: _14  and  _19
REMARK    6  A    between atoms: _15  and  _18
REMARK    7  A    between atoms: _23  and  _33
REMARK    8  A    between atoms: _25  and  _26
REMARK    9  A    between atoms: _27  and  _29
REMARK   10  A    between atoms: _29  and  _31
REMARK   11  A    between atoms: _31  and  _33
REMARK                            x       y       z     vdW  Elec       q    Type
REMARK                         _______ _______ _______ _____ _____    ______ ____
ROOT
ATOM      1  C   UNL     1      28.249  14.858  -0.865  0.00  0.00    +0.152 C 
ENDROOT
BRANCH   1   3
ATOM      2  C   UNL     1      27.653  17.427  -1.568  0.00  0.00    +0.400 C 
ATOM      3  N   UNL     1      28.068  16.307  -0.885  0.00  0.00    -0.278 N 
ATOM      4  H   UNL     1      28.388  16.697   0.057  0.00  0.00    +0.152 HD
ATOM      5  O   UNL     1      27.568  18.484  -0.949  0.00  0.00    -0.226 OA
BRANCH   2   6
ATOM      6  O   UNL     1      27.419  17.259  -2.828  0.00  0.00    -0.450 OA
BRANCH   6   7
ATOM      7  C   UNL     1      26.323  17.095  -3.698  0.00  0.00    +0.240 C 
BRANCH   7   8
ATOM      8  C   UNL     1      26.372  15.915  -4.688  0.00  0.00    +0.100 C 
BRANCH   8  10
ATOM      9  N   UNL     1      25.284  14.480  -2.992  0.00  0.00    -0.134 NA
ATOM     10  C   UNL     1      26.226  14.637  -3.968  0.00  0.00    +0.086 A 
ATOM     11  C   UNL     1      26.923  13.459  -4.111  0.00  0.00    +0.140 A 
ATOM     12  N   UNL     1      26.352  12.595  -3.205  0.00  0.00    -0.218 N 
ATOM     13  N   UNL     1      25.370  13.241  -2.531  0.00  0.00    -0.060 NA
BRANCH  12  14
ATOM     14  C   UNL     1      26.663  11.241  -2.961  0.00  0.00    +0.085 A 
ATOM     15  C   UNL     1      25.699  10.232  -3.046  0.00  0.00    +0.031 A 
ATOM     16  C   UNL     1      26.065   8.916  -2.771  0.00  0.00    +0.022 A 
ATOM     17  C   UNL     1      27.379   8.654  -2.424  0.00  0.00    +0.111 A 
ATOM     18  N   UNL     1      28.334   9.604  -2.340  0.00  0.00    -0.261 NA
ATOM     19  C   UNL     1      27.959  10.879  -2.611  0.00  0.00    +0.138 A 
ENDBRANCH  12  14
ENDBRANCH   8  10
ENDBRANCH   7   8
ENDBRANCH   6   7
ENDBRANCH   2   6
ENDBRANCH   1   3
BRANCH   1  20
ATOM     20  C   UNL     1      29.425  14.332  -0.018  0.00  0.00    +0.193 C 
ATOM     21  O   UNL     1      29.308  12.892   0.007  0.00  0.00    -0.219 OA
BRANCH  20  22
ATOM     22  C   UNL     1      30.855  14.592  -0.541  0.00  0.00    +0.212 C 
ATOM     23  O   UNL     1      31.204  15.977  -0.380  0.00  0.00    -0.218 OA
BRANCH  22  24
ATOM     24  C   UNL     1      31.951  13.711   0.172  0.00  0.00    +0.171 C 
ATOM     25  O   UNL     1      32.256  14.172   1.484  0.00  0.00    -0.343 OA
ATOM     26  C   UNL     1      33.347  13.734   2.239  0.00  0.00    +0.220 C 
ATOM     27  C   UNL     1      34.661  13.811   1.441  0.00  0.00    +0.076 C 
ATOM     28  C   UNL     1      34.444  13.056   0.119  0.00  0.00    +0.177 C 
ATOM     29  O   UNL     1      35.643  13.063  -0.642  0.00  0.00    -0.221 OA
ATOM     30  C   UNL     1      33.264  13.695  -0.678  0.00  0.00    +0.155 C 
BRANCH  30  31
ATOM     31  N   UNL     1      33.059  12.985  -1.937  0.00  0.00    -0.202 NA
ATOM     32  C   UNL     1      33.249  13.408  -3.213  0.00  0.00    +0.242 C 
ATOM     33  C   UNL     1      33.245  12.381  -4.315  0.00  0.00    +0.096 C 
ATOM     34  O   UNL     1      33.419  14.605  -3.437  0.00  0.00    -0.273 OA
ENDBRANCH  30  31
BRANCH  26  35
ATOM     35  C   UNL     1      33.132  12.264   2.895  0.00  0.00    +0.391 C 
ATOM     36  O   UNL     1      34.361  11.875   3.287  0.00  0.00    -0.243 OA
ATOM     37  O   UNL     1      31.812  12.127   3.071  0.00  0.00    -0.243 OA
ENDBRANCH  26  35
ENDBRANCH  22  24
ENDBRANCH  20  22
ENDBRANCH   1  20
TORSDOF 11
