REMARK VINA RESULT:    -5.700     22.096     25.476
REMARK INTER + INTRA:         -12.289
REMARK INTER:                 -10.528
REMARK INTRA:                  -1.761
REMARK UNBOUND:                -2.422
REMARK  Name = lig_assembled_53.pdb
REMARK  13 active torsions:
REMARK  status: ('A' for Active; 'I' for Inactive)
REMARK    1  A    between atoms: _2  and  _8
REMARK    2  A    between atoms: _4  and  _8
REMARK    3  A    between atoms: _4  and  _9
REMARK    4  A    between atoms: _5  and  _6
REMARK    5  A    between atoms: _5  and  _11
REMARK    6  A    between atoms: _11  and  _13
REMARK    7  A    between atoms: _12  and  _17
REMARK    8  A    between atoms: _13  and  _16
REMARK    9  A    between atoms: _21  and  _31
REMARK   10  A    between atoms: _23  and  _24
REMARK   11  A    between atoms: _25  and  _27
REMARK   12  A    between atoms: _27  and  _29
REMARK   13  A    between atoms: _29  and  _31
REMARK                            x       y       z     vdW  Elec       q    Type
REMARK                         _______ _______ _______ _____ _____    ______ ____
ROOT
ATOM      1  C   UNL     1      45.682  26.823  12.043  0.00  0.00    +0.152 C 
ENDROOT
BRANCH   1   3
ATOM      2  C   UNL     1      46.329  29.421  11.519  0.00  0.00    +0.400 C 
ATOM      3  N   UNL     1      45.986  28.095  11.395  0.00  0.00    -0.278 N 
ATOM      4  H   UNL     1      45.933  27.952  10.337  0.00  0.00    +0.152 HD
ATOM      5  O   UNL     1      46.654  30.033  10.505  0.00  0.00    -0.226 OA
BRANCH   2   6
ATOM      6  O   UNL     1      46.243  29.912  12.712  0.00  0.00    -0.450 OA
BRANCH   6   7
ATOM      7  C   UNL     1      46.925  29.852  13.943  0.00  0.00    +0.240 C 
BRANCH   7   8
ATOM      8  C   UNL     1      46.150  30.272  15.206  0.00  0.00    +0.100 C 
BRANCH   8  10
ATOM      9  N   UNL     1      45.451  27.910  15.453  0.00  0.00    -0.134 NA
ATOM     10  C   UNL     1      45.827  29.093  16.029  0.00  0.00    +0.086 A 
ATOM     11  C   UNL     1      45.832  28.945  17.398  0.00  0.00    +0.134 A 
ATOM     12  N   UNL     1      45.386  27.673  17.598  0.00  0.00    -0.241 N 
ATOM     13  N   UNL     1      45.204  27.038  16.422  0.00  0.00    -0.065 NA
BRANCH  12  14
ATOM     14  C   UNL     1      45.251  26.909  18.820  0.00  0.00    +0.265 C 
BRANCH  14  15
ATOM     15  C   UNL     1      43.862  26.408  19.115  0.00  0.00    +0.326 C 
ATOM     16  O   UNL     1      43.232  26.568  20.150  0.00  0.00    -0.249 OA
BRANCH  15  17
ATOM     17  O   UNL     1      43.332  25.706  18.078  0.00  0.00    -0.479 OA
ATOM     18  H   UNL     1      43.798  24.883  17.838  0.00  0.00    +0.295 HD
ENDBRANCH  15  17
ENDBRANCH  14  15
ENDBRANCH  12  14
ENDBRANCH   8  10
ENDBRANCH   7   8
ENDBRANCH   6   7
ENDBRANCH   2   6
ENDBRANCH   1   3
BRANCH   1  19
ATOM     19  C   UNL     1      45.456  25.619  11.106  0.00  0.00    +0.193 C 
ATOM     20  O   UNL     1      44.588  26.076  10.045  0.00  0.00    -0.219 OA
BRANCH  19  21
ATOM     21  C   UNL     1      46.688  25.041  10.374  0.00  0.00    +0.212 C 
ATOM     22  O   UNL     1      47.892  25.660  10.854  0.00  0.00    -0.218 OA
BRANCH  21  23
ATOM     23  C   UNL     1      46.828  23.478  10.526  0.00  0.00    +0.171 C 
ATOM     24  O   UNL     1      45.951  22.763   9.662  0.00  0.00    -0.343 OA
ATOM     25  C   UNL     1      45.694  21.393   9.759  0.00  0.00    +0.220 C 
ATOM     26  C   UNL     1      45.311  20.985  11.193  0.00  0.00    +0.076 C 
ATOM     27  C   UNL     1      46.412  21.505  12.132  0.00  0.00    +0.177 C 
ATOM     28  O   UNL     1      46.127  21.119  13.469  0.00  0.00    -0.221 OA
ATOM     29  C   UNL     1      46.540  23.055  12.004  0.00  0.00    +0.155 C 
BRANCH  29  30
ATOM     30  N   UNL     1      47.581  23.553  12.899  0.00  0.00    -0.202 NA
ATOM     31  C   UNL     1      47.471  24.110  14.132  0.00  0.00    +0.242 C 
ATOM     32  C   UNL     1      48.720  24.265  14.961  0.00  0.00    +0.096 C 
ATOM     33  O   UNL     1      46.369  24.469  14.541  0.00  0.00    -0.273 OA
ENDBRANCH  29  30
BRANCH  25  34
ATOM     34  C   UNL     1      46.893  20.466   9.175  0.00  0.00    +0.391 C 
ATOM     35  O   UNL     1      46.740  19.275   9.786  0.00  0.00    -0.243 OA
ATOM     36  O   UNL     1      47.379  21.118   8.111  0.00  0.00    -0.243 OA
ENDBRANCH  25  34
ENDBRANCH  21  23
ENDBRANCH  19  21
ENDBRANCH   1  19
TORSDOF 13
