REMARK VINA RESULT:    -6.980      1.626      3.271
REMARK INTER + INTRA:         -12.887
REMARK INTER:                 -11.469
REMARK INTRA:                  -1.418
REMARK UNBOUND:                -1.418
REMARK  Name = lig_assembled_20.pdb
REMARK  11 active torsions:
REMARK  status: ('A' for Active; 'I' for Inactive)
REMARK    1  A    between atoms: _2  and  _10
REMARK    2  A    between atoms: _7  and  _8
REMARK    3  A    between atoms: _7  and  _16
REMARK    4  A    between atoms: _16  and  _18
REMARK    5  A    between atoms: _17  and  _22
REMARK    6  A    between atoms: _18  and  _21
REMARK    7  A    between atoms: _26  and  _36
REMARK    8  A    between atoms: _28  and  _29
REMARK    9  A    between atoms: _30  and  _32
REMARK   10  A    between atoms: _32  and  _34
REMARK   11  A    between atoms: _34  and  _36
REMARK                            x       y       z     vdW  Elec       q    Type
REMARK                         _______ _______ _______ _____ _____    ______ ____
ROOT
ATOM      1  C   UNL     1      28.475  16.898  -0.681  0.00  0.00    +0.400 C 
ATOM      2  N   UNL     1      28.686  15.825   0.152  0.00  0.00    -0.278 N 
ATOM      3  H   UNL     1      29.584  16.086   0.670  0.00  0.00    +0.152 HD
ATOM      4  O   UNL     1      29.175  17.896  -0.529  0.00  0.00    -0.226 OA
ENDROOT
BRANCH   1   5
ATOM      5  O   UNL     1      27.563  16.735  -1.583  0.00  0.00    -0.450 OA
BRANCH   5   6
ATOM      6  C   UNL     1      27.304  15.926  -2.706  0.00  0.00    +0.240 C 
BRANCH   6   7
ATOM      7  C   UNL     1      25.979  16.158  -3.458  0.00  0.00    +0.100 C 
BRANCH   7   9
ATOM      8  N   UNL     1      23.577  15.693  -3.055  0.00  0.00    -0.134 NA
ATOM      9  C   UNL     1      24.889  15.388  -2.834  0.00  0.00    +0.086 A 
ATOM     10  C   UNL     1      24.960  14.311  -1.982  0.00  0.00    +0.139 A 
ATOM     11  N   UNL     1      23.653  13.984  -1.705  0.00  0.00    -0.220 N 
ATOM     12  N   UNL     1      22.832  14.836  -2.368  0.00  0.00    -0.061 NA
BRANCH  11  13
ATOM     13  C   UNL     1      23.161  12.942  -0.877  0.00  0.00    +0.068 A 
ATOM     14  C   UNL     1      21.776  12.731  -0.768  0.00  0.00    +0.030 A 
ATOM     15  C   UNL     1      21.256  11.708   0.038  0.00  0.00    +0.030 A 
ATOM     16  C   UNL     1      22.174  10.909   0.726  0.00  0.00    +0.066 A 
ATOM     17  C   UNL     1      23.548  11.093   0.641  0.00  0.00    +0.021 A 
ATOM     18  C   UNL     1      24.094  10.094   1.476  0.00  0.00    +0.142 A 
ATOM     19  N   UNL     1      23.159   9.334   2.048  0.00  0.00    -0.181 NA
ATOM     20  N   UNL     1      22.007   9.846   1.575  0.00  0.00    -0.277 N 
ATOM     21  H   UNL     1      21.135   9.426   1.874  0.00  0.00    +0.189 HD
ATOM     22  C   UNL     1      24.059  12.123  -0.169  0.00  0.00    +0.039 A 
ENDBRANCH  11  13
ENDBRANCH   7   9
ENDBRANCH   6   7
ENDBRANCH   5   6
ENDBRANCH   1   5
BRANCH   2  23
ATOM     23  C   UNL     1      28.237  14.526   0.647  0.00  0.00    +0.152 C 
BRANCH  23  24
ATOM     24  C   UNL     1      28.799  14.088   2.015  0.00  0.00    +0.193 C 
ATOM     25  O   UNL     1      27.691  13.539   2.762  0.00  0.00    -0.219 OA
BRANCH  24  26
ATOM     26  C   UNL     1      29.863  12.968   2.025  0.00  0.00    +0.212 C 
ATOM     27  O   UNL     1      29.318  11.753   1.486  0.00  0.00    -0.218 OA
BRANCH  26  28
ATOM     28  C   UNL     1      31.166  13.337   1.219  0.00  0.00    +0.171 C 
ATOM     29  O   UNL     1      30.936  13.423  -0.184  0.00  0.00    -0.343 OA
ATOM     30  C   UNL     1      31.948  13.493  -1.145  0.00  0.00    +0.220 C 
ATOM     31  C   UNL     1      32.998  12.386  -0.950  0.00  0.00    +0.076 C 
ATOM     32  C   UNL     1      33.484  12.461   0.507  0.00  0.00    +0.177 C 
ATOM     33  O   UNL     1      34.488  11.482   0.731  0.00  0.00    -0.221 OA
ATOM     34  C   UNL     1      32.282  12.274   1.485  0.00  0.00    +0.155 C 
BRANCH  34  35
ATOM     35  N   UNL     1      32.740  12.338   2.870  0.00  0.00    -0.202 NA
ATOM     36  C   UNL     1      33.309  13.366   3.550  0.00  0.00    +0.242 C 
ATOM     37  C   UNL     1      33.416  13.261   5.049  0.00  0.00    +0.096 C 
ATOM     38  O   UNL     1      33.719  14.348   2.934  0.00  0.00    -0.273 OA
ENDBRANCH  34  35
BRANCH  30  39
ATOM     39  C   UNL     1      32.639  14.960  -1.252  0.00  0.00    +0.391 C 
ATOM     40  O   UNL     1      33.607  14.821  -2.178  0.00  0.00    -0.243 OA
ATOM     41  O   UNL     1      31.812  15.805  -0.623  0.00  0.00    -0.243 OA
ENDBRANCH  30  39
ENDBRANCH  26  28
ENDBRANCH  24  26
ENDBRANCH  23  24
ENDBRANCH   2  23
TORSDOF 11
